REMARK  Name = ZINC20836425
REMARK  10 active torsions:
REMARK  status: ('A' for Active; 'I' for Inactive)
REMARK    1  A    between atoms: C_1  and  C_2
REMARK    2  A    between atoms: C_5  and  N_9
REMARK    3  A    between atoms: C_6  and  C_8
REMARK    4  A    between atoms: N_9  and  S_10
REMARK    5  A    between atoms: S_10  and  C_13
REMARK    6  A    between atoms: C_16  and  N_19
REMARK    7  A    between atoms: C_20  and  C_22
REMARK    8  A    between atoms: C_22  and  S_23
REMARK    9  A    between atoms: S_23  and  C_24
REMARK   10  A    between atoms: N_29  and  N_30
REMARK                            x       y       z     vdW  Elec       q    Type
REMARK                         _______ _______ _______ _____ _____    ______ ____
ROOT
ATOM      1  N   UNL     1       8.905   4.764   0.632  0.00  0.00    -0.285 N 
ATOM      2  C   UNL     1       8.462   3.499   0.774  0.00  0.00    +0.227 C 
ATOM      3  O   UNL     1       9.242   2.573   0.717  0.00  0.00    -0.275 OA
ATOM      4  H   UNL     1       8.214   5.608   0.773  0.00  0.00    +0.155 HD
ENDROOT
BRANCH   1   8
ATOM      5  C   UNL     1      12.892   5.476  -0.344  0.00  0.00    +0.109 A 
ATOM      6  C   UNL     1      12.244   4.367  -0.856  0.00  0.00    +0.030 A 
ATOM      7  C   UNL     1      10.922   4.128  -0.535  0.00  0.00    +0.025 A 
ATOM      8  C   UNL     1      10.244   5.003   0.304  0.00  0.00    +0.034 A 
ATOM      9  C   UNL     1      10.896   6.119   0.812  0.00  0.00    +0.025 A 
ATOM     10  C   UNL     1      12.220   6.349   0.491  0.00  0.00    +0.030 A 
BRANCH   5  11
ATOM     11  S   UNL     1      14.578   5.777  -0.757  0.00  0.00    +0.072 S 
ATOM     12  O   UNL     1      15.114   6.581   0.285  0.00  0.00    -0.150 OA
ATOM     13  O   UNL     1      15.139   4.521  -1.115  0.00  0.00    -0.150 OA
BRANCH  11  14
ATOM     14  N   UNL     1      14.589   6.708  -2.127  0.00  0.00    -0.216 N 
ATOM     15  H   UNL     1      15.070   6.334  -3.042  0.00  0.00    +0.174 HD
BRANCH  14  20
ATOM     16  C   UNL     1      12.143  11.824  -2.098  0.00  0.00    +0.044 C 
ATOM     17  C   UNL     1      12.792  10.464  -2.105  0.00  0.00    -0.050 A 
ATOM     18  C   UNL     1      13.442  10.004  -0.974  0.00  0.00    +0.005 A 
ATOM     19  C   UNL     1      14.039   8.758  -0.978  0.00  0.00    +0.025 A 
ATOM     20  C   UNL     1      13.986   7.968  -2.119  0.00  0.00    +0.051 A 
ATOM     21  C   UNL     1      13.336   8.435  -3.255  0.00  0.00    -0.028 A 
ATOM     22  C   UNL     1      12.737   9.680  -3.242  0.00  0.00    +0.008 A 
ATOM     23  C   UNL     1      13.281   7.583  -4.497  0.00  0.00    +0.046 C 
ENDBRANCH  14  20
ENDBRANCH  11  14
ENDBRANCH   5  11
ENDBRANCH   1   8
BRANCH   2  24
ATOM     24  C   UNL     1       6.996   3.236   1.005  0.00  0.00    +0.173 C 
BRANCH  24  25
ATOM     25  S   UNL     1       6.718   1.450   1.155  0.00  0.00    -0.075 S 
BRANCH  25  26
ATOM     26  C   UNL     1       4.982   1.309   1.418  0.00  0.00    +0.211 A 
ATOM     27  N   UNL     1       4.288   0.145   1.591  0.00  0.00    -0.186 NA
ATOM     28  C   UNL     1       2.969   0.461   1.765  0.00  0.00    +0.232 A 
ATOM     29  N   UNL     1       2.853   1.765   1.696  0.00  0.00    -0.245 N 
ATOM     30  N   UNL     1       4.128   2.303   1.482  0.00  0.00    -0.144 NA
ATOM     31  N   UNL     1       1.934  -0.441   1.972  0.00  0.00    -0.205 N 
ATOM     32  H   UNL     1       2.145  -1.520   2.011  0.00  0.00    +0.177 HD
ATOM     33  H   UNL     1       1.864   2.235   1.805  0.00  0.00    +0.192 HD
BRANCH  31  34
ATOM     34  N   UNL     1       0.622   0.023   2.129  0.00  0.00    -0.189 NA
ATOM     35  C   UNL     1      -0.345  -0.811   2.226  0.00  0.00    +0.037 C 
ATOM     36  C   UNL     1      -0.082  -2.299   2.291  0.00  0.00    +0.052 C 
ATOM     37  C   UNL     1      -0.832  -2.870   3.504  0.00  0.00    +0.006 C 
ATOM     38  C   UNL     1      -2.311  -2.495   3.407  0.00  0.00    +0.001 C 
ATOM     39  C   UNL     1      -2.468  -0.976   3.481  0.00  0.00    +0.006 C 
ATOM     40  C   UNL     1      -1.780  -0.334   2.272  0.00  0.00    +0.052 C 
ENDBRANCH  31  34
ENDBRANCH  25  26
ENDBRANCH  24  25
ENDBRANCH   2  24
TORSDOF 8
