REMARK  Name = ZINC67580856
REMARK  5 active torsions:
REMARK  status: ('A' for Active; 'I' for Inactive)
REMARK    1  A    between atoms: C_4  and  C_7
REMARK    2  A    between atoms: C_7  and  N_8
REMARK    3  A    between atoms: C_12  and  C_14
REMARK    4  A    between atoms: C_14  and  N_15
REMARK    5  A    between atoms: N_18  and  C_19
REMARK                            x       y       z     vdW  Elec       q    Type
REMARK                         _______ _______ _______ _____ _____    ______ ____
ROOT
ATOM      1  C   UNL     1       5.246  -3.006  -2.922  0.00  0.00    +0.090 C 
ENDROOT
BRANCH   1   6
ATOM      2  N   UNL     1       3.102  -1.908  -2.422  0.00  0.00    +0.383 N 
ATOM      3  C   UNL     1       1.818  -2.629  -2.549  0.00  0.00    -0.078 C 
ATOM      4  C   UNL     1       1.734  -3.028  -4.044  0.00  0.00    -0.020 C 
ATOM      5  C   UNL     1       3.214  -3.369  -4.361  0.00  0.00    -0.016 C 
ATOM      6  C   UNL     1       3.996  -2.346  -3.510  0.00  0.00    -0.051 C 
ATOM      7  H   UNL     1       3.522  -2.122  -1.530  0.00  0.00    -0.081 HD
BRANCH   2   8
ATOM      8  C   UNL     1       2.870  -0.461  -2.526  0.00  0.00    -0.075 C 
BRANCH   8  12
ATOM      9  C   UNL     1       1.760   1.799   0.993  0.00  0.00    +0.000 C 
ATOM     10  C   UNL     1       2.123   0.323   1.169  0.00  0.00    +0.000 C 
ATOM     11  C   UNL     1       2.920  -0.155  -0.047  0.00  0.00    +0.002 C 
ATOM     12  C   UNL     1       2.073   0.016  -1.310  0.00  0.00    -0.028 C 
ATOM     13  C   UNL     1       1.711   1.492  -1.486  0.00  0.00    +0.002 C 
ATOM     14  C   UNL     1       0.914   1.970  -0.270  0.00  0.00    +0.000 C 
ENDBRANCH   8  12
ENDBRANCH   2   8
ENDBRANCH   1   6
BRANCH   1  15
ATOM     15  N   UNL     1       5.888  -2.084  -1.982  0.00  0.00    -0.301 N 
ATOM     16  C   UNL     1       7.013  -2.454  -1.339  0.00  0.00    +0.300 C 
ATOM     17  O   UNL     1       7.496  -3.551  -1.540  0.00  0.00    -0.253 OA
ATOM     18  N   UNL     1       7.604  -1.606  -0.473  0.00  0.00    -0.295 N 
ATOM     19  H   UNL     1       5.503  -1.209  -1.821  0.00  0.00    +0.150 HD
ATOM     20  H   UNL     1       7.218  -0.730  -0.313  0.00  0.00    +0.151 HD
BRANCH  18  21
ATOM     21  C   UNL     1       8.827  -2.007   0.226  0.00  0.00    +0.097 C 
ATOM     22  C   UNL     1       8.465  -2.777   1.507  0.00  0.00    +0.046 C 
ATOM     23  C   UNL     1       9.716  -2.923   2.406  0.00  0.00    +0.168 C 
ATOM     24  S   UNL     1      10.713  -1.444   1.955  0.00  0.00    -0.029 S 
ATOM     25  O   UNL     1      10.733  -0.547   3.057  0.00  0.00    -0.174 OA
ATOM     26  O   UNL     1      11.939  -1.872   1.378  0.00  0.00    -0.174 OA
ATOM     27  C   UNL     1       9.638  -0.744   0.633  0.00  0.00    +0.188 C 
ENDBRANCH  18  21
ENDBRANCH   1  15
TORSDOF 5
