REMARK  Name = ZINC15859803
REMARK  7 active torsions:
REMARK  status: ('A' for Active; 'I' for Inactive)
REMARK    1  A    between atoms: C_6  and  C_7
REMARK    2  A    between atoms: C_8  and  C_30
REMARK    3  A    between atoms: C_12  and  S_14
REMARK    4  A    between atoms: S_14  and  C_15
REMARK    5  A    between atoms: C_15  and  C_16
REMARK    6  A    between atoms: N_18  and  C_19
REMARK    7  A    between atoms: C_20  and  C_28
REMARK                            x       y       z     vdW  Elec       q    Type
REMARK                         _______ _______ _______ _____ _____    ______ ____
ROOT
ATOM      1  S   UNL     1      -4.833  -0.330   1.587  0.00  0.00    -0.077 S 
ENDROOT
BRANCH   1   7
ATOM      2  C   UNL     1      -1.269  -0.764   0.011  0.00  0.00    +0.097 A 
ATOM      3  C   UNL     1      -1.379  -1.986  -0.687  0.00  0.00    +0.144 A 
ATOM      4  C   UNL     1      -2.611  -2.666  -0.643  0.00  0.00    +0.292 A 
ATOM      5  O   UNL     1      -2.772  -3.841  -1.293  0.00  0.00    -0.264 OA
ATOM      6  N   UNL     1      -3.612  -2.135   0.047  0.00  0.00    -0.182 NA
ATOM      7  C   UNL     1      -3.466  -0.984   0.689  0.00  0.00    +0.193 A 
ATOM      8  N   UNL     1      -2.324  -0.311   0.680  0.00  0.00    -0.220 NA
BRANCH   2  14
ATOM      9  C   UNL     1      -0.017   1.391   0.010  0.00  0.00    +0.011 A 
ATOM     10  C   UNL     1       1.170   2.094   0.002  0.00  0.00    +0.020 A 
ATOM     11  C   UNL     1       2.378   1.418  -0.013  0.00  0.00    +0.041 A 
ATOM     12  C   UNL     1       2.403   0.034  -0.021  0.00  0.00    +0.020 A 
ATOM     13  C   UNL     1       1.222  -0.680  -0.014  0.00  0.00    +0.011 A 
ATOM     14  C   UNL     1       0.002  -0.004   0.002  0.00  0.00    +0.002 A 
ATOM     15 CL   UNL     1       3.868   2.309  -0.022  0.00  0.00    -0.084 Cl
ENDBRANCH   2  14
BRANCH   3  16
ATOM     16  C   UNL     1      -0.269  -2.519  -1.419  0.00  0.00    +0.107 C 
ATOM     17  N   UNL     1       0.611  -2.942  -1.999  0.00  0.00    -0.191 NA
ENDBRANCH   3  16
ENDBRANCH   1   7
BRANCH   1  18
ATOM     18  C   UNL     1      -6.150  -1.552   1.334  0.00  0.00    +0.173 C 
BRANCH  18  19
ATOM     19  C   UNL     1      -7.394  -1.108   2.060  0.00  0.00    +0.228 C 
ATOM     20  O   UNL     1      -7.392  -0.070   2.687  0.00  0.00    -0.275 OA
ATOM     21  N   UNL     1      -8.508  -1.865   2.013  0.00  0.00    -0.278 N 
ATOM     22  H   UNL     1      -8.509  -2.696   1.512  0.00  0.00    +0.155 HD
BRANCH  21  23
ATOM     23  C   UNL     1      -9.653  -1.456   2.682  0.00  0.00    +0.090 A 
ATOM     24  C   UNL     1     -10.876  -2.103   2.748  0.00  0.00    +0.084 A 
ATOM     25  C   UNL     1     -11.925  -1.462   3.521  0.00  0.00    -0.018 A 
ATOM     26  C   UNL     1     -11.559  -0.290   4.085  0.00  0.00    -0.004 A 
ATOM     27  S   UNL     1      -9.872  -0.069   3.601  0.00  0.00    -0.077 S 
ATOM     28  C   UNL     1     -12.409   0.604   4.934  0.00  0.00    +0.043 C 
ATOM     29  C   UNL     1     -13.875   0.184   4.759  0.00  0.00    +0.005 C 
ATOM     30  C   UNL     1     -13.976  -1.337   4.910  0.00  0.00    +0.005 C 
ATOM     31  C   UNL     1     -13.327  -2.024   3.706  0.00  0.00    +0.037 C 
BRANCH  24  32
ATOM     32  C   UNL     1     -11.097  -3.351   2.083  0.00  0.00    +0.102 C 
ATOM     33  N   UNL     1     -11.273  -4.342   1.555  0.00  0.00    -0.191 NA
ENDBRANCH  24  32
ENDBRANCH  21  23
ENDBRANCH  18  19
ENDBRANCH   1  18
TORSDOF 7
