REMARK  Name = ZINC09012210
REMARK  8 active torsions:
REMARK  status: ('A' for Active; 'I' for Inactive)
REMARK    1  A    between atoms: C_1  and  C_2
REMARK    2  A    between atoms: C_3  and  C_39
REMARK    3  A    between atoms: C_5  and  N_11
REMARK    4  A    between atoms: C_6  and  C_7
REMARK    5  A    between atoms: C_7  and  O_9
REMARK    6  A    between atoms: O_9  and  C_10
REMARK    7  A    between atoms: C_26  and  C_32
REMARK    8  A    between atoms: C_32  and  C_34
REMARK                            x       y       z     vdW  Elec       q    Type
REMARK                         _______ _______ _______ _____ _____    ______ ____
ROOT
ATOM      1  N   UNL     1      -4.201   3.128   3.486  0.00  0.00    -0.203 N 
ATOM      2  C   UNL     1      -5.568   3.182   3.370  0.00  0.00    +0.233 C 
ATOM      3  O   UNL     1      -6.248   2.787   2.447  0.00  0.00    -0.274 OA
ATOM      4  C   UNL     1      -6.017   3.813   4.588  0.00  0.00    +0.113 C 
ATOM      5  C   UNL     1      -7.222   3.969   5.412  0.00  0.00    +0.100 C 
ATOM      6  C   UNL     1      -8.259   4.891   4.848  0.00  0.00    -0.021 A 
ATOM      7  C   UNL     1      -8.596   4.832   3.511  0.00  0.00    +0.006 A 
ATOM      8  C   UNL     1      -9.582   5.658   3.003  0.00  0.00    +0.000 A 
ATOM      9  C   UNL     1     -10.241   6.550   3.831  0.00  0.00    +0.001 A 
ATOM     10  C   UNL     1      -9.908   6.627   5.167  0.00  0.00    +0.008 A 
ATOM     11  C   UNL     1      -8.901   5.809   5.684  0.00  0.00    -0.019 A 
ATOM     12  C   UNL     1      -8.539   5.906   7.111  0.00  0.00    +0.022 C 
ATOM     13  C   UNL     1      -7.449   5.269   7.566  0.00  0.00    +0.054 C 
ATOM     14  C   UNL     1      -5.244   4.241   6.759  0.00  0.00    +0.141 C 
ATOM     15  C   UNL     1      -4.980   3.237   5.636  0.00  0.00    +0.116 C 
ATOM     16  C   UNL     1      -3.770   3.382   4.757  0.00  0.00    +0.233 C 
ATOM     17  O   UNL     1      -2.644   3.668   5.105  0.00  0.00    -0.274 OA
ATOM     18  N   UNL     1      -6.745   4.193   6.756  0.00  0.00    -0.384 NA
ATOM     19  H   UNL     1      -6.981   3.325   7.253  0.00  0.00    +0.127 HD
ENDROOT
BRANCH   1  24
ATOM     20  C   UNL     1      -1.530   0.300   0.242  0.00  0.00    +0.045 C 
ATOM     21  C   UNL     1      -2.040   1.589   0.832  0.00  0.00    -0.025 A 
ATOM     22  C   UNL     1      -1.677   2.783   0.328  0.00  0.00    -0.008 A 
ATOM     23  S   UNL     1      -2.535   3.945   1.370  0.00  0.00    -0.077 S 
ATOM     24  C   UNL     1      -3.349   2.840   2.426  0.00  0.00    +0.096 A 
ATOM     25  C   UNL     1      -2.939   1.596   1.961  0.00  0.00    +0.091 A 
ATOM     26  C   UNL     1      -0.760   3.068  -0.834  0.00  0.00    +0.052 C 
BRANCH  25  27
ATOM     27  C   UNL     1      -3.397   0.353   2.587  0.00  0.00    +0.342 C 
ATOM     28  O   UNL     1      -2.722  -0.181   3.446  0.00  0.00    -0.245 OA
BRANCH  27  29
ATOM     29  O   UNL     1      -4.568  -0.200   2.209  0.00  0.00    -0.464 OA
ATOM     30  C   UNL     1      -5.018  -1.364   2.952  0.00  0.00    +0.280 C 
ENDBRANCH  27  29
ENDBRANCH  25  27
ENDBRANCH   1  24
BRANCH  14  31
ATOM     31  C   UNL     1      -4.427   5.490   6.547  0.00  0.00    +0.189 C 
ATOM     32  O   UNL     1      -4.919   6.449   5.987  0.00  0.00    -0.290 OA
BRANCH  31  33
ATOM     33  C   UNL     1      -3.091   5.545   7.000  0.00  0.00    +0.056 A 
ATOM     34  C   UNL     1      -2.148   6.555   6.831  0.00  0.00    +0.019 A 
ATOM     35  C   UNL     1      -0.910   6.349   7.381  0.00  0.00    +0.008 A 
ATOM     36  C   UNL     1      -0.665   5.191   8.053  0.00  0.00    +0.046 A 
ATOM     37  S   UNL     1      -2.173   4.342   7.946  0.00  0.00    -0.094 S 
ENDBRANCH  31  33
ENDBRANCH  14  31
TORSDOF 5
