REMARK  Name = ZINC04086370
REMARK  4 active torsions:
REMARK  status: ('A' for Active; 'I' for Inactive)
REMARK    1  A    between atoms: C_4  and  N_20
REMARK    2  A    between atoms: C_6  and  C_7
REMARK    3  A    between atoms: C_10  and  C_12
REMARK    4  A    between atoms: C_12  and  N_14
REMARK                            x       y       z     vdW  Elec       q    Type
REMARK                         _______ _______ _______ _____ _____    ______ ____
ROOT
ATOM      1  C   UNL     1      -2.980   5.605   3.420  0.00  0.00    +0.136 A 
ATOM      2  C   UNL     1      -4.248   5.662   2.917  0.00  0.00    +0.050 A 
ATOM      3  C   UNL     1      -4.179   5.257   1.580  0.00  0.00    +0.052 A 
ATOM      4  C   UNL     1      -2.858   4.957   1.323  0.00  0.00    +0.157 A 
ATOM      5  O   UNL     1      -2.151   5.179   2.451  0.00  0.00    -0.453 OA
ENDROOT
BRANCH   1  11
ATOM      6  C   UNL     1      -3.545   6.385   5.716  0.00  0.00    +0.013 A 
ATOM      7  C   UNL     1      -3.169   6.709   7.003  0.00  0.00    +0.023 A 
ATOM      8  C   UNL     1      -1.843   6.606   7.387  0.00  0.00    +0.071 A 
ATOM      9  C   UNL     1      -0.885   6.179   6.482  0.00  0.00    +0.145 A 
ATOM     10  C   UNL     1      -1.249   5.846   5.194  0.00  0.00    +0.045 A 
ATOM     11  C   UNL     1      -2.585   5.953   4.800  0.00  0.00    +0.020 A 
ATOM     12 CL   UNL     1      -1.378   7.016   9.008  0.00  0.00    -0.081 Cl
BRANCH   9  13
ATOM     13  N   UNL     1       0.531   6.073   6.900  0.00  0.00    +0.058 N 
ATOM     14  O   UNL     1       1.374   5.698   6.105  0.00  0.00    -0.126 OA
ATOM     15  O   UNL     1       0.853   6.362   8.039  0.00  0.00    -0.126 OA
ENDBRANCH   9  13
ENDBRANCH   1  11
BRANCH   4  16
ATOM     16  C   UNL     1      -2.317   4.486   0.049  0.00  0.00    +0.118 C 
ATOM     17  S   UNL     1      -2.980   5.053  -1.425  0.00  0.00    -0.032 S 
BRANCH  16  18
ATOM     18  N   UNL     1      -1.296   3.606   0.034  0.00  0.00    -0.321 N 
ATOM     19  C   UNL     1      -0.741   3.124  -1.238  0.00  0.00    +0.106 C 
ATOM     20  C   UNL     1      -0.752   1.593  -1.232  0.00  0.00    +0.019 C 
ATOM     21  C   UNL     1      -0.013   1.086   0.008  0.00  0.00    +0.003 C 
ATOM     22  C   UNL     1      -0.729   1.579   1.268  0.00  0.00    +0.019 C 
ATOM     23  C   UNL     1      -0.717   3.111   1.290  0.00  0.00    +0.106 C 
ENDBRANCH  16  18
ENDBRANCH   4  16
TORSDOF 4
