REMARK  Name = ZINC36725953
REMARK  8 active torsions:
REMARK  status: ('A' for Active; 'I' for Inactive)
REMARK    1  A    between atoms: C_1  and  C_2
REMARK    2  A    between atoms: C_2  and  C_4
REMARK    3  A    between atoms: C_2  and  N_18
REMARK    4  A    between atoms: C_9  and  C_12
REMARK    5  A    between atoms: C_19  and  C_21
REMARK    6  A    between atoms: C_22  and  C_23
REMARK    7  A    between atoms: C_26  and  O_29
REMARK    8  A    between atoms: O_29  and  C_30
REMARK                            x       y       z     vdW  Elec       q    Type
REMARK                         _______ _______ _______ _____ _____    ______ ____
ROOT
ATOM      1  C   UNL     1      -0.019   1.526   0.010  0.00  0.00    +0.038 C 
ATOM      2  C   UNL     1       0.002  -0.004   0.002  0.00  0.00    +0.156 C 
ENDROOT
BRANCH   2   3
ATOM      3  C   UNL     1       0.707  -0.490  -1.238  0.00  0.00    +0.236 C 
ATOM      4  O   UNL     1       1.704  -1.174  -1.140  0.00  0.00    -0.274 OA
ATOM      5  N   UNL     1       0.231  -0.164  -2.456  0.00  0.00    -0.296 N 
ATOM      6  C   UNL     1       0.893  -0.628  -3.687  0.00  0.00    +0.113 C 
ATOM      7  C   UNL     1      -0.095  -1.515  -4.449  0.00  0.00    +0.054 C 
ATOM      8  C   UNL     1      -1.448  -0.870  -4.495  0.00  0.00    -0.041 C 
ATOM      9  C   UNL     1      -1.842   0.084  -3.686  0.00  0.00    -0.004 C 
ATOM     10  C   UNL     1      -0.974   0.663  -2.609  0.00  0.00    +0.135 C 
BRANCH   8  11
ATOM     11  C   UNL     1      -2.401  -1.340  -5.522  0.00  0.00    -0.022 A 
ATOM     12  C   UNL     1      -2.893  -2.645  -5.477  0.00  0.00    +0.008 A 
ATOM     13  C   UNL     1      -3.783  -3.077  -6.439  0.00  0.00    +0.001 A 
ATOM     14  C   UNL     1      -4.188  -2.220  -7.446  0.00  0.00    +0.000 A 
ATOM     15  C   UNL     1      -3.705  -0.925  -7.497  0.00  0.00    +0.001 A 
ATOM     16  C   UNL     1      -2.818  -0.478  -6.538  0.00  0.00    +0.008 A 
ENDBRANCH   8  11
ENDBRANCH   2   3
BRANCH   2  17
ATOM     17  N   UNL     1       0.711  -0.489   1.189  0.00  0.00    -0.301 N 
ATOM     18  C   UNL     1       0.051  -0.633   2.355  0.00  0.00    +0.237 C 
ATOM     19  O   UNL     1      -1.133  -0.360   2.423  0.00  0.00    -0.271 OA
ATOM     20  H   UNL     1       1.654  -0.707   1.135  0.00  0.00    +0.150 HD
BRANCH  18  21
ATOM     21  C   UNL     1       0.759  -1.118   3.540  0.00  0.00    +0.068 C 
ATOM     22  C   UNL     1       0.098  -1.262   4.709  0.00  0.00    +0.013 C 
BRANCH  22  23
ATOM     23  C   UNL     1       0.809  -1.749   5.900  0.00  0.00    -0.025 A 
ATOM     24  C   UNL     1       2.172  -2.058   5.826  0.00  0.00    +0.011 A 
ATOM     25  C   UNL     1       2.833  -2.514   6.944  0.00  0.00    +0.046 A 
ATOM     26  C   UNL     1       2.150  -2.667   8.145  0.00  0.00    +0.120 A 
ATOM     27  C   UNL     1       0.796  -2.362   8.223  0.00  0.00    +0.046 A 
ATOM     28  C   UNL     1       0.127  -1.900   7.112  0.00  0.00    +0.011 A 
BRANCH  26  29
ATOM     29  O   UNL     1       2.806  -3.117   9.245  0.00  0.00    -0.495 OA
ATOM     30  C   UNL     1       2.044  -3.252  10.446  0.00  0.00    +0.277 C 
ENDBRANCH  26  29
ENDBRANCH  22  23
ENDBRANCH  18  21
ENDBRANCH   2  17
TORSDOF 6
