REMARK  Name = ZINC42963424
REMARK  8 active torsions:
REMARK  status: ('A' for Active; 'I' for Inactive)
REMARK    1  A    between atoms: C_1  and  C_2
REMARK    2  A    between atoms: C_5  and  O_9
REMARK    3  A    between atoms: O_9  and  C_10
REMARK    4  A    between atoms: C_10  and  C_12
REMARK    5  A    between atoms: C_10  and  C_14
REMARK    6  A    between atoms: C_12  and  N_13
REMARK    7  A    between atoms: C_17  and  O_20
REMARK    8  A    between atoms: O_20  and  C_21
REMARK                            x       y       z     vdW  Elec       q    Type
REMARK                         _______ _______ _______ _____ _____    ______ ____
ROOT
ATOM      1  C   UNL     1      -0.052  -4.772  -1.294  0.00  0.00    +0.186 C 
ENDROOT
BRANCH   1   2
ATOM      2  C   UNL     1       0.576  -6.140  -1.221  0.00  0.00    -0.009 A 
ATOM      3  C   UNL     1       0.391  -6.926  -0.099  0.00  0.00    +0.011 A 
ATOM      4  C   UNL     1       0.966  -8.180  -0.029  0.00  0.00    +0.046 A 
ATOM      5  C   UNL     1       1.729  -8.651  -1.087  0.00  0.00    +0.120 A 
ATOM      6  C   UNL     1       1.913  -7.861  -2.213  0.00  0.00    +0.046 A 
ATOM      7  C   UNL     1       1.331  -6.610  -2.280  0.00  0.00    +0.011 A 
BRANCH   5   8
ATOM      8  O   UNL     1       2.297  -9.884  -1.021  0.00  0.00    -0.495 OA
ATOM      9  C   UNL     1       3.069 -10.304  -2.148  0.00  0.00    +0.277 C 
ENDBRANCH   5   8
ENDBRANCH   1   2
BRANCH   1  10
ATOM     10  O   UNL     1       0.057  -4.130  -0.022  0.00  0.00    -0.485 OA
BRANCH  10  15
ATOM     11  C   UNL     1       0.547   1.482  -0.028  0.00  0.00    +0.044 C 
ATOM     12  C   UNL     1       0.416  -0.019  -0.026  0.00  0.00    -0.049 A 
ATOM     13  C   UNL     1       0.384  -0.711  -1.223  0.00  0.00    +0.007 A 
ATOM     14  C   UNL     1       0.264  -2.087  -1.224  0.00  0.00    +0.047 A 
ATOM     15  C   UNL     1       0.175  -2.776  -0.024  0.00  0.00    +0.135 A 
ATOM     16  C   UNL     1       0.208  -2.080   1.177  0.00  0.00    +0.060 A 
ATOM     17  C   UNL     1       0.334  -0.703   1.173  0.00  0.00    +0.022 A 
ATOM     18 BR   UNL     1       0.087  -3.014   2.816  0.00  0.00    -0.047 Br
ENDBRANCH  10  15
ENDBRANCH   1  10
BRANCH   1  19
ATOM     19  C   UNL     1      -1.529  -4.909  -1.672  0.00  0.00    -0.036 C 
BRANCH  19  20
ATOM     20  N   UNL     1      -2.112  -3.573  -1.860  0.00  0.00    +0.381 N 
ATOM     21  H   UNL     1      -3.085  -3.663  -2.109  0.00  0.00    -0.090 HD
ATOM     22  H   UNL     1      -2.031  -3.047  -1.002  0.00  0.00    -0.090 HD
ATOM     23  H   UNL     1      -1.619  -3.092  -2.597  0.00  0.00    -0.090 HD
ENDBRANCH  19  20
ENDBRANCH   1  19
TORSDOF 6
