REMARK  Name = ZINC09883443
REMARK  8 active torsions:
REMARK  status: ('A' for Active; 'I' for Inactive)
REMARK    1  A    between atoms: C_3  and  C_8
REMARK    2  A    between atoms: C_9  and  C_10
REMARK    3  A    between atoms: C_10  and  O_12
REMARK    4  A    between atoms: O_12  and  C_13
REMARK    5  A    between atoms: C_13  and  C_14
REMARK    6  A    between atoms: N_16  and  C_17
REMARK    7  A    between atoms: C_21  and  S_23
REMARK    8  A    between atoms: S_23  and  N_26
REMARK                            x       y       z     vdW  Elec       q    Type
REMARK                         _______ _______ _______ _____ _____    ______ ____
ROOT
ATOM      1  C   UNL     1      -3.511  -6.385   0.166  0.00  0.00    +0.255 C 
ATOM      2  O   UNL     1      -2.398  -6.844   0.306  0.00  0.00    -0.272 OA
ATOM      3  N   UNL     1      -4.565  -7.209   0.005  0.00  0.00    -0.283 N 
ATOM      4  H   UNL     1      -5.464  -6.846  -0.031  0.00  0.00    +0.155 HD
ENDROOT
BRANCH   3   5
ATOM      5  C   UNL     1      -4.363  -8.589  -0.110  0.00  0.00    +0.035 A 
ATOM      6  C   UNL     1      -3.222  -9.076  -0.734  0.00  0.00    +0.023 A 
ATOM      7  C   UNL     1      -3.023 -10.438  -0.841  0.00  0.00    +0.004 A 
ATOM      8  C   UNL     1      -3.963 -11.318  -0.337  0.00  0.00    +0.028 A 
ATOM      9  C   UNL     1      -5.103 -10.836   0.280  0.00  0.00    +0.107 A 
ATOM     10  C   UNL     1      -5.306  -9.475   0.395  0.00  0.00    +0.051 A 
BRANCH   9  11
ATOM     11  S   UNL     1      -6.299 -11.961   0.920  0.00  0.00    +0.056 S 
ATOM     12  O   UNL     1      -5.615 -13.181   1.172  0.00  0.00    -0.153 OA
ATOM     13  O   UNL     1      -7.011 -11.264   1.933  0.00  0.00    -0.153 OA
BRANCH  11  14
ATOM     14  N   UNL     1      -7.382 -12.268  -0.294  0.00  0.00    -0.204 NA
ATOM     15  H   UNL     1      -7.272 -11.845  -1.160  0.00  0.00    +0.144 HD
ATOM     16  H   UNL     1      -8.126 -12.871  -0.140  0.00  0.00    +0.144 HD
ENDBRANCH  11  14
ENDBRANCH   9  11
ENDBRANCH   3   5
BRANCH   1  17
ATOM     17  C   UNL     1      -3.717  -4.892   0.170  0.00  0.00    +0.328 C 
BRANCH  17  18
ATOM     18  O   UNL     1      -2.459  -4.239   0.355  0.00  0.00    -0.452 OA
BRANCH  18  19
ATOM     19  C   UNL     1      -2.468  -2.890   0.383  0.00  0.00    +0.332 C 
ATOM     20  O   UNL     1      -3.515  -2.286   0.254  0.00  0.00    -0.246 OA
BRANCH  19  22
ATOM     21  C   UNL     1      -1.226  -0.806   0.596  0.00  0.00    +0.015 C 
ATOM     22  C   UNL     1      -1.217  -2.155   0.568  0.00  0.00    +0.092 C 
BRANCH  21  25
ATOM     23  C   UNL     1       1.211   2.019   0.987  0.00  0.00    +0.002 A 
ATOM     24  C   UNL     1       0.028   1.332   0.812  0.00  0.00    +0.008 A 
ATOM     25  C   UNL     1       0.033  -0.066   0.782  0.00  0.00    -0.024 A 
ATOM     26  C   UNL     1       1.239  -0.757   0.930  0.00  0.00    +0.023 A 
ATOM     27  C   UNL     1       2.415  -0.056   1.104  0.00  0.00    +0.018 A 
ATOM     28  C   UNL     1       2.401   1.329   1.133  0.00  0.00    +0.015 A 
ATOM     29 BR   UNL     1       4.048  -0.987   1.304  0.00  0.00    -0.050 Br
ENDBRANCH  21  25
ENDBRANCH  19  22
ENDBRANCH  18  19
ENDBRANCH  17  18
ENDBRANCH   1  17
TORSDOF 8
