REMARK  Name = ZINC67613318
REMARK  9 active torsions:
REMARK  status: ('A' for Active; 'I' for Inactive)
REMARK    1  A    between atoms: C_1  and  C_2
REMARK    2  A    between atoms: C_5  and  N_9
REMARK    3  A    between atoms: C_6  and  C_8
REMARK    4  A    between atoms: N_12  and  C_13
REMARK    5  A    between atoms: C_13  and  C_14
REMARK    6  A    between atoms: C_14  and  N_15
REMARK    7  A    between atoms: C_18  and  N_23
REMARK    8  A    between atoms: C_20  and  C_22
REMARK    9  A    between atoms: C_27  and  C_28
REMARK                            x       y       z     vdW  Elec       q    Type
REMARK                         _______ _______ _______ _____ _____    ______ ____
ROOT
ATOM      1  C   UNL     1      -0.311  -8.413  -2.175  0.00  0.00    +0.121 C 
ENDROOT
BRANCH   1   2
ATOM      2  N   UNL     1      -0.418  -9.140  -3.443  0.00  0.00    -0.327 N 
ATOM      3  C   UNL     1      -0.504 -10.523  -3.443  0.00  0.00    +0.124 A 
ATOM      4  C   UNL     1      -0.496 -11.233  -2.244  0.00  0.00    +0.090 A 
ATOM      5  C   UNL     1      -0.585 -12.618  -2.298  0.00  0.00    +0.144 A 
ATOM      6  N   UNL     1      -0.675 -13.214  -3.484  0.00  0.00    -0.215 NA
ATOM      7  C   UNL     1      -0.680 -12.509  -4.597  0.00  0.00    +0.130 A 
ATOM      8  N   UNL     1      -0.602 -11.194  -4.588  0.00  0.00    -0.218 NA
ATOM      9  C   UNL     1      -0.783 -13.228  -5.917  0.00  0.00    +0.088 C 
ATOM     10  H   UNL     1      -0.429  -8.653  -4.282  0.00  0.00    +0.148 HD
BRANCH   5  11
ATOM     11  N   UNL     1      -0.580 -13.374  -1.124  0.00  0.00    -0.288 N 
ATOM     12  C   UNL     1      -0.499 -12.890   0.158  0.00  0.00    +0.114 A 
ATOM     13  C   UNL     1      -0.527 -13.957   0.979  0.00  0.00    +0.131 A 
ATOM     14  N   UNL     1      -0.623 -15.063   0.226  0.00  0.00    -0.241 NA
ATOM     15  C   UNL     1      -0.661 -14.728  -1.034  0.00  0.00    +0.112 A 
ATOM     16  C   UNL     1      -0.772 -15.682  -2.195  0.00  0.00    +0.086 C 
ENDBRANCH   5  11
ENDBRANCH   1   2
BRANCH   1  17
ATOM     17  C   UNL     1      -0.231  -6.911  -2.454  0.00  0.00    +0.124 C 
BRANCH  17  21
ATOM     18  N   UNL     1       0.058  -4.170  -0.021  0.00  0.00    -0.269 N 
ATOM     19  C   UNL     1      -0.041  -4.839  -1.187  0.00  0.00    +0.304 C 
ATOM     20  O   UNL     1      -0.054  -4.229  -2.239  0.00  0.00    -0.253 OA
ATOM     21  N   UNL     1      -0.124  -6.184  -1.187  0.00  0.00    -0.298 N 
ATOM     22  H   UNL     1       0.135  -4.659   0.814  0.00  0.00    +0.156 HD
ATOM     23  H   UNL     1      -0.114  -6.671  -0.348  0.00  0.00    +0.150 HD
BRANCH  18  28
ATOM     24  C   UNL     1       0.025   1.503   0.006  0.00  0.00    +0.044 C 
ATOM     25  C   UNL     1       0.034  -0.004  -0.001  0.00  0.00    -0.050 A 
ATOM     26  C   UNL     1       0.631  -0.685  -1.046  0.00  0.00    +0.005 A 
ATOM     27  C   UNL     1       0.641  -2.066  -1.055  0.00  0.00    +0.024 A 
ATOM     28  C   UNL     1       0.050  -2.771  -0.014  0.00  0.00    +0.038 A 
ATOM     29  C   UNL     1      -0.549  -2.083   1.033  0.00  0.00    -0.029 A 
ATOM     30  C   UNL     1      -0.551  -0.702   1.039  0.00  0.00    +0.008 A 
ATOM     31  C   UNL     1      -1.192  -2.844   2.164  0.00  0.00    +0.045 C 
ENDBRANCH  18  28
ENDBRANCH  17  21
ENDBRANCH   1  17
TORSDOF 5
