REMARK  Name = ZINC14699509
REMARK  12 active torsions:
REMARK  status: ('A' for Active; 'I' for Inactive)
REMARK    1  A    between atoms: C_1  and  C_2
REMARK    2  A    between atoms: C_2  and  C_3
REMARK    3  A    between atoms: C_3  and  C_4
REMARK    4  A    between atoms: C_4  and  N_5
REMARK    5  A    between atoms: C_6  and  N_37
REMARK    6  A    between atoms: C_7  and  N_14
REMARK    7  A    between atoms: N_14  and  C_15
REMARK    8  A    between atoms: C_15  and  C_16
REMARK    9  A    between atoms: C_21  and  O_22
REMARK   10  A    between atoms: O_22  and  C_23
REMARK   11  A    between atoms: C_24  and  C_26
REMARK   12  A    between atoms: C_26  and  C_27
REMARK                            x       y       z     vdW  Elec       q    Type
REMARK                         _______ _______ _______ _____ _____    ______ ____
ROOT
ATOM      1  N   UNL     1       1.210   3.320  -0.119  0.00  0.00    -0.260 N 
ATOM      2  C   UNL     1      -0.010   3.893  -0.048  0.00  0.00    +0.221 C 
ATOM      3  O   UNL     1      -0.973   3.230   0.278  0.00  0.00    -0.275 OA
ENDROOT
BRANCH   1   6
ATOM      4  N   UNL     1       1.178   0.011   1.476  0.00  0.00    -0.280 N 
ATOM      5  C   UNL     1       1.030   1.367   1.305  0.00  0.00    +0.127 A 
ATOM      6  C   UNL     1       1.351   1.932   0.087  0.00  0.00    +0.140 A 
ATOM      7  C   UNL     1       1.820   1.098  -0.945  0.00  0.00    +0.277 A 
ATOM      8  O   UNL     1       2.110   1.571  -2.031  0.00  0.00    -0.266 OA
ATOM      9  N   UNL     1       1.947  -0.225  -0.725  0.00  0.00    -0.273 N 
ATOM     10  H   UNL     1       2.280  -0.818  -1.458  0.00  0.00    +0.173 HD
ATOM     11  C   UNL     1       1.630  -0.757   0.468  0.00  0.00    +0.331 A 
ATOM     12  O   UNL     1       1.754  -1.955   0.639  0.00  0.00    -0.246 OA
BRANCH   5  13
ATOM     13  N   UNL     1       0.564   2.151   2.333  0.00  0.00    -0.343 N 
ATOM     14  H   UNL     1       0.243   1.738   3.151  0.00  0.00    +0.144 HD
ATOM     15  H   UNL     1       0.554   3.117   2.241  0.00  0.00    +0.144 HD
ENDBRANCH   5  13
BRANCH   4  16
ATOM     16  C   UNL     1       0.841  -0.602   2.764  0.00  0.00    +0.128 C 
BRANCH  16  17
ATOM     17  C   UNL     1      -0.631  -1.020   2.760  0.00  0.00    +0.021 C 
BRANCH  17  19
ATOM     18  C   UNL     1      -2.455  -2.077   4.101  0.00  0.00    +0.004 C 
ATOM     19  C   UNL     1      -0.983  -1.659   4.105  0.00  0.00    -0.002 C 
ENDBRANCH  17  19
ENDBRANCH  16  17
ENDBRANCH   4  16
ENDBRANCH   1   6
BRANCH   1  20
ATOM     20  C   UNL     1       2.388   4.141  -0.412  0.00  0.00    +0.152 C 
BRANCH  20  21
ATOM     21  C   UNL     1       2.978   4.649   0.878  0.00  0.00    +0.012 A 
ATOM     22  C   UNL     1       2.762   5.956   1.270  0.00  0.00    +0.009 A 
ATOM     23  C   UNL     1       3.299   6.422   2.455  0.00  0.00    +0.001 A 
ATOM     24  C   UNL     1       4.064   5.584   3.247  0.00  0.00    +0.004 A 
ATOM     25  C   UNL     1       4.287   4.278   2.857  0.00  0.00    +0.046 A 
ATOM     26  C   UNL     1       3.745   3.807   1.670  0.00  0.00    +0.125 A 
BRANCH  26  27
ATOM     27  O   UNL     1       3.964   2.522   1.284  0.00  0.00    -0.495 OA
ATOM     28  C   UNL     1       4.670   1.682   2.199  0.00  0.00    +0.277 C 
ENDBRANCH  26  27
ENDBRANCH  20  21
ENDBRANCH   1  20
BRANCH   2  29
ATOM     29  C   UNL     1      -0.177   5.355  -0.373  0.00  0.00    +0.103 C 
BRANCH  29  30
ATOM     30  C   UNL     1      -1.639   5.758  -0.172  0.00  0.00    -0.020 C 
ATOM     31  C   UNL     1      -2.530   4.920  -1.091  0.00  0.00    +0.011 C 
ATOM     32  C   UNL     1      -3.992   5.324  -0.890  0.00  0.00    -0.010 C 
ATOM     33  C   UNL     1      -4.163   6.806  -1.228  0.00  0.00    +0.007 C 
ATOM     34  C   UNL     1      -3.272   7.644  -0.309  0.00  0.00    -0.010 C 
ATOM     35  C   UNL     1      -1.810   7.241  -0.510  0.00  0.00    +0.011 C 
ATOM     36  C   UNL     1      -3.672   7.404   1.148  0.00  0.00    +0.007 C 
ATOM     37  C   UNL     1      -3.501   5.921   1.486  0.00  0.00    -0.010 C 
ATOM     38  C   UNL     1      -4.392   5.083   0.567  0.00  0.00    +0.007 C 
ATOM     39  C   UNL     1      -2.039   5.518   1.285  0.00  0.00    +0.011 C 
ENDBRANCH  29  30
ENDBRANCH   2  29
TORSDOF 10
