REMARK  Name = ZINC38701214
REMARK  12 active torsions:
REMARK  status: ('A' for Active; 'I' for Inactive)
REMARK    1  A    between atoms: C_1  and  C_2
REMARK    2  A    between atoms: C_2  and  C_3
REMARK    3  A    between atoms: C_9  and  C_38
REMARK    4  A    between atoms: C_10  and  C_12
REMARK    5  A    between atoms: C_12  and  O_14
REMARK    6  A    between atoms: O_14  and  C_15
REMARK    7  A    between atoms: C_22  and  N_37
REMARK    8  A    between atoms: C_23  and  C_35
REMARK    9  A    between atoms: C_24  and  C_26
REMARK   10  A    between atoms: C_30  and  O_32
REMARK   11  A    between atoms: O_32  and  C_33
REMARK   12  A    between atoms: C_33  and  C_34
REMARK                            x       y       z     vdW  Elec       q    Type
REMARK                         _______ _______ _______ _____ _____    ______ ____
ROOT
ATOM      1  C   UNL     1       2.599  -3.186   8.730  0.00  0.00    +0.136 A 
ATOM      2  C   UNL     1       1.361  -3.262   9.353  0.00  0.00    +0.047 A 
ATOM      3  C   UNL     1       1.273  -3.693  10.662  0.00  0.00    +0.012 A 
ATOM      4  C   UNL     1       2.414  -4.051  11.357  0.00  0.00    +0.008 A 
ATOM      5  C   UNL     1       3.653  -3.977  10.739  0.00  0.00    +0.138 A 
ATOM      6  C   UNL     1       3.743  -3.548   9.421  0.00  0.00    +0.093 A 
ATOM      7  O   UNL     1       4.783  -4.323  11.404  0.00  0.00    -0.441 OA
ATOM      8  C   UNL     1       4.784  -4.370  12.746  0.00  0.00    +0.199 C 
ATOM      9  C   UNL     1       3.637  -4.462  13.461  0.00  0.00    +0.098 C 
ATOM     10  C   UNL     1       2.297  -4.519  12.783  0.00  0.00    +0.098 C 
ENDROOT
BRANCH  10  11
ATOM     11  C   UNL     1       1.787  -5.937  12.803  0.00  0.00    -0.031 A 
ATOM     12  C   UNL     1       2.510  -6.939  12.183  0.00  0.00    +0.005 A 
ATOM     13  C   UNL     1       2.045  -8.241  12.199  0.00  0.00    +0.004 A 
ATOM     14  C   UNL     1       0.856  -8.543  12.834  0.00  0.00    +0.045 A 
ATOM     15  C   UNL     1       0.129  -7.539  13.457  0.00  0.00    +0.121 A 
ATOM     16  C   UNL     1       0.601  -6.234  13.444  0.00  0.00    +0.050 A 
BRANCH  15  17
ATOM     17  O   UNL     1      -1.041  -7.834  14.082  0.00  0.00    -0.492 OA
BRANCH  17  18
ATOM     18  C   UNL     1      -1.463  -9.199  14.060  0.00  0.00    +0.225 C 
ATOM     19  C   UNL     1      -2.790  -9.335  14.809  0.00  0.00    +0.048 C 
ENDBRANCH  17  18
ENDBRANCH  15  17
ENDBRANCH  10  11
BRANCH   8  20
ATOM     20  N   UNL     1       5.982  -4.324  13.414  0.00  0.00    -0.328 N 
ATOM     21  H   UNL     1       6.812  -4.258  12.916  0.00  0.00    +0.145 HD
ATOM     22  H   UNL     1       6.000  -4.356  14.383  0.00  0.00    +0.145 HD
ENDBRANCH   8  20
BRANCH   9  23
ATOM     23  C   UNL     1       3.703  -4.507  14.890  0.00  0.00    +0.101 C 
ATOM     24  N   UNL     1       3.756  -4.542  16.025  0.00  0.00    -0.191 NA
ENDBRANCH   9  23
BRANCH   1  25
ATOM     25  O   UNL     1       2.688  -2.762   7.441  0.00  0.00    -0.420 OA
BRANCH  25  26
ATOM     26  C   UNL     1       2.872  -3.691   6.481  0.00  0.00    +0.380 C 
ATOM     27  O   UNL     1       3.044  -4.855   6.786  0.00  0.00    -0.241 OA
BRANCH  26  35
ATOM     28  C   UNL     1       2.929  -2.553   0.549  0.00  0.00    -0.047 A 
ATOM     29  C   UNL     1       2.705  -1.256   0.991  0.00  0.00    +0.007 A 
ATOM     30  C   UNL     1       2.608  -0.976   2.337  0.00  0.00    +0.047 A 
ATOM     31  C   UNL     1       2.733  -2.002   3.267  0.00  0.00    +0.136 A 
ATOM     32  C   UNL     1       2.958  -3.315   2.814  0.00  0.00    +0.024 A 
ATOM     33  C   UNL     1       3.050  -3.578   1.445  0.00  0.00    +0.015 A 
ATOM     34  C   UNL     1       3.041  -4.141   4.018  0.00  0.00    +0.010 A 
ATOM     35  C   UNL     1       2.866  -3.296   5.067  0.00  0.00    +0.216 A 
ATOM     36  O   UNL     1       2.685  -2.038   4.613  0.00  0.00    -0.448 OA
ATOM     37  C   UNL     1       3.274  -5.629   4.082  0.00  0.00    +0.048 C 
BRANCH  28  39
ATOM     38  C   UNL     1       1.642  -3.147  -1.485  0.00  0.00    +0.009 C 
ATOM     39  C   UNL     1       3.032  -2.833  -0.927  0.00  0.00    +0.032 C 
ENDBRANCH  28  39
ENDBRANCH  26  35
ENDBRANCH  25  26
ENDBRANCH   1  25
TORSDOF 9
