REMARK  Name = ZINC35190618
REMARK  8 active torsions:
REMARK  status: ('A' for Active; 'I' for Inactive)
REMARK    1  A    between atoms: C_3  and  C_11
REMARK    2  A    between atoms: C_6  and  N_7
REMARK    3  A    between atoms: N_13  and  C_14
REMARK    4  A    between atoms: C_14  and  C_15
REMARK    5  A    between atoms: C_15  and  C_16
REMARK    6  A    between atoms: C_16  and  C_17
REMARK    7  A    between atoms: C_17  and  N_18
REMARK    8  A    between atoms: N_18  and  C_19
REMARK                            x       y       z     vdW  Elec       q    Type
REMARK                         _______ _______ _______ _____ _____    ______ ____
ROOT
ATOM      1  C   UNL     1       4.603   5.758  -0.013  0.00  0.00    +0.020 C 
ENDROOT
BRANCH   1   2
ATOM      2  C   UNL     1       4.900   4.258  -0.023  0.00  0.00    +0.104 C 
BRANCH   2   5
ATOM      3  C   UNL     1       3.656   2.163  -0.022  0.00  0.00    +0.245 C 
ATOM      4  O   UNL     1       4.715   1.567  -0.035  0.00  0.00    -0.270 OA
ATOM      5  N   UNL     1       3.640   3.510  -0.015  0.00  0.00    -0.311 N 
ATOM      6  H   UNL     1       2.794   3.985  -0.004  0.00  0.00    +0.149 HD
BRANCH   3   9
ATOM      7  C   UNL     1      -0.017   1.380   0.010  0.00  0.00    +0.033 A 
ATOM      8  C   UNL     1       1.166   2.089   0.002  0.00  0.00    +0.017 A 
ATOM      9  C   UNL     1       2.385   1.409  -0.013  0.00  0.00    +0.055 A 
ATOM     10  C   UNL     1       2.397   0.012  -0.021  0.00  0.00    +0.055 A 
ATOM     11  C   UNL     1       1.205  -0.686  -0.013  0.00  0.00    +0.053 A 
ATOM     12  C   UNL     1       0.002  -0.004   0.002  0.00  0.00    +0.128 A 
ATOM     13 CL   UNL     1       3.907  -0.845  -0.040  0.00  0.00    -0.083 Cl
BRANCH  12  14
ATOM     14  N   UNL     1      -1.272  -0.758   0.010  0.00  0.00    +0.056 N 
ATOM     15  O   UNL     1      -2.325  -0.165   0.023  0.00  0.00    -0.126 OA
ATOM     16  O   UNL     1      -1.259  -1.967   0.004  0.00  0.00    -0.126 OA
ENDBRANCH  12  14
ENDBRANCH   3   9
ENDBRANCH   2   5
ENDBRANCH   1   2
BRANCH   1  17
ATOM     17  C   UNL     1       5.919   6.539  -0.022  0.00  0.00    +0.020 C 
BRANCH  17  18
ATOM     18  C   UNL     1       5.622   8.040  -0.011  0.00  0.00    +0.101 C 
BRANCH  18  19
ATOM     19  N   UNL     1       6.882   8.787  -0.020  0.00  0.00    -0.343 N 
ATOM     20  H   UNL     1       7.727   8.312  -0.030  0.00  0.00    +0.146 HD
BRANCH  19  21
ATOM     21  C   UNL     1       6.865  10.174  -0.013  0.00  0.00    +0.038 A 
ATOM     22  C   UNL     1       5.670  10.875   0.008  0.00  0.00    +0.041 A 
ATOM     23  C   UNL     1       5.686  12.262   0.015  0.00  0.00    +0.085 A 
ATOM     24  N   UNL     1       6.809  12.942   0.003  0.00  0.00    -0.361 N 
ATOM     25  C   UNL     1       8.000  12.331  -0.018  0.00  0.00    +0.050 A 
ATOM     26  C   UNL     1       8.069  10.918  -0.021  0.00  0.00    +0.019 A 
ATOM     27  C   UNL     1       9.319  10.283  -0.037  0.00  0.00    +0.013 A 
ATOM     28  C   UNL     1      10.456  11.034  -0.045  0.00  0.00    +0.021 A 
ATOM     29  C   UNL     1      10.392  12.426  -0.036  0.00  0.00    +0.043 A 
ATOM     30  C   UNL     1       9.193  13.074  -0.032  0.00  0.00    +0.046 A 
ATOM     31 CL   UNL     1      11.862  13.349  -0.045  0.00  0.00    -0.083 Cl
ATOM     32  H   UNL     1       6.776  13.911   0.008  0.00  0.00    +0.165 HD
ENDBRANCH  19  21
ENDBRANCH  18  19
ENDBRANCH  17  18
ENDBRANCH   1  17
TORSDOF 8
