REMARK  Name = ZINC59363755
REMARK  10 active torsions:
REMARK  status: ('A' for Active; 'I' for Inactive)
REMARK    1  A    between atoms: C_1  and  C_2
REMARK    2  A    between atoms: C_3  and  O_27
REMARK    3  A    between atoms: C_12  and  C_13
REMARK    4  A    between atoms: C_13  and  N_14
REMARK    5  A    between atoms: N_14  and  C_15
REMARK    6  A    between atoms: C_18  and  N_22
REMARK    7  A    between atoms: N_22  and  C_23
REMARK    8  A    between atoms: N_22  and  C_24
REMARK    9  A    between atoms: C_24  and  C_25
REMARK   10  A    between atoms: C_24  and  C_26
REMARK                            x       y       z     vdW  Elec       q    Type
REMARK                         _______ _______ _______ _____ _____    ______ ____
ROOT
ATOM      1  C   UNL     1       0.071  -4.351   2.466  0.00  0.00    +0.137 C 
ENDROOT
BRANCH   1  13
ATOM      2  C   UNL     1      -0.018   1.503   0.010  0.00  0.00    +0.051 C 
ATOM      3  C   UNL     1       0.002  -0.004   0.002  0.00  0.00    +0.034 A 
ATOM      4  C   UNL     1       0.006  -0.693  -1.200  0.00  0.00    +0.123 A 
ATOM      5  C   UNL     1       0.024  -2.086  -1.219  0.00  0.00    +0.046 A 
ATOM      6  C   UNL     1       0.039  -2.792  -0.051  0.00  0.00    +0.015 A 
ATOM      7  C   UNL     1       0.036  -2.113   1.173  0.00  0.00    +0.023 A 
ATOM      8  C   UNL     1       0.023  -0.706   1.198  0.00  0.00    +0.146 A 
ATOM      9  O   UNL     1       0.025  -0.054   2.380  0.00  0.00    -0.422 OA
ATOM     10  C   UNL     1       0.045  -0.719   3.546  0.00  0.00    +0.338 A 
ATOM     11  O   UNL     1       0.046  -0.089   4.588  0.00  0.00    -0.245 OA
ATOM     12  C   UNL     1       0.065  -2.128   3.595  0.00  0.00    +0.097 A 
ATOM     13  C   UNL     1       0.051  -2.845   2.441  0.00  0.00    -0.013 A 
BRANCH   4  14
ATOM     14  O   UNL     1      -0.009  -0.004  -2.370  0.00  0.00    -0.506 OA
ATOM     15  H   UNL     1       0.870   0.207  -2.713  0.00  0.00    +0.292 HD
ENDBRANCH   4  14
ENDBRANCH   1  13
BRANCH   1  16
ATOM     16  N   UNL     1      -1.299  -4.859   2.359  0.00  0.00    -0.340 N 
ATOM     17  H   UNL     1      -2.042  -4.240   2.288  0.00  0.00    +0.146 HD
BRANCH  16  18
ATOM     18  C   UNL     1      -1.536  -6.239   2.361  0.00  0.00    +0.030 A 
ATOM     19  C   UNL     1      -0.473  -7.126   2.468  0.00  0.00    +0.025 A 
ATOM     20  C   UNL     1      -0.706  -8.488   2.469  0.00  0.00    +0.028 A 
ATOM     21  C   UNL     1      -2.003  -8.970   2.362  0.00  0.00    +0.065 A 
ATOM     22  C   UNL     1      -3.068  -8.083   2.255  0.00  0.00    +0.146 A 
ATOM     23  C   UNL     1      -2.835  -6.720   2.260  0.00  0.00    +0.063 A 
ATOM     24  F   UNL     1      -4.330  -8.553   2.151  0.00  0.00    -0.203 F 
BRANCH  21  25
ATOM     25  N   UNL     1      -2.239 -10.352   2.363  0.00  0.00    -0.328 N 
ATOM     26  C   UNL     1      -2.473 -11.055   3.627  0.00  0.00    +0.129 C 
BRANCH  25  27
ATOM     27  C   UNL     1      -2.251 -11.093   1.099  0.00  0.00    +0.067 C 
ATOM     28  C   UNL     1      -1.165 -12.171   1.130  0.00  0.00    +0.027 C 
ATOM     29  C   UNL     1      -3.618 -11.752   0.908  0.00  0.00    +0.027 C 
ENDBRANCH  25  27
ENDBRANCH  21  25
ENDBRANCH  16  18
ENDBRANCH   1  16
TORSDOF 6
