REMARK  Name = ZINC11336064
REMARK  7 active torsions:
REMARK  status: ('A' for Active; 'I' for Inactive)
REMARK    1  A    between atoms: C_1  and  C_2
REMARK    2  A    between atoms: C_2  and  O_3
REMARK    3  A    between atoms: O_3  and  C_4
REMARK    4  A    between atoms: C_5  and  O_23
REMARK    5  A    between atoms: C_7  and  C_11
REMARK    6  A    between atoms: C_19  and  O_20
REMARK    7  A    between atoms: O_23  and  C_24
REMARK                            x       y       z     vdW  Elec       q    Type
REMARK                         _______ _______ _______ _____ _____    ______ ____
ROOT
ATOM      1  C   UNL     1       1.103  -6.010  -1.845  0.00  0.00    +0.015 C 
ATOM      2  C   UNL     1       0.470  -6.617  -2.875  0.00  0.00    +0.005 C 
ATOM      3  C   UNL     1      -0.303  -5.937  -3.981  0.00  0.00    +0.078 C 
ATOM      4  C   UNL     1      -0.809  -7.039  -4.878  0.00  0.00    +0.009 A 
ATOM      5  C   UNL     1      -0.384  -8.256  -4.347  0.00  0.00    +0.029 A 
ATOM      6  C   UNL     1      -0.731  -9.446  -4.994  0.00  0.00    +0.012 A 
ATOM      7  C   UNL     1      -1.487  -9.411  -6.147  0.00  0.00    +0.004 A 
ATOM      8  C   UNL     1      -1.906  -8.202  -6.671  0.00  0.00    +0.046 A 
ATOM      9  C   UNL     1      -1.567  -7.013  -6.036  0.00  0.00    +0.121 A 
ATOM     10  C   UNL     1       0.401  -8.011  -3.119  0.00  0.00    +0.190 C 
ATOM     11  O   UNL     1       0.909  -8.872  -2.425  0.00  0.00    -0.287 OA
ENDROOT
BRANCH   1  15
ATOM     12  C   UNL     1       0.692  -1.825  -1.274  0.00  0.00    +0.176 A 
ATOM     13  C   UNL     1       1.921  -2.441  -1.035  0.00  0.00    +0.163 A 
ATOM     14  C   UNL     1       2.057  -3.802  -1.214  0.00  0.00    +0.057 A 
ATOM     15  C   UNL     1       0.963  -4.562  -1.647  0.00  0.00    -0.020 A 
ATOM     16  C   UNL     1      -0.265  -3.936  -1.891  0.00  0.00    +0.027 A 
ATOM     17  C   UNL     1      -0.394  -2.576  -1.704  0.00  0.00    +0.064 A 
ATOM     18 BR   UNL     1      -2.054  -1.732  -2.033  0.00  0.00    -0.046 Br
BRANCH  13  19
ATOM     19  O   UNL     1       2.983  -1.700  -0.620  0.00  0.00    -0.491 OA
ATOM     20  C   UNL     1       4.210  -2.396  -0.394  0.00  0.00    +0.277 C 
ENDBRANCH  13  19
BRANCH  12  21
ATOM     21  O   UNL     1       0.559  -0.485  -1.092  0.00  0.00    -0.487 OA
BRANCH  21  23
ATOM     22  C   UNL     1       0.060   1.483   0.219  0.00  0.00    +0.048 C 
ATOM     23  C   UNL     1       0.154  -0.044   0.206  0.00  0.00    +0.226 C 
ENDBRANCH  21  23
ENDBRANCH  12  21
ENDBRANCH   1  15
BRANCH   9  24
ATOM     24  O   UNL     1      -1.980  -5.826  -6.552  0.00  0.00    -0.506 OA
ATOM     25  H   UNL     1      -1.361  -5.435  -7.183  0.00  0.00    +0.292 HD
ENDBRANCH   9  24
TORSDOF 5
