REMARK  Name = ZINC36764394
REMARK  10 active torsions:
REMARK  status: ('A' for Active; 'I' for Inactive)
REMARK    1  A    between atoms: C_1  and  C_2
REMARK    2  A    between atoms: C_2  and  O_3
REMARK    3  A    between atoms: O_3  and  C_4
REMARK    4  A    between atoms: C_11  and  C_18
REMARK    5  A    between atoms: C_13  and  O_14
REMARK    6  A    between atoms: C_18  and  N_19
REMARK    7  A    between atoms: N_19  and  C_20
REMARK    8  A    between atoms: N_19  and  C_23
REMARK    9  A    between atoms: C_23  and  C_25
REMARK   10  A    between atoms: C_23  and  C_26
REMARK                            x       y       z     vdW  Elec       q    Type
REMARK                         _______ _______ _______ _____ _____    ______ ____
ROOT
ATOM      1  C   UNL     1      -1.033  -2.252   1.332  0.00  0.00    +0.405 C 
ATOM      2  O   UNL     1      -1.567  -3.189   0.761  0.00  0.00    -0.226 OA
ATOM      3  N   UNL     1      -0.165  -2.477   2.308  0.00  0.00    -0.251 N 
ATOM      4  C   UNL     1       0.242  -3.746   2.576  0.00  0.00    +0.040 A 
ATOM      5  C   UNL     1       0.856  -4.039   3.807  0.00  0.00    +0.024 A 
ATOM      6  C   UNL     1       1.267  -5.303   4.087  0.00  0.00    +0.013 A 
ATOM      7  C   UNL     1       1.079  -6.328   3.141  0.00  0.00    +0.019 A 
ATOM      8  C   UNL     1       1.498  -7.646   3.413  0.00  0.00    -0.047 A 
ATOM      9  C   UNL     1       1.290  -8.616   2.451  0.00  0.00    +0.090 A 
ATOM     10  C   UNL     1       0.680  -8.281   1.252  0.00  0.00    +0.285 A 
ATOM     11  O   UNL     1       0.284  -7.029   0.998  0.00  0.00    -0.425 OA
ATOM     12  C   UNL     1       0.463  -6.043   1.902  0.00  0.00    +0.141 A 
ATOM     13  C   UNL     1       0.043  -4.754   1.629  0.00  0.00    +0.070 A 
ATOM     14  H   UNL     1       0.180  -1.737   2.831  0.00  0.00    +0.158 HD
ENDROOT
BRANCH  10  15
ATOM     15  O   UNL     1       0.483  -9.236   0.323  0.00  0.00    -0.480 OA
ATOM     16  H   UNL     1       0.053  -8.918  -0.483  0.00  0.00    +0.295 HD
ENDBRANCH  10  15
BRANCH   1  17
ATOM     17  O   UNL     1      -1.327  -0.983   0.968  0.00  0.00    -0.450 OA
BRANCH  17  19
ATOM     18  C   UNL     1      -2.475   0.678  -0.359  0.00  0.00    +0.048 C 
ATOM     19  C   UNL     1      -2.271  -0.814  -0.091  0.00  0.00    +0.230 C 
ENDBRANCH  17  19
ENDBRANCH   1  17
BRANCH   8  20
ATOM     20  C   UNL     1       2.159  -7.990   4.723  0.00  0.00    -0.041 C 
BRANCH  20  21
ATOM     21  N   UNL     1       1.149  -8.496   5.663  0.00  0.00    +0.386 N 
ATOM     22  H   UNL     1       0.649  -9.263   5.239  0.00  0.00    -0.081 HD
BRANCH  21  23
ATOM     23  C   UNL     1       0.205  -7.420   5.993  0.00  0.00    -0.068 C 
ATOM     24  C   UNL     1      -1.191  -7.490   5.372  0.00  0.00    -0.017 C 
ATOM     25  C   UNL     1      -1.002  -7.781   6.862  0.00  0.00    -0.017 C 
ENDBRANCH  21  23
BRANCH  21  26
ATOM     26  C   UNL     1       1.811  -8.961   6.889  0.00  0.00    -0.068 C 
ATOM     27  C   UNL     1       2.738 -10.131   6.556  0.00  0.00    -0.013 C 
BRANCH  26  28
ATOM     28  C   UNL     1       2.630  -7.817   7.491  0.00  0.00    -0.025 C 
ATOM     29  C   UNL     1       4.153  -7.957   7.481  0.00  0.00    +0.002 C 
ATOM     30  C   UNL     1       3.381  -8.096   8.794  0.00  0.00    +0.002 C 
ENDBRANCH  26  28
ENDBRANCH  21  26
ENDBRANCH  20  21
ENDBRANCH   8  20
TORSDOF 8
