REMARK  Name = ZINC09004477
REMARK  8 active torsions:
REMARK  status: ('A' for Active; 'I' for Inactive)
REMARK    1  A    between atoms: C_1  and  S_2
REMARK    2  A    between atoms: S_2  and  C_3
REMARK    3  A    between atoms: C_5  and  C_33
REMARK    4  A    between atoms: C_7  and  N_9
REMARK    5  A    between atoms: N_9  and  C_10
REMARK    6  A    between atoms: C_14  and  O_16
REMARK    7  A    between atoms: O_16  and  C_17
REMARK    8  A    between atoms: C_17  and  C_19
REMARK                            x       y       z     vdW  Elec       q    Type
REMARK                         _______ _______ _______ _____ _____    ______ ____
ROOT
ATOM      1  C   UNL     1      -0.103   0.772   7.651  0.00  0.00    +0.036 A 
ATOM      2  C   UNL     1       0.289   2.102   7.569  0.00  0.00    +0.023 A 
ATOM      3  C   UNL     1      -0.346   2.958   6.690  0.00  0.00    +0.005 A 
ATOM      4  C   UNL     1      -1.369   2.492   5.886  0.00  0.00    +0.046 A 
ATOM      5  C   UNL     1      -1.770   1.166   5.968  0.00  0.00    +0.134 A 
ATOM      6  C   UNL     1      -1.135   0.304   6.849  0.00  0.00    +0.069 A 
ENDROOT
BRANCH   1   7
ATOM      7  N   UNL     1       0.540  -0.094   8.540  0.00  0.00    -0.299 N 
ATOM      8  H   UNL     1       0.675  -1.024   8.299  0.00  0.00    +0.154 HD
BRANCH   7  13
ATOM      9  C   UNL     1       1.330   2.129  11.230  0.00  0.00    +0.190 A 
ATOM     10  N   UNL     1       1.840   1.326  12.150  0.00  0.00    -0.222 NA
ATOM     11  C   UNL     1       1.948   0.016  11.929  0.00  0.00    +0.077 A 
ATOM     12  C   UNL     1       1.515  -0.503  10.710  0.00  0.00    +0.072 A 
ATOM     13  C   UNL     1       0.984   0.376   9.767  0.00  0.00    +0.128 A 
ATOM     14  N   UNL     1       0.913   1.672  10.058  0.00  0.00    -0.207 NA
BRANCH  11  15
ATOM     15  C   UNL     1       2.521  -0.878  12.965  0.00  0.00    +0.001 A 
ATOM     16  C   UNL     1       2.626  -2.247  12.728  0.00  0.00    +0.010 A 
ATOM     17  C   UNL     1       3.165  -3.073  13.693  0.00  0.00    +0.001 A 
ATOM     18  C   UNL     1       3.591  -2.545  14.899  0.00  0.00    +0.000 A 
ATOM     19  C   UNL     1       3.485  -1.187  15.142  0.00  0.00    +0.001 A 
ATOM     20  C   UNL     1       2.952  -0.351  14.181  0.00  0.00    +0.010 A 
ENDBRANCH  11  15
BRANCH   9  22
ATOM     21  C   UNL     1       0.469   4.428  10.020  0.00  0.00    +0.093 C 
ATOM     22  S   UNL     1       1.208   3.854  11.569  0.00  0.00    -0.089 S 
ENDBRANCH   9  22
ENDBRANCH   7  13
ENDBRANCH   1   7
BRANCH   5  23
ATOM     23  O   UNL     1      -2.780   0.711   5.182  0.00  0.00    -0.422 OA
BRANCH  23  24
ATOM     24  C   UNL     1      -4.036   1.026   5.555  0.00  0.00    +0.345 C 
ATOM     25  O   UNL     1      -4.229   1.612   6.601  0.00  0.00    -0.244 OA
BRANCH  24  26
ATOM     26  C   UNL     1      -5.178   0.657   4.693  0.00  0.00    +0.073 A 
ATOM     27  C   UNL     1      -5.834  -0.588   4.849  0.00  0.00    +0.015 A 
ATOM     28  C   UNL     1      -5.431  -1.514   5.819  0.00  0.00    +0.011 A 
ATOM     29  C   UNL     1      -6.092  -2.700   5.934  0.00  0.00    +0.001 A 
ATOM     30  C   UNL     1      -7.165  -3.003   5.098  0.00  0.00    +0.002 A 
ATOM     31  C   UNL     1      -7.582  -2.126   4.145  0.00  0.00    +0.028 A 
ATOM     32  C   UNL     1      -6.924  -0.891   3.996  0.00  0.00    +0.072 A 
ATOM     33  N   UNL     1      -7.307  -0.012   3.073  0.00  0.00    -0.251 NA
ATOM     34  C   UNL     1      -6.711   1.153   2.907  0.00  0.00    +0.046 A 
ATOM     35  C   UNL     1      -5.638   1.527   3.705  0.00  0.00    -0.011 A 
ATOM     36  C   UNL     1      -4.936   2.852   3.559  0.00  0.00    +0.038 C 
ATOM     37  C   UNL     1      -5.258   3.483   2.206  0.00  0.00    +0.005 C 
ATOM     38  C   UNL     1      -6.780   3.487   2.025  0.00  0.00    +0.006 C 
ATOM     39  C   UNL     1      -7.247   2.049   1.817  0.00  0.00    +0.056 C 
ENDBRANCH  24  26
ENDBRANCH  23  24
ENDBRANCH   5  23
TORSDOF 7
