REMARK  Name = ZINC67390878
REMARK  5 active torsions:
REMARK  status: ('A' for Active; 'I' for Inactive)
REMARK    1  A    between atoms: C_6  and  C_7
REMARK    2  A    between atoms: C_7  and  C_8
REMARK    3  A    between atoms: C_8  and  C_10
REMARK    4  A    between atoms: C_8  and  N_16
REMARK    5  A    between atoms: C_22  and  C_25
REMARK                            x       y       z     vdW  Elec       q    Type
REMARK                         _______ _______ _______ _____ _____    ______ ____
ROOT
ATOM      1  C   UNL     1      -1.745  -1.028  -1.429  0.00  0.00    +0.082 C 
ENDROOT
BRANCH   1   2
ATOM      2  N   UNL     1      -2.059   0.249  -2.074  0.00  0.00    -0.296 N 
ATOM      3  C   UNL     1      -1.988   0.362  -3.415  0.00  0.00    +0.302 C 
ATOM      4  O   UNL     1      -1.663  -0.596  -4.090  0.00  0.00    -0.253 OA
ATOM      5  N   UNL     1      -2.276   1.538  -4.008  0.00  0.00    -0.285 N 
ATOM      6  C   UNL     1      -2.674   2.772  -3.316  0.00  0.00    +0.110 C 
ATOM      7  C   UNL     1      -2.874   3.858  -4.394  0.00  0.00    +0.033 C 
ATOM      8  C   UNL     1      -2.029   3.327  -5.582  0.00  0.00    +0.094 C 
ATOM      9  C   UNL     1      -2.239   1.800  -5.459  0.00  0.00    +0.122 C 
ATOM     10  H   UNL     1      -2.318   1.014  -1.536  0.00  0.00    +0.151 HD
BRANCH   8  11
ATOM     11  C   UNL     1      -2.558   3.844  -6.895  0.00  0.00    +0.215 C 
ATOM     12  O   UNL     1      -3.526   4.575  -6.913  0.00  0.00    -0.276 OA
ATOM     13  N   UNL     1      -1.957   3.494  -8.050  0.00  0.00    -0.329 N 
ATOM     14  H   UNL     1      -1.183   2.909  -8.035  0.00  0.00    +0.145 HD
ATOM     15  H   UNL     1      -2.297   3.826  -8.895  0.00  0.00    +0.145 HD
ENDBRANCH   8  11
ENDBRANCH   1   2
BRANCH   1  16
ATOM     16  C   UNL     1      -2.991  -1.916  -1.423  0.00  0.00    +0.010 C 
ATOM     17  C   UNL     1      -2.663  -3.250  -0.749  0.00  0.00    +0.005 C 
ATOM     18  C   UNL     1      -3.909  -4.138  -0.744  0.00  0.00    +0.000 C 
ATOM     19  C   UNL     1      -4.362  -4.391  -2.183  0.00  0.00    +0.000 C 
ATOM     20  C   UNL     1      -4.690  -3.057  -2.857  0.00  0.00    +0.000 C 
ATOM     21  C   UNL     1      -3.444  -2.169  -2.862  0.00  0.00    +0.005 C 
ENDBRANCH   1  16
BRANCH   1  22
ATOM     22  C   UNL     1      -1.293  -0.775   0.011  0.00  0.00    +0.057 C 
BRANCH  22  28
ATOM     23  C   UNL     1      -0.017   1.378   0.010  0.00  0.00    +0.005 A 
ATOM     24  C   UNL     1       1.171   2.086   0.002  0.00  0.00    +0.020 A 
ATOM     25  C   UNL     1       2.378   1.410  -0.013  0.00  0.00    +0.041 A 
ATOM     26  C   UNL     1       2.396   0.027  -0.021  0.00  0.00    +0.020 A 
ATOM     27  C   UNL     1       1.208  -0.679  -0.013  0.00  0.00    +0.005 A 
ATOM     28  C   UNL     1       0.002  -0.004   0.002  0.00  0.00    -0.046 A 
ATOM     29 CL   UNL     1       3.870   2.298  -0.023  0.00  0.00    -0.084 Cl
ENDBRANCH  22  28
ENDBRANCH   1  22
TORSDOF 5
