REMARK  Name = ZINC02111514
REMARK  11 active torsions:
REMARK  status: ('A' for Active; 'I' for Inactive)
REMARK    1  A    between atoms: C_1  and  C_2
REMARK    2  A    between atoms: C_2  and  C_3
REMARK    3  A    between atoms: C_10  and  O_15
REMARK    4  A    between atoms: C_12  and  C_14
REMARK    5  A    between atoms: O_15  and  C_16
REMARK    6  A    between atoms: C_16  and  C_17
REMARK    7  A    between atoms: N_19  and  C_20
REMARK    8  A    between atoms: C_20  and  C_21
REMARK    9  A    between atoms: N_23  and  C_24
REMARK   10  A    between atoms: C_24  and  C_25
REMARK   11  A    between atoms: C_30  and  O_38
REMARK                            x       y       z     vdW  Elec       q    Type
REMARK                         _______ _______ _______ _____ _____    ______ ____
ROOT
ATOM      1  C   UNL     1      -1.044  -2.161   0.000  0.00  0.00    +0.251 C 
ATOM      2  O   UNL     1       0.082  -2.610  -0.013  0.00  0.00    -0.272 OA
ATOM      3  N   UNL     1      -2.102  -2.997   0.006  0.00  0.00    -0.304 N 
ATOM      4  H   UNL     1      -3.003  -2.638   0.017  0.00  0.00    +0.149 HD
ENDROOT
BRANCH   1   5
ATOM      5  C   UNL     1      -1.262  -0.670   0.011  0.00  0.00    +0.324 C 
BRANCH   5   6
ATOM      6  O   UNL     1       0.002  -0.004   0.002  0.00  0.00    -0.482 OA
BRANCH   6  14
ATOM      7  C   UNL     1       2.479   1.392  -0.014  0.00  0.00    -0.027 A 
ATOM      8  C   UNL     1       3.607   2.150  -0.019  0.00  0.00    +0.096 A 
ATOM      9  C   UNL     1       3.506   3.556  -0.011  0.00  0.00    +0.337 A 
ATOM     10  O   UNL     1       4.524   4.224  -0.016  0.00  0.00    -0.245 OA
ATOM     11  O   UNL     1       2.316   4.178   0.003  0.00  0.00    -0.422 OA
ATOM     12  C   UNL     1       1.158   3.483   0.010  0.00  0.00    +0.143 A 
ATOM     13  C   UNL     1       1.186   2.077   0.002  0.00  0.00    +0.062 A 
ATOM     14  C   UNL     1      -0.016   1.353   0.009  0.00  0.00    +0.132 A 
ATOM     15  C   UNL     1      -1.221   2.034   0.019  0.00  0.00    +0.050 A 
ATOM     16  C   UNL     1      -1.240   3.419   0.032  0.00  0.00    -0.043 A 
ATOM     17  C   UNL     1      -0.063   4.141   0.025  0.00  0.00    +0.050 A 
ATOM     18  C   UNL     1      -2.560   4.145   0.049  0.00  0.00    +0.044 C 
BRANCH   7  20
ATOM     19  C   UNL     1       2.446  -0.621  -1.461  0.00  0.00    +0.009 C 
ATOM     20  C   UNL     1       2.558  -0.113  -0.022  0.00  0.00    +0.033 C 
ENDBRANCH   7  20
ENDBRANCH   6  14
ENDBRANCH   5   6
ENDBRANCH   1   5
BRANCH   3  21
ATOM     21  C   UNL     1      -1.891  -4.446  -0.004  0.00  0.00    +0.200 C 
BRANCH  21  22
ATOM     22  C   UNL     1      -3.224  -5.149   0.005  0.00  0.00    +0.231 C 
ATOM     23  O   UNL     1      -4.250  -4.502   0.018  0.00  0.00    -0.274 OA
ATOM     24  N   UNL     1      -3.276  -6.495  -0.002  0.00  0.00    -0.305 N 
ATOM     25  H   UNL     1      -2.455  -7.013  -0.012  0.00  0.00    +0.149 HD
BRANCH  24  26
ATOM     26  C   UNL     1      -4.572  -7.178   0.007  0.00  0.00    +0.200 C 
BRANCH  26  27
ATOM     27  C   UNL     1      -4.354  -8.669  -0.003  0.00  0.00    +0.233 C 
ATOM     28  O   UNL     1      -3.228  -9.118  -0.016  0.00  0.00    -0.274 OA
ATOM     29  N   UNL     1      -5.412  -9.505   0.003  0.00  0.00    -0.300 N 
ATOM     30  C   UNL     1      -6.783  -8.978   0.025  0.00  0.00    +0.110 C 
ATOM     31  C   UNL     1      -7.539  -9.608   1.193  0.00  0.00    +0.054 C 
ATOM     32  C   UNL     1      -7.457 -11.133   1.089  0.00  0.00    +0.072 C 
ATOM     33  C   UNL     1      -8.230 -11.760   2.252  0.00  0.00    +0.035 C 
ATOM     34  C   UNL     1      -7.626 -11.287   3.576  0.00  0.00    +0.003 C 
ATOM     35  C   UNL     1      -6.159 -11.715   3.651  0.00  0.00    +0.001 C 
ATOM     36  C   UNL     1      -5.386 -11.096   2.484  0.00  0.00    +0.008 C 
ATOM     37  C   UNL     1      -5.992 -11.572   1.163  0.00  0.00    +0.038 C 
ATOM     38  C   UNL     1      -5.217 -10.961  -0.007  0.00  0.00    +0.114 C 
BRANCH  32  39
ATOM     39  O   UNL     1      -8.024 -11.565  -0.150  0.00  0.00    -0.388 OA
ATOM     40  H   UNL     1      -8.952 -11.320  -0.264  0.00  0.00    +0.210 HD
ENDBRANCH  32  39
ENDBRANCH  26  27
ENDBRANCH  24  26
ENDBRANCH  21  22
ENDBRANCH   3  21
TORSDOF 9
