REMARK  Name = ZINC35867141
REMARK  5 active torsions:
REMARK  status: ('A' for Active; 'I' for Inactive)
REMARK    1  A    between atoms: C_1  and  C_2
REMARK    2  A    between atoms: C_2  and  C_3
REMARK    3  A    between atoms: C_8  and  N_9
REMARK    4  A    between atoms: C_25  and  C_27
REMARK    5  A    between atoms: C_27  and  C_28
REMARK                            x       y       z     vdW  Elec       q    Type
REMARK                         _______ _______ _______ _____ _____    ______ ____
ROOT
ATOM      1  N   UNL     1      -1.862  -2.593   1.908  0.00  0.00    -0.269 N 
ATOM      2  C   UNL     1      -2.250  -1.369   2.318  0.00  0.00    +0.307 C 
ATOM      3  O   UNL     1      -1.418  -0.507   2.531  0.00  0.00    -0.252 OA
ATOM      4  N   UNL     1      -3.559  -1.099   2.492  0.00  0.00    -0.282 N 
ATOM      5  C   UNL     1      -4.565  -2.163   2.364  0.00  0.00    +0.128 C 
ATOM      6  C   UNL     1      -5.394  -2.210   3.653  0.00  0.00    +0.125 C 
ATOM      7  N   UNL     1      -5.841  -0.848   3.974  0.00  0.00    -0.312 N 
ATOM      8  C   UNL     1      -4.836   0.216   4.101  0.00  0.00    +0.125 C 
ATOM      9  C   UNL     1      -4.005   0.262   2.818  0.00  0.00    +0.128 C 
ATOM     10  C   UNL     1      -7.185  -0.571   4.152  0.00  0.00    +0.133 A 
ATOM     11  C   UNL     1      -7.807  -0.797   5.412  0.00  0.00    +0.051 A 
ATOM     12  C   UNL     1      -7.215  -1.315   6.646  0.00  0.00    -0.025 A 
ATOM     13  C   UNL     1      -8.031  -1.435   7.713  0.00  0.00    -0.004 A 
ATOM     14  S   UNL     1      -9.615  -0.873   7.148  0.00  0.00    -0.073 S 
ATOM     15  C   UNL     1      -9.178  -0.478   5.475  0.00  0.00    +0.114 A 
ATOM     16  N   UNL     1      -9.825  -0.005   4.428  0.00  0.00    -0.224 NA
ATOM     17  C   UNL     1      -9.195   0.182   3.285  0.00  0.00    +0.137 A 
ATOM     18  N   UNL     1      -7.908  -0.088   3.155  0.00  0.00    -0.216 NA
ATOM     19  C   UNL     1      -7.673  -1.936   9.079  0.00  0.00    +0.043 C 
ATOM     20  C   UNL     1      -6.316  -2.650   8.992  0.00  0.00    +0.005 C 
ATOM     21  C   UNL     1      -5.341  -1.759   8.217  0.00  0.00    +0.005 C 
ATOM     22  C   UNL     1      -5.743  -1.709   6.743  0.00  0.00    +0.037 C 
ATOM     23  H   UNL     1      -2.527  -3.261   1.679  0.00  0.00    +0.156 HD
ENDROOT
BRANCH   1  29
ATOM     24  C   UNL     1      -0.063  -4.200   2.034  0.00  0.00    -0.026 A 
ATOM     25  C   UNL     1       1.281  -4.501   1.935  0.00  0.00    +0.005 A 
ATOM     26  C   UNL     1       2.192  -3.510   1.621  0.00  0.00    +0.000 A 
ATOM     27  C   UNL     1       1.761  -2.213   1.407  0.00  0.00    +0.002 A 
ATOM     28  C   UNL     1       0.418  -1.905   1.505  0.00  0.00    +0.023 A 
ATOM     29  C   UNL     1      -0.500  -2.900   1.814  0.00  0.00    +0.038 A 
BRANCH  24  31
ATOM     30  C   UNL     1      -1.648  -5.856   1.088  0.00  0.00    +0.009 C 
ATOM     31  C   UNL     1      -1.056  -5.281   2.376  0.00  0.00    +0.033 C 
ENDBRANCH  24  31
ENDBRANCH   1  29
BRANCH  17  32
ATOM     32  C   UNL     1      -9.957   0.724   2.103  0.00  0.00    +0.111 C 
BRANCH  32  33
ATOM     33  C   UNL     1      -9.886   2.229   2.106  0.00  0.00    -0.040 A 
ATOM     34  C   UNL     1     -10.846   2.965   2.775  0.00  0.00    +0.004 A 
ATOM     35  C   UNL     1     -10.780   4.346   2.778  0.00  0.00    +0.000 A 
ATOM     36  C   UNL     1      -9.755   4.991   2.112  0.00  0.00    +0.000 A 
ATOM     37  C   UNL     1      -8.795   4.255   1.443  0.00  0.00    +0.000 A 
ATOM     38  C   UNL     1      -8.858   2.874   1.444  0.00  0.00    +0.004 A 
ENDBRANCH  32  33
ENDBRANCH  17  32
TORSDOF 4
