REMARK  Name = ZINC34935844
REMARK  9 active torsions:
REMARK  status: ('A' for Active; 'I' for Inactive)
REMARK    1  A    between atoms: C_1  and  C_2
REMARK    2  A    between atoms: C_2  and  C_30
REMARK    3  A    between atoms: C_7  and  C_11
REMARK    4  A    between atoms: C_11  and  N_12
REMARK    5  A    between atoms: N_12  and  C_13
REMARK    6  A    between atoms: C_13  and  C_14
REMARK    7  A    between atoms: N_21  and  C_22
REMARK    8  A    between atoms: C_25  and  O_28
REMARK    9  A    between atoms: O_28  and  C_29
REMARK                            x       y       z     vdW  Elec       q    Type
REMARK                         _______ _______ _______ _____ _____    ______ ____
ROOT
ATOM      1  N   UNL     1       3.047  -2.577   0.073  0.00  0.00    -0.274 N 
ATOM      2  C   UNL     1       3.076  -3.507  -0.902  0.00  0.00    +0.307 C 
ATOM      3  O   UNL     1       2.247  -4.396  -0.919  0.00  0.00    -0.252 OA
ATOM      4  N   UNL     1       4.025  -3.452  -1.857  0.00  0.00    -0.269 N 
ATOM      5  H   UNL     1       4.639  -2.701  -1.889  0.00  0.00    +0.156 HD
ENDROOT
BRANCH   4   6
ATOM      6  C   UNL     1       4.125  -4.479  -2.805  0.00  0.00    +0.035 A 
ATOM      7  C   UNL     1       4.538  -4.192  -4.099  0.00  0.00    +0.027 A 
ATOM      8  C   UNL     1       4.637  -5.205  -5.033  0.00  0.00    +0.047 A 
ATOM      9  C   UNL     1       4.323  -6.508  -4.679  0.00  0.00    +0.120 A 
ATOM     10  C   UNL     1       3.909  -6.796  -3.386  0.00  0.00    +0.047 A 
ATOM     11  C   UNL     1       3.816  -5.785  -2.450  0.00  0.00    +0.027 A 
BRANCH   9  12
ATOM     12  O   UNL     1       4.421  -7.505  -5.598  0.00  0.00    -0.495 OA
ATOM     13  C   UNL     1       4.082  -8.824  -5.165  0.00  0.00    +0.277 C 
ENDBRANCH   9  12
ENDBRANCH   4   6
BRANCH   1  14
ATOM     14  C   UNL     1       2.015  -2.637   1.112  0.00  0.00    +0.140 C 
BRANCH  14  20
ATOM     15  C   UNL     1       0.328   1.897  -0.327  0.00  0.00    +0.012 C 
ATOM     16  C   UNL     1       0.196   0.373  -0.362  0.00  0.00    -0.025 C 
ATOM     17  C   UNL     1      -1.190  -0.143   0.076  0.00  0.00    -0.000 C 
ATOM     18  C   UNL     1      -1.391  -1.602  -0.358  0.00  0.00    +0.031 C 
ATOM     19  C   UNL     1      -0.207  -2.430   0.077  0.00  0.00    -0.025 C 
ATOM     20  C   UNL     1       0.810  -1.847   0.670  0.00  0.00    -0.053 C 
ATOM     21  C   UNL     1       0.722  -0.328   0.904  0.00  0.00    +0.022 C 
ATOM     22  C   UNL     1      -0.662   0.005   1.513  0.00  0.00    +0.012 C 
ATOM     23  C   UNL     1       0.705  -0.242  -1.667  0.00  0.00    +0.012 C 
ENDBRANCH  14  20
ENDBRANCH   1  14
BRANCH   1  24
ATOM     24  C   UNL     1       4.046  -1.506   0.094  0.00  0.00    +0.183 C 
BRANCH  24  25
ATOM     25  C   UNL     1       5.240  -1.948   0.900  0.00  0.00    +0.122 A 
ATOM     26  C   UNL     1       6.323  -2.584   0.417  0.00  0.00    +0.046 A 
ATOM     27  C   UNL     1       7.189  -2.806   1.512  0.00  0.00    +0.041 A 
ATOM     28  C   UNL     1       6.584  -2.294   2.598  0.00  0.00    +0.195 A 
ATOM     29  O   UNL     1       5.406  -1.770   2.220  0.00  0.00    -0.466 OA
ENDBRANCH  24  25
ENDBRANCH   1  24
TORSDOF 6
