REMARK  Name = ZINC32640806
REMARK  6 active torsions:
REMARK  status: ('A' for Active; 'I' for Inactive)
REMARK    1  A    between atoms: C_1  and  C_2
REMARK    2  A    between atoms: C_5  and  C_30
REMARK    3  A    between atoms: C_6  and  N_8
REMARK    4  A    between atoms: C_19  and  S_20
REMARK    5  A    between atoms: S_20  and  C_21
REMARK    6  A    between atoms: C_21  and  C_22
REMARK                            x       y       z     vdW  Elec       q    Type
REMARK                         _______ _______ _______ _____ _____    ______ ____
ROOT
ATOM      1  N   UNL     1      -2.037   3.321  -2.012  0.00  0.00    -0.273 N 
ATOM      2  C   UNL     1      -1.369   3.040  -0.747  0.00  0.00    +0.128 C 
ATOM      3  C   UNL     1      -2.190   2.802   0.523  0.00  0.00    +0.191 C 
ATOM      4  S   UNL     1      -0.984   1.735   1.447  0.00  0.00    -0.027 S 
ATOM      5  O   UNL     1      -1.686   0.660   2.055  0.00  0.00    -0.174 OA
ATOM      6  O   UNL     1      -0.143   2.562   2.239  0.00  0.00    -0.174 OA
ATOM      7  C   UNL     1      -0.013   1.086   0.008  0.00  0.00    +0.194 C 
ATOM      8  C   UNL     1      -0.825   1.626  -1.141  0.00  0.00    +0.151 C 
ATOM      9  N   UNL     1      -0.362   1.869  -2.474  0.00  0.00    -0.256 NA
ATOM     10  C   UNL     1      -1.116   2.848  -2.960  0.00  0.00    +0.157 C 
ENDROOT
BRANCH   1  16
ATOM     11  C   UNL     1      -6.897   2.863  -2.592  0.00  0.00    +0.044 C 
ATOM     12  C   UNL     1      -5.658   3.717  -2.513  0.00  0.00    -0.049 A 
ATOM     13  C   UNL     1      -5.754   5.089  -2.654  0.00  0.00    +0.004 A 
ATOM     14  C   UNL     1      -4.619   5.876  -2.582  0.00  0.00    +0.005 A 
ATOM     15  C   UNL     1      -3.385   5.293  -2.364  0.00  0.00    -0.029 A 
ATOM     16  C   UNL     1      -3.285   3.914  -2.228  0.00  0.00    +0.039 A 
ATOM     17  C   UNL     1      -4.427   3.127  -2.300  0.00  0.00    +0.027 A 
ATOM     18  C   UNL     1      -2.150   6.151  -2.279  0.00  0.00    +0.045 C 
ENDBRANCH   1  16
BRANCH  10  19
ATOM     19  S   UNL     1      -0.977   3.479  -4.599  0.00  0.00    -0.086 S 
BRANCH  19  20
ATOM     20  C   UNL     1       0.364   2.436  -5.224  0.00  0.00    +0.112 C 
BRANCH  20  21
ATOM     21  C   UNL     1       0.664   2.807  -6.654  0.00  0.00    -0.036 A 
ATOM     22  C   UNL     1       0.004   2.168  -7.687  0.00  0.00    +0.006 A 
ATOM     23  C   UNL     1       0.274   2.512  -8.998  0.00  0.00    +0.022 A 
ATOM     24  C   UNL     1       1.214   3.488  -9.277  0.00  0.00    +0.059 A 
ATOM     25  C   UNL     1       1.879   4.123  -8.243  0.00  0.00    +0.060 A 
ATOM     26  C   UNL     1       1.603   3.782  -6.931  0.00  0.00    +0.026 A 
ATOM     27 CL   UNL     1       3.059   5.348  -8.592  0.00  0.00    -0.082 Cl
ATOM     28 CL   UNL     1       1.559   3.915 -10.924  0.00  0.00    -0.082 Cl
ENDBRANCH  20  21
ENDBRANCH  19  20
ENDBRANCH  10  19
TORSDOF 4
