REMARK  Name = ZINC12431404
REMARK  8 active torsions:
REMARK  status: ('A' for Active; 'I' for Inactive)
REMARK    1  A    between atoms: C_1  and  C_2
REMARK    2  A    between atoms: C_2  and  C_3
REMARK    3  A    between atoms: C_2  and  C_4
REMARK    4  A    between atoms: C_7  and  N_10
REMARK    5  A    between atoms: N_10  and  C_11
REMARK    6  A    between atoms: C_18  and  C_20
REMARK    7  A    between atoms: C_20  and  C_21
REMARK    8  A    between atoms: C_21  and  C_22
REMARK                            x       y       z     vdW  Elec       q    Type
REMARK                         _______ _______ _______ _____ _____    ______ ____
ROOT
ATOM      1  C   UNL     1       4.387  -3.590  -3.755  0.00  0.00    +0.088 C 
ATOM      2  C   UNL     1       3.323  -4.690  -3.751  0.00  0.00    +0.025 C 
ATOM      3  C   UNL     1       2.030  -4.149  -3.138  0.00  0.00    +0.021 C 
ATOM      4  C   UNL     1       1.517  -2.984  -3.983  0.00  0.00    +0.108 C 
ATOM      5  N   UNL     1       2.585  -1.984  -4.117  0.00  0.00    -0.300 N 
ATOM      6  C   UNL     1       3.899  -2.417  -4.612  0.00  0.00    +0.130 C 
ATOM      7  C   UNL     1       2.365  -0.696  -3.788  0.00  0.00    +0.216 C 
ATOM      8  O   UNL     1       3.257   0.119  -3.899  0.00  0.00    -0.276 OA
ENDROOT
BRANCH   1   9
ATOM      9  N   UNL     1       5.635  -4.117  -4.313  0.00  0.00    -0.339 N 
ATOM     10  H   UNL     1       5.613  -4.872  -4.921  0.00  0.00    +0.146 HD
BRANCH   9  14
ATOM     11  C   UNL     1       9.274  -2.373  -3.286  0.00  0.00    -0.045 A 
ATOM     12  C   UNL     1       9.245  -3.450  -4.153  0.00  0.00    +0.006 A 
ATOM     13  C   UNL     1       8.040  -4.030  -4.496  0.00  0.00    +0.023 A 
ATOM     14  C   UNL     1       6.856  -3.532  -3.968  0.00  0.00    +0.027 A 
ATOM     15  C   UNL     1       6.888  -2.447  -3.101  0.00  0.00    +0.023 A 
ATOM     16  C   UNL     1       8.097  -1.874  -2.759  0.00  0.00    +0.006 A 
BRANCH  11  18
ATOM     17  C   UNL     1      10.590  -0.272  -3.337  0.00  0.00    +0.012 C 
ATOM     18  C   UNL     1      10.591  -1.742  -2.914  0.00  0.00    +0.013 C 
ATOM     19  C   UNL     1      10.793  -1.837  -1.400  0.00  0.00    +0.012 C 
ENDBRANCH  11  18
ENDBRANCH   9  14
ENDBRANCH   1   9
BRANCH   7  20
ATOM     20  C   UNL     1       1.012  -0.268  -3.282  0.00  0.00    +0.102 C 
BRANCH  20  21
ATOM     21  C   UNL     1       1.030   1.232  -2.983  0.00  0.00    +0.064 C 
BRANCH  21  22
ATOM     22  C   UNL     1      -0.324   1.661  -2.478  0.00  0.00    +0.040 A 
ATOM     23  C   UNL     1      -0.754   1.592  -1.205  0.00  0.00    -0.004 A 
ATOM     24  C   UNL     1      -2.068   2.087  -1.163  0.00  0.00    +0.066 A 
ATOM     25  N   UNL     1      -2.409   2.441  -2.368  0.00  0.00    -0.178 NA
ATOM     26  N   UNL     1      -1.325   2.183  -3.221  0.00  0.00    -0.281 N 
ATOM     27  H   UNL     1      -1.298   2.354  -4.206  0.00  0.00    +0.189 HD
ATOM     28  C   UNL     1      -2.890   2.161   0.101  0.00  0.00    +0.057 C 
ATOM     29  C   UNL     1      -2.235   1.258   1.153  0.00  0.00    +0.007 C 
ATOM     30  C   UNL     1      -0.743   1.587   1.260  0.00  0.00    +0.005 C 
ATOM     31  C   UNL     1      -0.013   1.086   0.008  0.00  0.00    +0.039 C 
ENDBRANCH  21  22
ENDBRANCH  20  21
ENDBRANCH   7  20
TORSDOF 6
