REMARK  Name = ZINC04222321
REMARK  14 active torsions:
REMARK  status: ('A' for Active; 'I' for Inactive)
REMARK    1  A    between atoms: C_1  and  C_2
REMARK    2  A    between atoms: C_5  and  O_41
REMARK    3  A    between atoms: C_7  and  C_38
REMARK    4  A    between atoms: C_7  and  C_39
REMARK    5  A    between atoms: C_17  and  C_19
REMARK    6  A    between atoms: C_19  and  C_20
REMARK    7  A    between atoms: C_23  and  O_26
REMARK    8  A    between atoms: O_26  and  C_27
REMARK    9  A    between atoms: C_28  and  C_30
REMARK   10  A    between atoms: C_30  and  C_31
REMARK   11  A    between atoms: N_33  and  C_34
REMARK   12  A    between atoms: N_33  and  C_35
REMARK   13  A    between atoms: C_35  and  C_36
REMARK   14  A    between atoms: C_39  and  O_40
REMARK                            x       y       z     vdW  Elec       q    Type
REMARK                         _______ _______ _______ _____ _____    ______ ____
ROOT
ATOM      1  C   UNL     1      -0.345   1.004  -0.083  0.00  0.00    +0.012 C 
ATOM      2  C   UNL     1      -0.965   1.321   1.279  0.00  0.00    -0.019 C 
ATOM      3  C   UNL     1      -0.546   2.728   1.719  0.00  0.00    +0.010 C 
ATOM      4  C   UNL     1      -1.090   3.770   0.732  0.00  0.00    +0.032 C 
ATOM      5  C   UNL     1      -2.620   3.688   0.714  0.00  0.00    +0.123 C 
ATOM      6  C   UNL     1      -3.031   2.297   0.234  0.00  0.00    +0.021 C 
ATOM      7  C   UNL     1      -2.490   1.224   1.183  0.00  0.00    +0.011 C 
ATOM      8  C   UNL     1      -2.876  -0.134   0.587  0.00  0.00    +0.049 C 
ATOM      9  C   UNL     1      -2.088  -1.202   1.260  0.00  0.00    +0.015 A 
ATOM     10  C   UNL     1      -0.991  -1.054   2.046  0.00  0.00    +0.058 A 
ATOM     11  N   UNL     1      -0.465  -2.176   2.531  0.00  0.00    -0.229 NA
ATOM     12  C   UNL     1      -0.975  -3.361   2.269  0.00  0.00    +0.165 A 
ATOM     13  S   UNL     1      -2.325  -2.959   1.249  0.00  0.00    -0.057 S 
ATOM     14  N   UNL     1      -0.545  -4.612   2.696  0.00  0.00    -0.264 N 
ATOM     15  C   UNL     1      -1.210  -5.720   2.314  0.00  0.00    +0.223 C 
ATOM     16  O   UNL     1      -2.184  -5.626   1.597  0.00  0.00    -0.275 OA
ATOM     17  C   UNL     1      -0.436   0.334   2.328  0.00  0.00    +0.054 C 
ATOM     18  C   UNL     1      -4.558   2.211   0.190  0.00  0.00    +0.016 C 
ATOM     19  H   UNL     1       0.234  -4.687   3.269  0.00  0.00    +0.157 HD
ENDROOT
BRANCH   5  20
ATOM     20  O   UNL     1      -3.143   4.676  -0.176  0.00  0.00    -0.391 OA
ATOM     21  H   UNL     1      -2.919   5.584   0.070  0.00  0.00    +0.210 HD
ENDBRANCH   5  20
BRANCH  15  22
ATOM     22  C   UNL     1      -0.744  -7.076   2.778  0.00  0.00    +0.131 C 
BRANCH  22  23
ATOM     23  C   UNL     1      -1.652  -8.139   2.215  0.00  0.00    -0.038 A 
ATOM     24  C   UNL     1      -2.768  -8.541   2.926  0.00  0.00    +0.007 A 
ATOM     25  C   UNL     1      -3.605  -9.511   2.410  0.00  0.00    +0.046 A 
ATOM     26  C   UNL     1      -3.320 -10.089   1.181  0.00  0.00    +0.120 A 
ATOM     27  C   UNL     1      -2.197  -9.688   0.472  0.00  0.00    +0.046 A 
ATOM     28  C   UNL     1      -1.365  -8.714   0.991  0.00  0.00    +0.007 A 
BRANCH  26  29
ATOM     29  O   UNL     1      -4.139 -11.048   0.674  0.00  0.00    -0.495 OA
ATOM     30  C   UNL     1      -5.276 -11.411   1.458  0.00  0.00    +0.277 C 
ENDBRANCH  26  29
ENDBRANCH  22  23
ENDBRANCH  15  22
BRANCH  17  31
ATOM     31  C   UNL     1       1.092   0.294   2.265  0.00  0.00    +0.106 C 
BRANCH  31  32
ATOM     32  C   UNL     1       1.621  -0.516   3.420  0.00  0.00    +0.217 C 
ATOM     33  O   UNL     1       0.852  -1.013   4.215  0.00  0.00    -0.276 OA
ATOM     34  N   UNL     1       2.950  -0.689   3.569  0.00  0.00    -0.293 N 
ATOM     35  C   UNL     1       3.879  -0.089   2.608  0.00  0.00    +0.133 C 
BRANCH  34  36
ATOM     36  C   UNL     1       3.464  -1.477   4.691  0.00  0.00    +0.196 C 
BRANCH  36  37
ATOM     37  C   UNL     1       3.575  -2.889   4.290  0.00  0.00    -0.086 C 
ATOM     38  C   UNL     1       3.663  -4.015   3.969  0.00  0.00    +0.005 C 
ENDBRANCH  36  37
ENDBRANCH  34  36
ENDBRANCH  31  32
ENDBRANCH  17  31
BRANCH   6  39
ATOM     39  C   UNL     1      -2.470   2.060  -1.170  0.00  0.00    +0.165 C 
BRANCH  39  40
ATOM     40  O   UNL     1      -3.096   2.956  -2.091  0.00  0.00    -0.394 OA
ATOM     41  H   UNL     1      -2.788   2.862  -3.002  0.00  0.00    +0.209 HD
ENDBRANCH  39  40
ENDBRANCH   6  39
TORSDOF 10
