REMARK  Name = ZINC11025629
REMARK  10 active torsions:
REMARK  status: ('A' for Active; 'I' for Inactive)
REMARK    1  A    between atoms: C_1  and  N_2
REMARK    2  A    between atoms: N_2  and  C_3
REMARK    3  A    between atoms: N_2  and  C_4
REMARK    4  A    between atoms: C_7  and  C_10
REMARK    5  A    between atoms: C_10  and  C_12
REMARK    6  A    between atoms: C_10  and  N_63
REMARK    7  A    between atoms: C_12  and  N_13
REMARK    8  A    between atoms: C_14  and  C_16
REMARK    9  A    between atoms: C_16  and  O_17
REMARK   10  A    between atoms: O_17  and  C_18
REMARK                            x       y       z     vdW  Elec       q    Type
REMARK                         _______ _______ _______ _____ _____    ______ ____
ROOT
ATOM      1  C   UNL     1       4.485   8.635  -0.056  0.00  0.00    -0.020 C 
ENDROOT
BRANCH   1  11
ATOM      2  C   UNL     1       6.413   9.373  -1.326  0.00  0.00    -0.073 C 
ATOM      3  C   UNL     1       7.634   8.828  -2.068  0.00  0.00    +0.017 C 
ATOM      4  C   UNL     1       7.191   7.995  -3.243  0.00  0.00    -0.048 A 
ATOM      5  C   UNL     1       8.116   7.707  -4.236  0.00  0.00    +0.004 A 
ATOM      6  C   UNL     1       7.754   6.939  -5.324  0.00  0.00    +0.000 A 
ATOM      7  C   UNL     1       6.463   6.455  -5.426  0.00  0.00    +0.000 A 
ATOM      8  C   UNL     1       5.541   6.743  -4.440  0.00  0.00    +0.002 A 
ATOM      9  C   UNL     1       5.903   7.515  -3.346  0.00  0.00    -0.061 A 
ATOM     10  C   UNL     1       4.861   7.806  -2.298  0.00  0.00    -0.042 C 
ATOM     11  N   UNL     1       5.510   8.238  -1.048  0.00  0.00    +0.388 N 
ATOM     12  H   UNL     1       6.058   7.458  -0.668  0.00  0.00    -0.080 HD
ENDBRANCH   1  11
BRANCH   1  16
ATOM     13  C   UNL     1       3.493  12.765  -0.532  0.00  0.00    +0.029 A 
ATOM     14  C   UNL     1       4.163  12.337   0.607  0.00  0.00    +0.023 A 
ATOM     15  C   UNL     1       4.482  11.002   0.758  0.00  0.00    +0.004 A 
ATOM     16  C   UNL     1       4.135  10.091  -0.224  0.00  0.00    -0.059 A 
ATOM     17  C   UNL     1       3.473  10.515  -1.362  0.00  0.00    +0.004 A 
ATOM     18  C   UNL     1       3.146  11.848  -1.516  0.00  0.00    +0.023 A 
BRANCH  13  20
ATOM     19  C   UNL     1       3.451  15.065   0.392  0.00  0.00    +0.129 C 
ATOM     20  N   UNL     1       3.169  14.115  -0.687  0.00  0.00    -0.336 N 
ATOM     21  C   UNL     1       2.547  14.581  -1.929  0.00  0.00    +0.129 C 
ENDBRANCH  13  20
ENDBRANCH   1  16
BRANCH   1  22
ATOM     22  C   UNL     1       3.229   7.783  -0.252  0.00  0.00    +0.093 C 
BRANCH  22  23
ATOM     23  N   UNL     1       3.590   6.364  -0.208  0.00  0.00    -0.314 N 
ATOM     24  C   UNL     1       2.639   5.422  -0.358  0.00  0.00    +0.251 C 
ATOM     25  O   UNL     1       1.483   5.748  -0.530  0.00  0.00    -0.272 OA
ATOM     26  H   UNL     1       4.514   6.103  -0.070  0.00  0.00    +0.149 HD
BRANCH  24  27
ATOM     27  C   UNL     1       3.010   3.962  -0.313  0.00  0.00    +0.324 C 
BRANCH  27  28
ATOM     28  O   UNL     1       1.837   3.166  -0.495  0.00  0.00    -0.483 OA
BRANCH  28  29
ATOM     29  C   UNL     1       1.998   1.817  -0.481  0.00  0.00    +0.121 A 
ATOM     30  C   UNL     1       0.902   0.984  -0.652  0.00  0.00    +0.047 A 
ATOM     31  C   UNL     1       1.068  -0.387  -0.637  0.00  0.00    +0.023 A 
ATOM     32  C   UNL     1       2.327  -0.931  -0.452  0.00  0.00    +0.041 A 
ATOM     33  C   UNL     1       3.422  -0.102  -0.280  0.00  0.00    +0.023 A 
ATOM     34  C   UNL     1       3.260   1.270  -0.294  0.00  0.00    +0.047 A 
ATOM     35 CL   UNL     1       2.534  -2.654  -0.433  0.00  0.00    -0.084 Cl
ENDBRANCH  28  29
ENDBRANCH  27  28
ENDBRANCH  24  27
ENDBRANCH  22  23
ENDBRANCH   1  22
TORSDOF 8
