REMARK  Name = ZINC39448223
REMARK  9 active torsions:
REMARK  status: ('A' for Active; 'I' for Inactive)
REMARK    1  A    between atoms: C_1  and  C_2
REMARK    2  A    between atoms: C_2  and  C_3
REMARK    3  A    between atoms: C_3  and  C_4
REMARK    4  A    between atoms: N_10  and  C_11
REMARK    5  A    between atoms: C_11  and  C_12
REMARK    6  A    between atoms: N_14  and  C_15
REMARK    7  A    between atoms: C_15  and  C_16
REMARK    8  A    between atoms: C_19  and  C_21
REMARK    9  A    between atoms: C_24  and  C_26
REMARK                            x       y       z     vdW  Elec       q    Type
REMARK                         _______ _______ _______ _____ _____    ______ ____
ROOT
ATOM      1  C   UNL     1       2.895  -1.072   3.686  0.00  0.00    +0.231 C 
ATOM      2  O   UNL     1       1.885  -0.450   3.939  0.00  0.00    -0.274 OA
ATOM      3  N   UNL     1       4.083  -0.654   4.168  0.00  0.00    -0.309 N 
ATOM      4  H   UNL     1       4.890  -1.152   3.966  0.00  0.00    +0.149 HD
ENDROOT
BRANCH   1   5
ATOM      5  C   UNL     1       2.823  -2.313   2.834  0.00  0.00    +0.204 C 
BRANCH   5  11
ATOM      6  C   UNL     1       0.763  -2.041   1.233  0.00  0.00    +0.160 C 
ATOM      7  N   UNL     1      -0.610  -2.576   1.321  0.00  0.00    -0.221 NA
ATOM      8  N   UNL     1      -0.660  -3.306   2.474  0.00  0.00    -0.261 N 
ATOM      9  C   UNL     1       0.519  -3.285   3.108  0.00  0.00    +0.148 C 
ATOM     10  S   UNL     1       0.830  -4.090   4.587  0.00  0.00    -0.017 S 
ATOM     11  N   UNL     1       1.433  -2.553   2.439  0.00  0.00    -0.286 N 
ATOM     12  H   UNL     1      -0.826  -3.151   0.520  0.00  0.00    +0.146 HD
ATOM     13  H   UNL     1      -1.446  -3.778   2.792  0.00  0.00    +0.168 HD
BRANCH   6  14
ATOM     14  C   UNL     1       0.742  -0.511   1.242  0.00  0.00    +0.040 C 
BRANCH  14  16
ATOM     15  C   UNL     1      -0.019   1.526   0.010  0.00  0.00    +0.004 C 
ATOM     16  C   UNL     1       0.002  -0.004   0.002  0.00  0.00    -0.000 C 
ENDBRANCH  14  16
ENDBRANCH   6  14
ENDBRANCH   5  11
ENDBRANCH   1   5
BRANCH   3  17
ATOM     17  C   UNL     1       4.153   0.552   4.996  0.00  0.00    +0.146 C 
BRANCH  17  18
ATOM     18  C   UNL     1       5.583   0.800   5.403  0.00  0.00    +0.007 A 
ATOM     19  C   UNL     1       6.536   1.530   4.770  0.00  0.00    +0.013 A 
ATOM     20  C   UNL     1       7.793   1.621   5.328  0.00  0.00    +0.018 A 
ATOM     21  C   UNL     1       8.039   0.970   6.507  0.00  0.00    +0.038 A 
ATOM     22  S   UNL     1       6.457   0.213   6.845  0.00  0.00    -0.090 S 
BRANCH  21  23
ATOM     23  C   UNL     1       9.287   0.912   7.298  0.00  0.00    +0.085 A 
ATOM     24  C   UNL     1       9.369   0.202   8.467  0.00  0.00    +0.075 A 
ATOM     25  S   UNL     1      11.067   0.514   8.924  0.00  0.00    -0.080 S 
ATOM     26  C   UNL     1      11.487   1.488   7.618  0.00  0.00    +0.076 A 
ATOM     27  N   UNL     1      10.389   1.540   6.910  0.00  0.00    -0.244 NA
ATOM     28  C   UNL     1      12.815   2.139   7.330  0.00  0.00    +0.073 C 
ENDBRANCH  21  23
ENDBRANCH  17  18
ENDBRANCH   3  17
TORSDOF 7
