REMARK  Name = ZINC01415164
REMARK  13 active torsions:
REMARK  status: ('A' for Active; 'I' for Inactive)
REMARK    1  A    between atoms: C_1  and  C_2
REMARK    2  A    between atoms: C_2  and  C_3
REMARK    3  A    between atoms: C_3  and  C_5
REMARK    4  A    between atoms: C_3  and  N_17
REMARK    5  A    between atoms: N_7  and  C_8
REMARK    6  A    between atoms: C_11  and  N_14
REMARK    7  A    between atoms: N_14  and  C_15
REMARK    8  A    between atoms: N_14  and  C_16
REMARK    9  A    between atoms: N_17  and  C_18
REMARK   10  A    between atoms: C_18  and  C_19
REMARK   11  A    between atoms: C_21  and  C_24
REMARK   12  A    between atoms: C_30  and  C_32
REMARK   13  A    between atoms: C_32  and  N_33
REMARK                            x       y       z     vdW  Elec       q    Type
REMARK                         _______ _______ _______ _____ _____    ______ ____
ROOT
ATOM      1  N   UNL     1      -1.929   0.678   1.188  0.00  0.00    -0.282 N 
ATOM      2  C   UNL     1      -1.898  -0.669   1.139  0.00  0.00    +0.238 C 
ATOM      3  O   UNL     1      -0.834  -1.250   1.108  0.00  0.00    -0.274 OA
ENDROOT
BRANCH   1   4
ATOM      4  C   UNL     1      -0.677   1.439   1.204  0.00  0.00    +0.162 C 
BRANCH   4   5
ATOM      5  C   UNL     1       0.133   1.050   2.413  0.00  0.00    +0.238 C 
ATOM      6  O   UNL     1      -0.293   0.218   3.186  0.00  0.00    -0.273 OA
ATOM      7  N   UNL     1       1.331   1.625   2.635  0.00  0.00    -0.284 N 
ATOM      8  H   UNL     1       1.706   2.233   1.979  0.00  0.00    +0.155 HD
BRANCH   7   9
ATOM      9  C   UNL     1       2.035   1.346   3.815  0.00  0.00    +0.034 A 
ATOM     10  C   UNL     1       1.343   1.107   4.995  0.00  0.00    +0.025 A 
ATOM     11  C   UNL     1       2.036   0.826   6.156  0.00  0.00    +0.025 A 
ATOM     12  C   UNL     1       3.425   0.794   6.146  0.00  0.00    +0.029 A 
ATOM     13  C   UNL     1       4.116   1.039   4.966  0.00  0.00    +0.025 A 
ATOM     14  C   UNL     1       3.423   1.314   3.804  0.00  0.00    +0.025 A 
BRANCH  12  15
ATOM     15  N   UNL     1       4.127   0.514   7.323  0.00  0.00    -0.336 N 
ATOM     16  C   UNL     1       5.591   0.480   7.311  0.00  0.00    +0.129 C 
ATOM     17  C   UNL     1       3.397   0.256   8.567  0.00  0.00    +0.129 C 
ENDBRANCH  12  15
ENDBRANCH   7   9
ENDBRANCH   4   5
BRANCH   4  19
ATOM     18  C   UNL     1      -0.647   1.643  -1.286  0.00  0.00    +0.006 C 
ATOM     19  C   UNL     1       0.121   1.134  -0.066  0.00  0.00    +0.028 C 
ENDBRANCH   4  19
ENDBRANCH   1   4
BRANCH   1  20
ATOM     20  C   UNL     1      -3.214   1.380   1.226  0.00  0.00    +0.171 C 
BRANCH  20  21
ATOM     21  C   UNL     1      -3.668   1.672  -0.181  0.00  0.00    +0.096 A 
ATOM     22  N   UNL     1      -4.406   0.935  -0.975  0.00  0.00    -0.242 NA
ATOM     23  C   UNL     1      -4.722   1.337  -2.196  0.00  0.00    +0.078 A 
ATOM     24  C   UNL     1      -4.252   2.554  -2.611  0.00  0.00    +0.075 A 
ATOM     25  S   UNL     1      -3.353   3.073  -1.156  0.00  0.00    -0.078 S 
BRANCH  23  26
ATOM     26  C   UNL     1      -5.557   0.495  -3.087  0.00  0.00    +0.001 A 
ATOM     27  C   UNL     1      -6.106  -0.694  -2.612  0.00  0.00    +0.010 A 
ATOM     28  C   UNL     1      -6.887  -1.471  -3.444  0.00  0.00    +0.001 A 
ATOM     29  C   UNL     1      -7.116  -1.076  -4.750  0.00  0.00    +0.000 A 
ATOM     30  C   UNL     1      -6.569   0.101  -5.228  0.00  0.00    +0.001 A 
ATOM     31  C   UNL     1      -5.791   0.888  -4.403  0.00  0.00    +0.010 A 
ENDBRANCH  23  26
ENDBRANCH  20  21
ENDBRANCH   1  20
BRANCH   2  32
ATOM     32  C   UNL     1      -3.185  -1.452   1.123  0.00  0.00    +0.241 C 
BRANCH  32  33
ATOM     33  N   UNL     1      -2.884  -2.885   1.069  0.00  0.00    -0.235 N 
ATOM     34  C   UNL     1      -2.705  -3.729   2.139  0.00  0.00    +0.090 A 
ATOM     35  C   UNL     1      -2.737  -3.560   3.519  0.00  0.00    +0.029 A 
ATOM     36  C   UNL     1      -2.510  -4.630   4.339  0.00  0.00    +0.002 A 
ATOM     37  C   UNL     1      -2.249  -5.886   3.807  0.00  0.00    +0.002 A 
ATOM     38  C   UNL     1      -2.212  -6.077   2.457  0.00  0.00    +0.032 A 
ATOM     39  C   UNL     1      -2.441  -4.997   1.594  0.00  0.00    +0.113 A 
ATOM     40  N   UNL     1      -2.469  -4.880   0.251  0.00  0.00    -0.129 NA
ATOM     41  N   UNL     1      -2.729  -3.666  -0.086  0.00  0.00    -0.064 NA
ENDBRANCH  32  33
ENDBRANCH   2  32
TORSDOF 10
