REMARK  Name = ZINC08888442
REMARK  5 active torsions:
REMARK  status: ('A' for Active; 'I' for Inactive)
REMARK    1  A    between atoms: C_1  and  C_2
REMARK    2  A    between atoms: C_6  and  N_7
REMARK    3  A    between atoms: N_7  and  C_8
REMARK    4  A    between atoms: C_8  and  C_9
REMARK    5  A    between atoms: C_14  and  O_15
REMARK                            x       y       z     vdW  Elec       q    Type
REMARK                         _______ _______ _______ _____ _____    ______ ____
ROOT
ATOM      1  N   UNL     1      -2.891   5.130  -1.306  0.00  0.00    -0.326 N 
ATOM      2  H   UNL     1      -2.285   4.938  -2.038  0.00  0.00    +0.148 HD
ENDROOT
BRANCH   1   8
ATOM      3  C   UNL     1      -3.420   5.977  -3.969  0.00  0.00    +0.047 C 
ATOM      4  C   UNL     1      -4.363   6.267  -2.830  0.00  0.00    -0.012 A 
ATOM      5  C   UNL     1      -5.537   6.964  -3.052  0.00  0.00    +0.022 A 
ATOM      6  C   UNL     1      -6.374   7.214  -1.971  0.00  0.00    +0.030 A 
ATOM      7  C   UNL     1      -6.014   6.759  -0.718  0.00  0.00    +0.098 A 
ATOM      8  C   UNL     1      -4.066   5.835  -1.542  0.00  0.00    +0.099 A 
ATOM      9  I   UNL     1      -8.163   8.271  -2.240  0.00  0.00    -0.042 I 
ATOM     10  N   UNL     1      -4.871   6.068  -0.465  0.00  0.00    -0.349 N 
ATOM     11  H   UNL     1      -4.628   5.742   0.478  0.00  0.00    +0.167 HD
ENDBRANCH   1   8
BRANCH   1  12
ATOM     12  C   UNL     1      -2.569   4.676   0.050  0.00  0.00    +0.142 C 
BRANCH  12  13
ATOM     13  C   UNL     1      -1.253   3.943   0.034  0.00  0.00    +0.013 A 
ATOM     14  C   UNL     1      -1.231   2.561   0.022  0.00  0.00    +0.024 A 
ATOM     15  C   UNL     1      -0.024   1.887   0.012  0.00  0.00    +0.019 A 
ATOM     16  C   UNL     1       1.166   2.594   0.005  0.00  0.00    +0.034 A 
ATOM     17  C   UNL     1       1.149   3.976   0.012  0.00  0.00    +0.061 A 
ATOM     18  C   UNL     1      -0.062   4.654   0.027  0.00  0.00    +0.135 A 
ATOM     19 BR   UNL     1       2.775   4.942   0.001  0.00  0.00    -0.046 Br
ATOM     20 BR   UNL     1       0.002  -0.004   0.002  0.00  0.00    -0.050 Br
BRANCH  18  21
ATOM     21  O   UNL     1      -0.081   6.013   0.034  0.00  0.00    -0.505 OA
ATOM     22  H   UNL     1      -0.095   6.411  -0.847  0.00  0.00    +0.292 HD
ENDBRANCH  18  21
ENDBRANCH  12  13
ENDBRANCH   1  12
TORSDOF 4
