REMARK  Name = ZINC03620045
REMARK  12 active torsions:
REMARK  status: ('A' for Active; 'I' for Inactive)
REMARK    1  A    between atoms: C_1  and  C_2
REMARK    2  A    between atoms: C_2  and  N_60
REMARK    3  A    between atoms: C_3  and  C_4
REMARK    4  A    between atoms: C_3  and  N_60
REMARK    5  A    between atoms: C_5  and  C_6
REMARK    6  A    between atoms: C_5  and  N_60
REMARK    7  A    between atoms: C_6  and  C_8
REMARK    8  A    between atoms: C_6  and  C_9
REMARK    9  A    between atoms: C_9  and  N_10
REMARK   10  A    between atoms: C_11  and  C_13
REMARK   11  A    between atoms: C_13  and  O_32
REMARK   12  A    between atoms: N_23  and  C_24
REMARK                            x       y       z     vdW  Elec       q    Type
REMARK                         _______ _______ _______ _____ _____    ______ ____
ROOT
ATOM      1  C   UNL     1      -0.944   4.636  -6.062  0.00  0.00    +0.247 C 
ATOM      2  C   UNL     1      -1.757   5.493  -5.119  0.00  0.00    +0.034 A 
ATOM      3  C   UNL     1      -3.068   5.192  -4.830  0.00  0.00    +0.025 A 
ATOM      4  C   UNL     1      -3.783   6.000  -3.960  0.00  0.00    +0.018 A 
ATOM      5  C   UNL     1      -3.178   7.105  -3.387  0.00  0.00    +0.017 A 
ATOM      6  C   UNL     1      -1.862   7.409  -3.677  0.00  0.00    +0.025 A 
ATOM      7  C   UNL     1      -1.142   6.602  -4.548  0.00  0.00    +0.043 A 
ATOM      8  N   UNL     1       0.188   6.892  -4.853  0.00  0.00    -0.269 N 
ATOM      9  C   UNL     1       0.924   6.145  -5.686  0.00  0.00    +0.314 C 
ATOM     10  O   UNL     1       2.076   6.474  -5.894  0.00  0.00    -0.252 OA
ATOM     11  N   UNL     1       0.449   5.048  -6.303  0.00  0.00    -0.214 N 
ATOM     12 BR   UNL     1      -5.585   5.593  -3.556  0.00  0.00    -0.050 Br
ATOM     13  H   UNL     1       0.598   7.670  -4.444  0.00  0.00    +0.156 HD
ENDROOT
BRANCH  11  14
ATOM     14  C   UNL     1       1.268   4.308  -7.163  0.00  0.00    +0.041 A 
ATOM     15  C   UNL     1       2.275   3.504  -6.645  0.00  0.00    +0.025 A 
ATOM     16  C   UNL     1       3.078   2.771  -7.496  0.00  0.00    +0.022 A 
ATOM     17  C   UNL     1       2.888   2.845  -8.865  0.00  0.00    +0.041 A 
ATOM     18  C   UNL     1       1.889   3.650  -9.384  0.00  0.00    +0.022 A 
ATOM     19  C   UNL     1       1.079   4.381  -8.537  0.00  0.00    +0.025 A 
ATOM     20 CL   UNL     1       3.904   1.928  -9.932  0.00  0.00    -0.084 Cl
ENDBRANCH  11  14
BRANCH   1  22
ATOM     21  N   UNL     1      -0.281   2.966  -4.362  0.00  0.00    -0.311 N 
ATOM     22  C   UNL     1      -0.926   3.232  -5.515  0.00  0.00    +0.269 C 
ATOM     23  O   UNL     1      -1.491   2.341  -6.112  0.00  0.00    -0.270 OA
ATOM     24  H   UNL     1       0.172   3.679  -3.884  0.00  0.00    +0.149 HD
BRANCH  21  25
ATOM     25  C   UNL     1      -0.263   1.601  -3.830  0.00  0.00    +0.105 C 
BRANCH  25  26
ATOM     26  C   UNL     1       0.531   1.574  -2.522  0.00  0.00    -0.014 C 
ATOM     27  C   UNL     1      -0.196   2.410  -1.467  0.00  0.00    +0.007 C 
BRANCH  26  28
ATOM     28  C   UNL     1       0.656   0.130  -2.031  0.00  0.00    -0.074 C 
BRANCH  28  29
ATOM     29  N   UNL     1       1.467   0.117  -0.796  0.00  0.00    +0.380 N 
ATOM     30  H   UNL     1       1.143   0.869  -0.177  0.00  0.00    -0.082 HD
BRANCH  29  32
ATOM     31  C   UNL     1      -0.075  -1.222   0.548  0.00  0.00    -0.017 C 
ATOM     32  C   UNL     1       1.309  -1.178  -0.102  0.00  0.00    -0.082 C 
ENDBRANCH  29  32
BRANCH  29  33
ATOM     33  C   UNL     1       2.890   0.344  -1.124  0.00  0.00    -0.082 C 
ATOM     34  C   UNL     1       3.670   0.549   0.177  0.00  0.00    -0.017 C 
ENDBRANCH  29  33
ENDBRANCH  28  29
ENDBRANCH  26  28
ENDBRANCH  25  26
ENDBRANCH  21  25
ENDBRANCH   1  22
BRANCH   1  35
ATOM     35  O   UNL     1      -1.619   4.605  -7.321  0.00  0.00    -0.360 OA
ATOM     36  H   UNL     1      -2.532   4.291  -7.270  0.00  0.00    +0.213 HD
ENDBRANCH   1  35
TORSDOF 9
