REMARK  Name = ZINC03869269
REMARK  7 active torsions:
REMARK  status: ('A' for Active; 'I' for Inactive)
REMARK    1  A    between atoms: C_1  and  O_2
REMARK    2  A    between atoms: O_2  and  C_3
REMARK    3  A    between atoms: C_9  and  C_13
REMARK    4  A    between atoms: C_13  and  C_15
REMARK    5  A    between atoms: C_13  and  O_27
REMARK    6  A    between atoms: C_23  and  C_24
REMARK    7  A    between atoms: C_23  and  O_26
REMARK                            x       y       z     vdW  Elec       q    Type
REMARK                         _______ _______ _______ _____ _____    ______ ____
ROOT
ATOM      1  C   UNL     1      -4.135   2.450   4.812  0.00  0.00    +0.132 C 
ENDROOT
BRANCH   1   8
ATOM      2  C   UNL     1      -2.001   2.094   8.504  0.00  0.00    +0.121 A 
ATOM      3  C   UNL     1      -0.718   1.538   8.540  0.00  0.00    +0.048 A 
ATOM      4  C   UNL     1      -0.114   1.097   7.404  0.00  0.00    +0.032 A 
ATOM      5  C   UNL     1      -0.784   1.197   6.171  0.00  0.00    +0.072 A 
ATOM      6  C   UNL     1      -2.084   1.760   6.136  0.00  0.00    +0.009 A 
ATOM      7  C   UNL     1      -2.683   2.202   7.326  0.00  0.00    +0.056 A 
ATOM      8  C   UNL     1      -2.751   1.858   4.900  0.00  0.00    -0.010 A 
ATOM      9  C   UNL     1      -2.110   1.403   3.783  0.00  0.00    +0.026 A 
ATOM     10  C   UNL     1      -0.831   0.861   3.888  0.00  0.00    +0.112 A 
ATOM     11  N   UNL     1      -0.213   0.770   5.041  0.00  0.00    -0.255 NA
BRANCH   2  13
ATOM     12  C   UNL     1      -1.817   2.381  10.857  0.00  0.00    +0.277 C 
ATOM     13  O   UNL     1      -2.578   2.526   9.656  0.00  0.00    -0.495 OA
ENDBRANCH   2  13
ENDBRANCH   1   8
BRANCH   1  14
ATOM     14  C   UNL     1      -4.037   3.913   4.376  0.00  0.00    -0.034 C 
ATOM     15  C   UNL     1      -3.341   4.727   5.471  0.00  0.00    -0.006 C 
ATOM     16  C   UNL     1      -4.298   5.823   5.956  0.00  0.00    +0.020 C 
ATOM     17  C   UNL     1      -5.573   5.158   6.490  0.00  0.00    -0.012 C 
ATOM     18  C   UNL     1      -6.207   4.333   5.367  0.00  0.00    -0.078 C 
ATOM     19  C   UNL     1      -5.331   5.842   3.688  0.00  0.00    -0.039 C 
ATOM     20  C   UNL     1      -4.671   6.711   4.763  0.00  0.00    +0.072 C 
ATOM     21  N   UNL     1      -5.399   4.434   4.133  0.00  0.00    +0.386 N 
ATOM     22  H   UNL     1      -5.844   3.873   3.396  0.00  0.00    -0.081 HD
BRANCH  20  23
ATOM     23  C   UNL     1      -3.428   7.351   4.201  0.00  0.00    -0.002 C 
ATOM     24  C   UNL     1      -3.321   8.656   4.169  0.00  0.00    +0.007 C 
ENDBRANCH  20  23
BRANCH  20  25
ATOM     25  O   UNL     1      -5.585   7.724   5.187  0.00  0.00    -0.386 OA
ATOM     26  H   UNL     1      -5.864   8.323   4.480  0.00  0.00    +0.211 HD
ENDBRANCH  20  25
ENDBRANCH   1  14
BRANCH   1  27
ATOM     27  O   UNL     1      -4.905   1.718   3.856  0.00  0.00    -0.389 OA
ATOM     28  H   UNL     1      -4.584   1.799   2.947  0.00  0.00    +0.210 HD
ENDBRANCH   1  27
TORSDOF 6
