REMARK  Name = ZINC04252106
REMARK  11 active torsions:
REMARK  status: ('A' for Active; 'I' for Inactive)
REMARK    1  A    between atoms: C_1  and  C_2
REMARK    2  A    between atoms: C_2  and  N_3
REMARK    3  A    between atoms: N_3  and  C_4
REMARK    4  A    between atoms: C_4  and  C_5
REMARK    5  A    between atoms: C_6  and  C_8
REMARK    6  A    between atoms: C_11  and  N_14
REMARK    7  A    between atoms: C_15  and  C_17
REMARK    8  A    between atoms: C_17  and  S_18
REMARK    9  A    between atoms: S_18  and  C_19
REMARK   10  A    between atoms: C_21  and  C_25
REMARK   11  A    between atoms: N_23  and  N_24
REMARK                            x       y       z     vdW  Elec       q    Type
REMARK                         _______ _______ _______ _____ _____    ______ ____
ROOT
ATOM      1  N   UNL     1      -3.982   5.206   0.508  0.00  0.00    -0.285 N 
ATOM      2  C   UNL     1      -3.819   6.534   0.678  0.00  0.00    +0.227 C 
ATOM      3  O   UNL     1      -2.706   7.015   0.661  0.00  0.00    -0.275 OA
ATOM      4  H   UNL     1      -4.874   4.831   0.451  0.00  0.00    +0.155 HD
ENDROOT
BRANCH   1   8
ATOM      5  C   UNL     1      -0.653   2.718   0.231  0.00  0.00    +0.037 A 
ATOM      6  C   UNL     1      -1.815   2.266   0.862  0.00  0.00    +0.015 A 
ATOM      7  C   UNL     1      -2.911   3.093   0.958  0.00  0.00    +0.024 A 
ATOM      8  C   UNL     1      -2.867   4.373   0.415  0.00  0.00    +0.033 A 
ATOM      9  C   UNL     1      -1.714   4.825  -0.219  0.00  0.00    +0.024 A 
ATOM     10  C   UNL     1      -0.612   4.005  -0.312  0.00  0.00    +0.015 A 
BRANCH   5  12
ATOM     11  N   UNL     1       0.735   0.883   1.062  0.00  0.00    -0.298 N 
ATOM     12  C   UNL     1       0.527   1.836   0.133  0.00  0.00    +0.247 C 
ATOM     13  O   UNL     1       1.313   1.973  -0.785  0.00  0.00    -0.270 OA
BRANCH  11  15
ATOM     14  C   UNL     1       3.092   0.551   1.625  0.00  0.00    +0.024 C 
ATOM     15  C   UNL     1       1.865  -0.039   0.926  0.00  0.00    +0.104 C 
ENDBRANCH  11  15
BRANCH  11  16
ATOM     16  C   UNL     1      -0.169   0.769   2.210  0.00  0.00    +0.104 C 
ATOM     17  C   UNL     1      -1.043  -0.476   2.049  0.00  0.00    +0.024 C 
ENDBRANCH  11  16
ENDBRANCH   5  12
ENDBRANCH   1   8
BRANCH   2  18
ATOM     18  C   UNL     1      -5.020   7.419   0.888  0.00  0.00    +0.173 C 
BRANCH  18  19
ATOM     19  S   UNL     1      -4.477   9.135   1.083  0.00  0.00    -0.077 S 
BRANCH  19  20
ATOM     20  C   UNL     1      -6.036   9.925   1.306  0.00  0.00    +0.187 A 
ATOM     21  N   UNL     1      -7.203   9.326   1.311  0.00  0.00    -0.221 NA
ATOM     22  C   UNL     1      -8.176  10.251   1.510  0.00  0.00    +0.092 A 
ATOM     23  C   UNL     1      -7.581  11.463   1.631  0.00  0.00    +0.138 A 
ATOM     24  N   UNL     1      -6.228  11.258   1.508  0.00  0.00    -0.251 N 
BRANCH  22  25
ATOM     25  C   UNL     1      -9.633   9.982   1.581  0.00  0.00    +0.002 A 
ATOM     26  C   UNL     1     -10.527  11.029   1.796  0.00  0.00    +0.010 A 
ATOM     27  C   UNL     1     -11.883  10.774   1.855  0.00  0.00    +0.001 A 
ATOM     28  C   UNL     1     -12.352   9.481   1.714  0.00  0.00    +0.000 A 
ATOM     29  C   UNL     1     -11.469   8.437   1.506  0.00  0.00    +0.001 A 
ATOM     30  C   UNL     1     -10.112   8.681   1.439  0.00  0.00    +0.010 A 
ENDBRANCH  22  25
BRANCH  24  31
ATOM     31  N   UNL     1      -5.256  12.215   1.574  0.00  0.00    -0.296 N 
ATOM     32  H   UNL     1      -5.065  12.600   0.661  0.00  0.00    +0.163 HD
ATOM     33  H   UNL     1      -5.507  12.942   2.227  0.00  0.00    +0.163 HD
ENDBRANCH  24  31
ENDBRANCH  19  20
ENDBRANCH  18  19
ENDBRANCH   2  18
TORSDOF 9
