REMARK  Name = ZINC09762445
REMARK  8 active torsions:
REMARK  status: ('A' for Active; 'I' for Inactive)
REMARK    1  A    between atoms: C_1  and  O_2
REMARK    2  A    between atoms: O_2  and  C_3
REMARK    3  A    between atoms: C_6  and  N_9
REMARK    4  A    between atoms: C_10  and  C_12
REMARK    5  A    between atoms: N_17  and  C_28
REMARK    6  A    between atoms: N_19  and  C_20
REMARK    7  A    between atoms: C_28  and  C_29
REMARK    8  A    between atoms: C_29  and  C_30
REMARK                            x       y       z     vdW  Elec       q    Type
REMARK                         _______ _______ _______ _____ _____    ______ ____
ROOT
ATOM      1  C   UNL     1      -1.121  -2.197   0.216  0.00  0.00    +0.149 C 
ATOM      2  C   UNL     1      -2.345  -2.785  -0.486  0.00  0.00    +0.120 C 
ATOM      3  C   UNL     1      -2.457  -4.259  -0.279  0.00  0.00    +0.223 C 
ATOM      4  O   UNL     1      -3.066  -4.878  -1.126  0.00  0.00    -0.275 OA
ATOM      5  N   UNL     1      -1.965  -4.967   0.730  0.00  0.00    -0.250 N 
ATOM      6  C   UNL     1      -1.175  -4.441   1.732  0.00  0.00    +0.164 C 
ATOM      7  N   UNL     1      -0.447  -5.223   2.495  0.00  0.00    -0.226 NA
ATOM      8  S   UNL     1      -1.170  -2.688   1.964  0.00  0.00    -0.077 S 
ENDROOT
BRANCH   7   9
ATOM      9  C   UNL     1       0.330  -4.683   3.485  0.00  0.00    +0.067 A 
ATOM     10  C   UNL     1       1.115  -3.558   3.225  0.00  0.00    +0.029 A 
ATOM     11  C   UNL     1       1.891  -3.015   4.229  0.00  0.00    +0.022 A 
ATOM     12  C   UNL     1       1.901  -3.591   5.488  0.00  0.00    +0.041 A 
ATOM     13  C   UNL     1       1.129  -4.710   5.750  0.00  0.00    +0.022 A 
ATOM     14  C   UNL     1       0.344  -5.259   4.757  0.00  0.00    +0.029 A 
ATOM     15 CL   UNL     1       2.886  -2.907   6.743  0.00  0.00    -0.084 Cl
ENDBRANCH   7   9
BRANCH   1  17
ATOM     16  N   UNL     1       0.002  -0.004   0.002  0.00  0.00    -0.285 N 
ATOM     17  C   UNL     1      -1.150  -0.694   0.111  0.00  0.00    +0.231 C 
ATOM     18  O   UNL     1      -2.211  -0.106   0.124  0.00  0.00    -0.274 OA
ATOM     19  H   UNL     1       0.844  -0.477  -0.086  0.00  0.00    +0.155 HD
BRANCH  16  23
ATOM     20  C   UNL     1      -0.052   4.165   0.043  0.00  0.00    +0.120 A 
ATOM     21  C   UNL     1      -0.977   3.452   0.792  0.00  0.00    +0.047 A 
ATOM     22  C   UNL     1      -0.960   2.072   0.778  0.00  0.00    +0.027 A 
ATOM     23  C   UNL     1      -0.016   1.397   0.015  0.00  0.00    +0.034 A 
ATOM     24  C   UNL     1       0.912   2.111  -0.730  0.00  0.00    +0.027 A 
ATOM     25  C   UNL     1       0.890   3.492  -0.720  0.00  0.00    +0.047 A 
BRANCH  20  27
ATOM     26  C   UNL     1       0.911   6.194  -0.738  0.00  0.00    +0.277 C 
ATOM     27  O   UNL     1      -0.070   5.525   0.056  0.00  0.00    -0.495 OA
ENDBRANCH  20  27
ENDBRANCH  16  23
ENDBRANCH   1  17
BRANCH   5  28
ATOM     28  C   UNL     1      -2.279  -6.397   0.781  0.00  0.00    +0.120 C 
BRANCH  28  29
ATOM     29  C   UNL     1      -3.568  -6.607   1.578  0.00  0.00    +0.054 C 
BRANCH  29  30
ATOM     30  C   UNL     1      -3.891  -8.079   1.632  0.00  0.00    -0.046 A 
ATOM     31  C   UNL     1      -4.683  -8.648   0.652  0.00  0.00    +0.006 A 
ATOM     32  C   UNL     1      -4.975  -9.998   0.697  0.00  0.00    +0.038 A 
ATOM     33  C   UNL     1      -4.484 -10.778   1.730  0.00  0.00    +0.123 A 
ATOM     34  C   UNL     1      -3.695 -10.205   2.714  0.00  0.00    +0.038 A 
ATOM     35  C   UNL     1      -3.399  -8.856   2.663  0.00  0.00    +0.006 A 
ATOM     36  F   UNL     1      -4.773 -12.097   1.778  0.00  0.00    -0.205 F 
ENDBRANCH  29  30
ENDBRANCH  28  29
ENDBRANCH   5  28
TORSDOF 7
