REMARK  Name = ZINC02191623
REMARK  6 active torsions:
REMARK  status: ('A' for Active; 'I' for Inactive)
REMARK    1  A    between atoms: C_11  and  C_22
REMARK    2  A    between atoms: C_13  and  C_15
REMARK    3  A    between atoms: C_20  and  O_21
REMARK    4  A    between atoms: C_25  and  O_28
REMARK    5  A    between atoms: O_28  and  C_29
REMARK    6  A    between atoms: C_29  and  C_30
REMARK                            x       y       z     vdW  Elec       q    Type
REMARK                         _______ _______ _______ _____ _____    ______ ____
ROOT
ATOM      1  C   UNL     1       0.505   1.353  -2.264  0.00  0.00    +0.001 A 
ATOM      2  C   UNL     1       1.567   2.085  -1.745  0.00  0.00    +0.001 A 
ATOM      3  C   UNL     1       2.650   1.456  -1.200  0.00  0.00    +0.009 A 
ATOM      4  C   UNL     1       2.692   0.060  -1.162  0.00  0.00    -0.008 A 
ATOM      5  C   UNL     1       1.613  -0.688  -1.688  0.00  0.00    -0.017 A 
ATOM      6  C   UNL     1       0.517  -0.011  -2.241  0.00  0.00    +0.008 A 
ATOM      7  C   UNL     1       1.654  -2.100  -1.651  0.00  0.00    +0.010 A 
ATOM      8  C   UNL     1       2.704  -2.760  -1.121  0.00  0.00    +0.029 A 
ATOM      9  C   UNL     1       3.814  -2.069  -0.578  0.00  0.00    +0.073 A 
ATOM     10  C   UNL     1       3.829  -0.658  -0.588  0.00  0.00    +0.016 A 
ATOM     11  C   UNL     1       4.937   0.028  -0.046  0.00  0.00    -0.006 A 
ATOM     12  C   UNL     1       5.978  -0.728   0.480  0.00  0.00    +0.037 A 
ATOM     13  C   UNL     1       5.893  -2.123   0.454  0.00  0.00    +0.076 A 
ATOM     14  N   UNL     1       4.843  -2.742  -0.060  0.00  0.00    -0.247 NA
ENDROOT
BRANCH  13  15
ATOM     15  C   UNL     1       7.004  -2.927   1.015  0.00  0.00    +0.042 A 
ATOM     16  C   UNL     1       8.117  -2.294   1.566  0.00  0.00    +0.013 A 
ATOM     17  C   UNL     1       9.148  -3.047   2.088  0.00  0.00    +0.001 A 
ATOM     18  C   UNL     1       9.083  -4.430   2.066  0.00  0.00    +0.004 A 
ATOM     19  C   UNL     1       7.985  -5.067   1.521  0.00  0.00    +0.046 A 
ATOM     20  C   UNL     1       6.938  -4.324   0.999  0.00  0.00    +0.126 A 
BRANCH  20  21
ATOM     21  O   UNL     1       5.856  -4.949   0.469  0.00  0.00    -0.506 OA
ATOM     22  H   UNL     1       5.935  -5.140  -0.476  0.00  0.00    +0.292 HD
ENDBRANCH  20  21
ENDBRANCH  13  15
BRANCH  11  23
ATOM     23  C   UNL     1       4.989   1.508  -0.039  0.00  0.00    -0.017 A 
ATOM     24  C   UNL     1       4.251   2.229   0.901  0.00  0.00    +0.012 A 
ATOM     25  C   UNL     1       4.302   3.606   0.905  0.00  0.00    +0.046 A 
ATOM     26  C   UNL     1       5.085   4.277  -0.025  0.00  0.00    +0.121 A 
ATOM     27  C   UNL     1       5.820   3.563  -0.962  0.00  0.00    +0.046 A 
ATOM     28  C   UNL     1       5.779   2.185  -0.968  0.00  0.00    +0.012 A 
BRANCH  26  29
ATOM     29  O   UNL     1       5.132   5.635  -0.018  0.00  0.00    -0.487 OA
BRANCH  29  30
ATOM     30  C   UNL     1       5.958   6.260  -1.003  0.00  0.00    +0.267 C 
BRANCH  30  31
ATOM     31  C   UNL     1       5.885   7.757  -0.843  0.00  0.00    +0.025 A 
ATOM     32  C   UNL     1       5.101   8.308   0.154  0.00  0.00    +0.010 A 
ATOM     33  C   UNL     1       5.034   9.681   0.301  0.00  0.00    +0.001 A 
ATOM     34  C   UNL     1       5.750  10.504  -0.548  0.00  0.00    +0.003 A 
ATOM     35  C   UNL     1       6.534   9.955  -1.545  0.00  0.00    +0.039 A 
ATOM     36  C   UNL     1       6.606   8.580  -1.690  0.00  0.00    +0.130 A 
ATOM     37  F   UNL     1       7.376   8.042  -2.661  0.00  0.00    -0.205 F 
ENDBRANCH  30  31
ENDBRANCH  29  30
ENDBRANCH  26  29
ENDBRANCH  11  23
TORSDOF 6
