REMARK  Name = ZINC20985033
REMARK  7 active torsions:
REMARK  status: ('A' for Active; 'I' for Inactive)
REMARK    1  A    between atoms: C_3  and  C_8
REMARK    2  A    between atoms: C_8  and  N_9
REMARK    3  A    between atoms: C_12  and  C_15
REMARK    4  A    between atoms: C_15  and  N_16
REMARK    5  A    between atoms: N_16  and  S_17
REMARK    6  A    between atoms: S_17  and  C_20
REMARK    7  A    between atoms: C_23  and  C_25
REMARK                            x       y       z     vdW  Elec       q    Type
REMARK                         _______ _______ _______ _____ _____    ______ ____
ROOT
ATOM      1  N   UNL     1      -3.348  -1.915   5.828  0.00  0.00    -0.189 NA
ATOM      2  H   UNL     1      -2.874  -2.731   5.263  0.00  0.00    +0.148 HD
ENDROOT
BRANCH   1   3
ATOM      3  S   UNL     1      -3.302  -1.944   7.483  0.00  0.00    +0.065 S 
ATOM      4  O   UNL     1      -2.427  -3.003   7.846  0.00  0.00    -0.153 OA
ATOM      5  O   UNL     1      -3.094  -0.604   7.908  0.00  0.00    -0.153 OA
BRANCH   3   6
ATOM      6  C   UNL     1      -4.909  -2.405   8.040  0.00  0.00    +0.143 A 
ATOM      7  C   UNL     1      -5.406  -3.646   8.279  0.00  0.00    +0.037 A 
ATOM      8  C   UNL     1      -6.705  -3.775   8.718  0.00  0.00    +0.020 A 
ATOM      9  C   UNL     1      -7.458  -2.644   8.890  0.00  0.00    +0.041 A 
ATOM     10  S   UNL     1      -6.304  -1.361   8.429  0.00  0.00    -0.067 S 
BRANCH   9  11
ATOM     11  C   UNL     1      -8.859  -2.517   9.341  0.00  0.00    +0.098 A 
ATOM     12  C   UNL     1      -9.452  -1.235   9.451  0.00  0.00    +0.036 A 
ATOM     13  C   UNL     1     -10.747  -1.158   9.870  0.00  0.00    +0.073 A 
ATOM     14  C   UNL     1     -11.419  -2.364  10.168  0.00  0.00    +0.265 A 
ATOM     15  O   UNL     1     -12.580  -2.344  10.546  0.00  0.00    -0.266 OA
ATOM     16  N   UNL     1     -10.772  -3.537  10.033  0.00  0.00    -0.243 N 
ATOM     17  H   UNL     1     -11.287  -4.480  10.268  0.00  0.00    +0.192 HD
ATOM     18  N   UNL     1      -9.553  -3.594   9.632  0.00  0.00    -0.170 NA
ENDBRANCH   9  11
ENDBRANCH   3   6
ENDBRANCH   1   3
BRANCH   1  19
ATOM     19  C   UNL     1      -4.192  -0.938   5.136  0.00  0.00    +0.109 C 
BRANCH  19  23
ATOM     20  N   UNL     1      -2.928   0.720   1.405  0.00  0.00    +0.382 N 
ATOM     21  C   UNL     1      -1.980  -0.176   2.079  0.00  0.00    -0.078 C 
ATOM     22  C   UNL     1      -2.360  -0.306   3.555  0.00  0.00    -0.014 C 
ATOM     23  C   UNL     1      -3.783  -0.862   3.664  0.00  0.00    +0.001 C 
ATOM     24  C   UNL     1      -4.743   0.064   2.912  0.00  0.00    -0.014 C 
ATOM     25  C   UNL     1      -4.293   0.183   1.454  0.00  0.00    -0.078 C 
ATOM     26  H   UNL     1      -2.924   1.679   1.944  0.00  0.00    -0.081 HD
BRANCH  20  27
ATOM     27  C   UNL     1      -2.514   0.979   0.019  0.00  0.00    -0.043 C 
BRANCH  27  30
ATOM     28  C   UNL     1       1.175   1.783   0.000  0.00  0.00    +0.002 A 
ATOM     29  C   UNL     1      -0.013   1.076   0.008  0.00  0.00    +0.002 A 
ATOM     30  C   UNL     1      -1.219   1.750   0.017  0.00  0.00    -0.063 A 
ATOM     31  C   UNL     1      -1.238   3.132   0.030  0.00  0.00    +0.021 A 
ATOM     32  C   UNL     1      -0.050   3.841   0.022  0.00  0.00    +0.041 A 
ATOM     33  C   UNL     1       1.157   3.165   0.007  0.00  0.00    +0.020 A 
ATOM     34 CL   UNL     1      -0.074   5.577   0.030  0.00  0.00    -0.084 Cl
ENDBRANCH  27  30
ENDBRANCH  20  27
ENDBRANCH  19  23
ENDBRANCH   1  19
TORSDOF 7
