REMARK  Name = ZINC40891352
REMARK  9 active torsions:
REMARK  status: ('A' for Active; 'I' for Inactive)
REMARK    1  A    between atoms: C_1  and  C_2
REMARK    2  A    between atoms: C_6  and  C_8
REMARK    3  A    between atoms: C_8  and  O_10
REMARK    4  A    between atoms: O_10  and  C_11
REMARK    5  A    between atoms: C_16  and  C_22
REMARK    6  A    between atoms: N_24  and  C_25
REMARK    7  A    between atoms: C_25  and  C_26
REMARK    8  A    between atoms: C_26  and  C_27
REMARK    9  A    between atoms: C_26  and  C_28
REMARK                            x       y       z     vdW  Elec       q    Type
REMARK                         _______ _______ _______ _____ _____    ______ ____
ROOT
ATOM      1  C   UNL     1       0.120  -4.926   3.584  0.00  0.00    +0.135 A 
ATOM      2  C   UNL     1       0.074  -4.284   4.822  0.00  0.00    +0.047 A 
ATOM      3  C   UNL     1       0.135  -5.004   5.977  0.00  0.00    +0.015 A 
ATOM      4  C   UNL     1       0.254  -6.402   5.925  0.00  0.00    +0.019 A 
ATOM      5  C   UNL     1       0.354  -7.160   7.117  0.00  0.00    +0.031 A 
ATOM      6  C   UNL     1       0.671  -8.509   7.011  0.00  0.00    +0.122 A 
ATOM      7  C   UNL     1       0.912  -9.043   5.659  0.00  0.00    +0.350 A 
ATOM      8  O   UNL     1       1.614 -10.022   5.485  0.00  0.00    -0.244 OA
ATOM      9  O   UNL     1       0.326  -8.408   4.618  0.00  0.00    -0.422 OA
ATOM     10  C   UNL     1       0.271  -7.056   4.676  0.00  0.00    +0.143 A 
ATOM     11  C   UNL     1       0.210  -6.307   3.512  0.00  0.00    +0.093 A 
ENDROOT
BRANCH   6  12
ATOM     12  C   UNL     1       0.761  -9.370   8.201  0.00  0.00    +0.251 C 
ATOM     13  O   UNL     1       0.557  -8.903   9.306  0.00  0.00    -0.270 OA
ATOM     14  N   UNL     1       1.071 -10.675   8.067  0.00  0.00    -0.311 N 
ATOM     15  H   UNL     1       1.234 -11.047   7.186  0.00  0.00    +0.149 HD
BRANCH  14  16
ATOM     16  C   UNL     1       1.161 -11.531   9.252  0.00  0.00    +0.107 C 
BRANCH  16  17
ATOM     17  C   UNL     1       1.524 -12.955   8.825  0.00  0.00    -0.000 C 
ATOM     18  C   UNL     1       1.740 -13.821  10.069  0.00  0.00    +0.009 C 
ATOM     19  C   UNL     1       0.386 -13.542   7.987  0.00  0.00    +0.009 C 
ENDBRANCH  16  17
ENDBRANCH  14  16
ENDBRANCH   6  12
BRANCH   1  20
ATOM     20  O   UNL     1       0.071  -4.193   2.443  0.00  0.00    -0.422 OA
BRANCH  20  21
ATOM     21  C   UNL     1       1.190  -3.550   2.056  0.00  0.00    +0.344 C 
ATOM     22  O   UNL     1       2.175  -3.562   2.767  0.00  0.00    -0.245 OA
BRANCH  21  28
ATOM     23  C   UNL     1       3.646  -0.770  -1.281  0.00  0.00    +0.044 C 
ATOM     24  C   UNL     1       2.397  -1.490  -0.843  0.00  0.00    -0.050 A 
ATOM     25  C   UNL     1       1.274  -1.478  -1.650  0.00  0.00    +0.003 A 
ATOM     26  C   UNL     1       0.123  -2.138  -1.256  0.00  0.00    +0.001 A 
ATOM     27  C   UNL     1       0.089  -2.813  -0.053  0.00  0.00    +0.015 A 
ATOM     28  C   UNL     1       1.219  -2.829   0.767  0.00  0.00    +0.060 A 
ATOM     29  C   UNL     1       2.379  -2.166   0.360  0.00  0.00    +0.018 A 
ENDBRANCH  21  28
ENDBRANCH  20  21
ENDBRANCH   1  20
TORSDOF 6
