REMARK  Name = ZINC01430168
REMARK  3 active torsions:
REMARK  status: ('A' for Active; 'I' for Inactive)
REMARK    1  A    between atoms: C_5  and  C_7
REMARK    2  A    between atoms: N_12  and  C_20
REMARK    3  A    between atoms: C_21  and  C_30
REMARK                            x       y       z     vdW  Elec       q    Type
REMARK                         _______ _______ _______ _____ _____    ______ ____
ROOT
ATOM      1  C   UNL     1      -4.915   0.587   0.979  0.00  0.00    +0.065 C 
ATOM      2  C   UNL     1      -4.102  -0.266   0.001  0.00  0.00    +0.109 C 
ATOM      3  C   UNL     1      -2.706   0.297  -0.096  0.00  0.00    +0.225 C 
ATOM      4  O   UNL     1      -1.763  -0.444  -0.273  0.00  0.00    -0.275 OA
ATOM      5  N   UNL     1      -2.508   1.623   0.021  0.00  0.00    -0.236 N 
ATOM      6  C   UNL     1      -3.572   2.486   0.135  0.00  0.00    +0.026 C 
ATOM      7  C   UNL     1      -4.757   2.043   0.606  0.00  0.00    +0.021 C 
ATOM      8  C   UNL     1      -5.857   2.905   0.749  0.00  0.00    +0.161 C 
ATOM      9  O   UNL     1      -6.900   2.475   1.199  0.00  0.00    -0.292 OA
ATOM     10  C   UNL     1      -5.760   4.354   0.352  0.00  0.00    +0.080 C 
ATOM     11  C   UNL     1      -4.721   4.495  -0.765  0.00  0.00    +0.014 C 
ATOM     12  C   UNL     1      -3.389   3.927  -0.269  0.00  0.00    +0.052 C 
ENDROOT
BRANCH   5  13
ATOM     13  C   UNL     1      -1.212   2.127   0.019  0.00  0.00    +0.097 A 
ATOM     14  C   UNL     1      -0.409   2.438   1.103  0.00  0.00    +0.084 A 
ATOM     15  C   UNL     1       0.927   2.948   0.833  0.00  0.00    -0.018 A 
ATOM     16  C   UNL     1       1.233   3.078  -0.477  0.00  0.00    -0.004 A 
ATOM     17  S   UNL     1      -0.212   2.521  -1.338  0.00  0.00    -0.076 S 
ATOM     18  C   UNL     1       2.509   3.585  -1.074  0.00  0.00    +0.043 C 
ATOM     19  C   UNL     1       3.695   2.875  -0.408  0.00  0.00    +0.005 C 
ATOM     20  C   UNL     1       4.117   3.682   0.816  0.00  0.00    +0.001 C 
ATOM     21  C   UNL     1       2.898   4.348   1.453  0.00  0.00    +0.005 C 
ATOM     22  C   UNL     1       1.911   3.295   1.944  0.00  0.00    +0.037 C 
BRANCH  14  23
ATOM     23  C   UNL     1      -0.875   2.257   2.445  0.00  0.00    +0.102 C 
ATOM     24  N   UNL     1      -1.244   2.115   3.510  0.00  0.00    -0.191 NA
ENDBRANCH  14  23
ENDBRANCH   5  13
BRANCH   1  29
ATOM     25  C   UNL     1      -8.386  -0.040  -0.368  0.00  0.00    +0.000 A 
ATOM     26  C   UNL     1      -9.040  -0.507   0.757  0.00  0.00    +0.003 A 
ATOM     27  C   UNL     1      -8.360  -0.620   1.955  0.00  0.00    +0.038 A 
ATOM     28  C   UNL     1      -7.023  -0.266   2.028  0.00  0.00    +0.127 A 
ATOM     29  C   UNL     1      -6.370   0.201   0.901  0.00  0.00    -0.004 A 
ATOM     30  C   UNL     1      -7.053   0.319  -0.294  0.00  0.00    +0.007 A 
ATOM     31  F   UNL     1      -6.358  -0.377   3.199  0.00  0.00    -0.205 F 
ENDBRANCH   1  29
TORSDOF 3
