REMARK  Name = ZINC46793645
REMARK  8 active torsions:
REMARK  status: ('A' for Active; 'I' for Inactive)
REMARK    1  A    between atoms: C_1  and  C_2
REMARK    2  A    between atoms: C_2  and  C_3
REMARK    3  A    between atoms: C_2  and  C_4
REMARK    4  A    between atoms: C_2  and  C_5
REMARK    5  A    between atoms: N_13  and  C_17
REMARK    6  A    between atoms: C_17  and  C_18
REMARK    7  A    between atoms: N_20  and  C_21
REMARK    8  A    between atoms: C_24  and  N_28
REMARK                            x       y       z     vdW  Elec       q    Type
REMARK                         _______ _______ _______ _____ _____    ______ ____
ROOT
ATOM      1  C   UNL     1       6.764  -2.936  -4.460  0.00  0.00    +0.235 C 
ATOM      2  O   UNL     1       6.754  -1.809  -4.012  0.00  0.00    -0.274 OA
ATOM      3  N   UNL     1       7.794  -3.346  -5.227  0.00  0.00    -0.284 N 
ATOM      4  H   UNL     1       7.836  -4.266  -5.530  0.00  0.00    +0.155 HD
ENDROOT
BRANCH   3   5
ATOM      5  C   UNL     1       8.804  -2.443  -5.586  0.00  0.00    +0.035 A 
ATOM      6  C   UNL     1       9.404  -2.533  -6.835  0.00  0.00    +0.025 A 
ATOM      7  C   UNL     1      10.400  -1.645  -7.189  0.00  0.00    +0.026 A 
ATOM      8  C   UNL     1      10.801  -0.660  -6.296  0.00  0.00    +0.049 A 
ATOM      9  C   UNL     1      10.200  -0.569  -5.046  0.00  0.00    +0.064 A 
ATOM     10  C   UNL     1       9.200  -1.455  -4.695  0.00  0.00    +0.045 A 
ATOM     11 CL   UNL     1      10.702   0.662  -3.929  0.00  0.00    -0.082 Cl
BRANCH   8  12
ATOM     12  N   UNL     1      11.811   0.241  -6.655  0.00  0.00    -0.318 N 
ATOM     13  C   UNL     1      13.229  -0.050  -6.384  0.00  0.00    +0.124 C 
ATOM     14  C   UNL     1      13.969  -0.106  -7.721  0.00  0.00    +0.123 C 
ATOM     15  N   UNL     1      13.608   1.030  -8.559  0.00  0.00    -0.313 N 
ATOM     16  C   UNL     1      12.490   1.744  -8.425  0.00  0.00    +0.230 C 
ATOM     17  O   UNL     1      12.262   2.619  -9.234  0.00  0.00    -0.274 OA
ATOM     18  C   UNL     1      11.499   1.513  -7.323  0.00  0.00    +0.200 C 
ATOM     19  H   UNL     1      14.225   1.284  -9.263  0.00  0.00    +0.149 HD
ENDBRANCH   8  12
ENDBRANCH   3   5
BRANCH   1  20
ATOM     20  C   UNL     1       5.626  -3.877  -4.161  0.00  0.00    +0.214 C 
BRANCH  20  29
ATOM     21  C   UNL     1       0.710  -0.502  -1.268  0.00  0.00    -0.005 C 
ATOM     22  C   UNL     1       0.735  -2.032  -1.267  0.00  0.00    +0.006 C 
ATOM     23  C   UNL     1       1.443  -2.530  -2.530  0.00  0.00    +0.035 C 
ATOM     24  C   UNL     1       2.865  -1.982  -2.566  0.00  0.00    +0.113 C 
ATOM     25  C   UNL     1       2.857  -0.457  -2.546  0.00  0.00    +0.035 C 
ATOM     26  C   UNL     1       2.143   0.033  -1.283  0.00  0.00    +0.006 C 
ATOM     27  C   UNL     1       3.596  -2.489  -3.788  0.00  0.00    +0.247 C 
ATOM     28  O   UNL     1       3.304  -2.298  -4.950  0.00  0.00    -0.273 OA
ATOM     29  N   UNL     1       4.641  -3.198  -3.315  0.00  0.00    -0.215 N 
ATOM     30  C   UNL     1       4.666  -3.205  -1.977  0.00  0.00    +0.310 C 
ATOM     31  O   UNL     1       5.514  -3.777  -1.320  0.00  0.00    -0.252 OA
ATOM     32  N   UNL     1       3.648  -2.507  -1.440  0.00  0.00    -0.285 N 
ATOM     33  H   UNL     1       3.466  -2.376  -0.496  0.00  0.00    +0.151 HD
BRANCH  21  35
ATOM     34  C   UNL     1      -0.034   1.526  -0.012  0.00  0.00    +0.011 C 
ATOM     35  C   UNL     1      -0.007  -0.004  -0.011  0.00  0.00    -0.035 C 
ATOM     36  C   UNL     1       0.737  -0.500   1.231  0.00  0.00    +0.011 C 
ATOM     37  C   UNL     1      -1.440  -0.540   0.004  0.00  0.00    +0.011 C 
ENDBRANCH  21  35
ENDBRANCH  20  29
ENDBRANCH   1  20
TORSDOF 5
