REMARK  Name = ZINC38747548
REMARK  5 active torsions:
REMARK  status: ('A' for Active; 'I' for Inactive)
REMARK    1  A    between atoms: C_1  and  C_2
REMARK    2  A    between atoms: C_10  and  S_14
REMARK    3  A    between atoms: S_14  and  C_15
REMARK    4  A    between atoms: C_15  and  C_16
REMARK    5  A    between atoms: C_16  and  C_18
REMARK                            x       y       z     vdW  Elec       q    Type
REMARK                         _______ _______ _______ _____ _____    ______ ____
ROOT
ATOM      1  C   UNL     1      -0.019   1.526   0.010  0.00  0.00    +0.007 C 
ATOM      2  C   UNL     1       0.002  -0.004   0.002  0.00  0.00    -0.012 C 
ATOM      3  C   UNL     1      -1.433  -0.525  -0.005  0.00  0.00    +0.008 C 
ATOM      4  C   UNL     1      -2.203   0.012   1.209  0.00  0.00    +0.033 C 
ATOM      5  C   UNL     1      -1.371  -0.335   2.442  0.00  0.00    -0.042 C 
ATOM      6  C   UNL     1      -1.821  -1.009   3.497  0.00  0.00    +0.071 C 
ATOM      7  C   UNL     1      -0.840  -1.434   4.533  0.00  0.00    +0.112 C 
ATOM      8  N   UNL     1      -1.185  -2.138   5.580  0.00  0.00    -0.217 NA
ATOM      9  C   UNL     1      -2.478  -2.475   5.706  0.00  0.00    +0.182 C 
ATOM     10  N   UNL     1      -3.432  -2.156   4.853  0.00  0.00    -0.151 NA
ATOM     11  C   UNL     1      -3.240  -1.445   3.732  0.00  0.00    +0.272 C 
ATOM     12  O   UNL     1      -4.147  -1.172   2.964  0.00  0.00    -0.268 OA
ATOM     13  S   UNL     1       0.704  -0.777   3.985  0.00  0.00    -0.097 S 
ATOM     14  C   UNL     1       0.100   0.085   2.483  0.00  0.00    +0.080 C 
ATOM     15  C   UNL     1       0.760  -0.504   1.236  0.00  0.00    +0.022 C 
ENDROOT
BRANCH   9  16
ATOM     16  S   UNL     1      -2.938  -3.418   7.122  0.00  0.00    -0.081 S 
BRANCH  16  17
ATOM     17  C   UNL     1      -4.724  -3.663   6.926  0.00  0.00    +0.156 C 
BRANCH  17  18
ATOM     18  C   UNL     1      -5.252  -4.467   8.086  0.00  0.00    +0.173 C 
ATOM     19  O   UNL     1      -4.497  -4.838   8.959  0.00  0.00    -0.291 OA
BRANCH  18  20
ATOM     20  C   UNL     1      -6.683  -4.801   8.159  0.00  0.00    +0.018 A 
ATOM     21  C   UNL     1      -7.556  -4.379   7.151  0.00  0.00    +0.012 A 
ATOM     22  C   UNL     1      -8.895  -4.696   7.226  0.00  0.00    +0.016 A 
ATOM     23  C   UNL     1      -9.377  -5.430   8.297  0.00  0.00    +0.018 A 
ATOM     24  C   UNL     1      -8.519  -5.851   9.300  0.00  0.00    +0.016 A 
ATOM     25  C   UNL     1      -7.176  -5.547   9.235  0.00  0.00    +0.012 A 
ATOM     26 BR   UNL     1     -11.216  -5.859   8.392  0.00  0.00    -0.050 Br
ENDBRANCH  18  20
ENDBRANCH  17  18
ENDBRANCH  16  17
ENDBRANCH   9  16
TORSDOF 4
