REMARK  Name = ZINC66859360
REMARK  13 active torsions:
REMARK  status: ('A' for Active; 'I' for Inactive)
REMARK    1  A    between atoms: C_1  and  C_2
REMARK    2  A    between atoms: C_2  and  N_3
REMARK    3  A    between atoms: N_3  and  C_4
REMARK    4  A    between atoms: N_3  and  S_23
REMARK    5  A    between atoms: N_7  and  C_10
REMARK    6  A    between atoms: C_10  and  C_11
REMARK    7  A    between atoms: C_13  and  C_19
REMARK    8  A    between atoms: C_15  and  O_18
REMARK    9  A    between atoms: C_16  and  O_17
REMARK   10  A    between atoms: C_19  and  C_20
REMARK   11  A    between atoms: C_19  and  C_21
REMARK   12  A    between atoms: C_19  and  C_22
REMARK   13  A    between atoms: S_23  and  C_26
REMARK                            x       y       z     vdW  Elec       q    Type
REMARK                         _______ _______ _______ _____ _____    ______ ____
ROOT
ATOM      1  C   UNL     1       6.041  -0.643   0.908  0.00  0.00    -0.039 C 
ENDROOT
BRANCH   1   5
ATOM      2  C   UNL     1       2.245  -0.598  -1.026  0.00  0.00    +0.076 C 
ATOM      3  C   UNL     1       2.851   0.717  -0.526  0.00  0.00    +0.002 C 
ATOM      4  C   UNL     1       4.357   0.534  -0.326  0.00  0.00    -0.077 C 
ATOM      5  N   UNL     1       4.598  -0.525   0.662  0.00  0.00    +0.383 N 
ATOM      6  C   UNL     1       4.083  -1.803   0.157  0.00  0.00    -0.077 C 
ATOM      7  C   UNL     1       2.566  -1.710  -0.025  0.00  0.00    +0.002 C 
ATOM      8  H   UNL     1       4.129  -0.291   1.524  0.00  0.00    -0.081 HD
BRANCH   2   9
ATOM      9  N   UNL     1       0.792  -0.452  -1.147  0.00  0.00    -0.179 NA
BRANCH   9  10
ATOM     10  S   UNL     1       0.074  -0.526  -2.638  0.00  0.00    +0.029 S 
ATOM     11  O   UNL     1       0.957  -1.312  -3.427  0.00  0.00    -0.158 OA
ATOM     12  O   UNL     1      -1.253  -0.966  -2.380  0.00  0.00    -0.158 OA
ATOM     13  C   UNL     1       0.060   1.187  -3.234  0.00  0.00    +0.215 C 
ENDBRANCH   9  10
BRANCH   9  15
ATOM     14  C   UNL     1      -0.406  -1.596   0.652  0.00  0.00    +0.022 C 
ATOM     15  C   UNL     1      -0.026  -0.242   0.050  0.00  0.00    +0.106 C 
ENDBRANCH   9  15
ENDBRANCH   2   9
ENDBRANCH   1   5
BRANCH   1  16
ATOM     16  C   UNL     1       6.282  -1.643   2.010  0.00  0.00    -0.019 A 
ATOM     17  C   UNL     1       6.768  -2.901   1.707  0.00  0.00    +0.009 A 
ATOM     18  C   UNL     1       6.990  -3.821   2.715  0.00  0.00    -0.038 A 
ATOM     19  C   UNL     1       6.728  -3.486   4.031  0.00  0.00    +0.053 A 
ATOM     20  C   UNL     1       6.241  -2.226   4.341  0.00  0.00    +0.159 A 
ATOM     21  C   UNL     1       6.023  -1.298   3.326  0.00  0.00    +0.160 A 
BRANCH  18  22
ATOM     22  C   UNL     1       7.520  -5.191   2.379  0.00  0.00    -0.013 C 
ATOM     23  C   UNL     1       8.881  -5.058   1.692  0.00  0.00    +0.015 C 
ATOM     24  C   UNL     1       7.675  -6.006   3.665  0.00  0.00    +0.015 C 
ATOM     25  C   UNL     1       6.542  -5.900   1.440  0.00  0.00    +0.015 C 
ENDBRANCH  18  22
BRANCH  21  26
ATOM     26  O   UNL     1       5.551  -0.059   3.626  0.00  0.00    -0.503 OA
ATOM     27  H   UNL     1       4.586   0.004   3.627  0.00  0.00    +0.292 HD
ENDBRANCH  21  26
BRANCH  20  28
ATOM     28  O   UNL     1       5.982  -1.895   5.634  0.00  0.00    -0.503 OA
ATOM     29  H   UNL     1       6.734  -1.502   6.098  0.00  0.00    +0.292 HD
ENDBRANCH  20  28
ENDBRANCH   1  16
TORSDOF 8
