REMARK  Name = ZINC38826251
REMARK  5 active torsions:
REMARK  status: ('A' for Active; 'I' for Inactive)
REMARK    1  A    between atoms: C_1  and  C_2
REMARK    2  A    between atoms: C_5  and  C_7
REMARK    3  A    between atoms: C_10  and  C_12
REMARK    4  A    between atoms: N_14  and  N_15
REMARK    5  A    between atoms: C_16  and  C_17
REMARK                            x       y       z     vdW  Elec       q    Type
REMARK                         _______ _______ _______ _____ _____    ______ ____
ROOT
ATOM      1  C   UNL     1       3.559  -6.737  -0.041  0.00  0.00    +0.280 C 
ATOM      2  O   UNL     1       4.707  -6.330  -0.037  0.00  0.00    -0.267 OA
ATOM      3  N   UNL     1       3.314  -8.062  -0.051  0.00  0.00    -0.202 N 
ATOM      4  H   UNL     1       2.400  -8.387  -0.054  0.00  0.00    +0.178 HD
ENDROOT
BRANCH   1   8
ATOM      5  C   UNL     1       1.056  -3.888  -0.023  0.00  0.00    +0.083 C 
ATOM      6  N   UNL     1       0.408  -5.037  -0.031  0.00  0.00    -0.152 NA
ATOM      7  N   UNL     1       1.166  -6.063  -0.038  0.00  0.00    -0.148 NA
ATOM      8  C   UNL     1       2.447  -5.789  -0.036  0.00  0.00    +0.132 C 
ATOM      9  C   UNL     1       2.527  -4.271  -0.032  0.00  0.00    +0.121 C 
BRANCH   5  14
ATOM     10  C   UNL     1      -0.018   1.503   0.010  0.00  0.00    +0.051 C 
ATOM     11  C   UNL     1       0.002  -0.004   0.002  0.00  0.00    -0.013 A 
ATOM     12  C   UNL     1      -1.060  -0.853   0.002  0.00  0.00    +0.011 A 
ATOM     13  C   UNL     1      -0.834  -2.204  -0.006  0.00  0.00    +0.017 A 
ATOM     14  C   UNL     1       0.507  -2.592  -0.014  0.00  0.00    +0.036 A 
ATOM     15  S   UNL     1       1.342  -1.017  -0.017  0.00  0.00    -0.092 S 
ENDBRANCH   5  14
ENDBRANCH   1   8
BRANCH   3  16
ATOM     16  N   UNL     1       4.380  -8.972  -0.056  0.00  0.00    -0.187 NA
ATOM     17  C   UNL     1       4.143 -10.248  -0.065  0.00  0.00    +0.139 C 
BRANCH  17  18
ATOM     18  C   UNL     1       5.265 -11.205  -0.071  0.00  0.00    +0.013 A 
ATOM     19  C   UNL     1       5.014 -12.580  -0.086  0.00  0.00    +0.012 A 
ATOM     20  C   UNL     1       6.068 -13.470  -0.092  0.00  0.00    +0.021 A 
ATOM     21  C   UNL     1       7.372 -13.004  -0.081  0.00  0.00    +0.042 A 
ATOM     22  C   UNL     1       7.629 -11.644  -0.065  0.00  0.00    +0.040 A 
ATOM     23  C   UNL     1       6.584 -10.742  -0.067  0.00  0.00    +0.051 A 
ATOM     24 CL   UNL     1       6.907  -9.036  -0.055  0.00  0.00    -0.083 Cl
ATOM     25 CL   UNL     1       8.692 -14.132  -0.087  0.00  0.00    -0.083 Cl
ENDBRANCH  17  18
ENDBRANCH   3  16
TORSDOF 4
