REMARK  Name = ZINC12868668
REMARK  12 active torsions:
REMARK  status: ('A' for Active; 'I' for Inactive)
REMARK    1  A    between atoms: C_1  and  C_2
REMARK    2  A    between atoms: C_2  and  C_3
REMARK    3  A    between atoms: C_3  and  C_4
REMARK    4  A    between atoms: C_3  and  C_5
REMARK    5  A    between atoms: C_3  and  N_6
REMARK    6  A    between atoms: C_7  and  C_9
REMARK    7  A    between atoms: C_9  and  C_11
REMARK    8  A    between atoms: C_9  and  N_17
REMARK    9  A    between atoms: C_12  and  C_16
REMARK   10  A    between atoms: N_17  and  C_18
REMARK   11  A    between atoms: C_21  and  C_24
REMARK   12  A    between atoms: C_25  and  C_27
REMARK                            x       y       z     vdW  Elec       q    Type
REMARK                         _______ _______ _______ _____ _____    ______ ____
ROOT
ATOM      1  C   UNL     1      -2.239   4.355   0.734  0.00  0.00    +0.204 C 
ENDROOT
BRANCH   1   2
ATOM      2  C   UNL     1      -3.347   4.580  -0.263  0.00  0.00    +0.022 A 
ATOM      3  C   UNL     1      -3.998   5.728  -0.572  0.00  0.00    -0.038 A 
ATOM      4  C   UNL     1      -4.990   5.697  -1.534  0.00  0.00    +0.011 A 
ATOM      5  C   UNL     1      -5.290   4.519  -2.133  0.00  0.00    +0.046 A 
ATOM      6  S   UNL     1      -4.146   3.401  -1.340  0.00  0.00    -0.099 S 
ATOM      7  C   UNL     1      -3.644   7.018   0.121  0.00  0.00    +0.044 C 
ENDBRANCH   1   2
BRANCH   1   9
ATOM      8  N   UNL     1      -3.768   4.250   2.675  0.00  0.00    -0.308 N 
ATOM      9  C   UNL     1      -2.793   3.664   1.953  0.00  0.00    +0.239 C 
ATOM     10  O   UNL     1      -2.362   2.580   2.283  0.00  0.00    -0.273 OA
ATOM     11  H   UNL     1      -4.113   5.117   2.411  0.00  0.00    +0.149 HD
BRANCH   8  12
ATOM     12  C   UNL     1      -4.307   3.578   3.860  0.00  0.00    +0.029 C 
ATOM     13  C   UNL     1      -4.907   2.231   3.453  0.00  0.00    +0.031 C 
ATOM     14  C   UNL     1      -3.183   3.350   4.873  0.00  0.00    +0.031 C 
BRANCH  12  16
ATOM     15  C   UNL     1      -5.956   3.748   5.730  0.00  0.00    +0.006 C 
ATOM     16  C   UNL     1      -5.393   4.450   4.492  0.00  0.00    +0.022 C 
ENDBRANCH  12  16
ENDBRANCH   8  12
ENDBRANCH   1   9
BRANCH   1  17
ATOM     17  N   UNL     1      -1.199   3.520   0.129  0.00  0.00    -0.250 N 
ATOM     18  C   UNL     1      -1.468   2.240  -0.199  0.00  0.00    +0.272 C 
ATOM     19  O   UNL     1      -2.600   1.809  -0.086  0.00  0.00    -0.268 OA
BRANCH  17  20
ATOM     20  C   UNL     1       0.073   4.050  -0.109  0.00  0.00    +0.038 A 
ATOM     21  C   UNL     1       1.068   3.930   0.853  0.00  0.00    +0.024 A 
ATOM     22  C   UNL     1       2.325   4.449   0.613  0.00  0.00    +0.005 A 
ATOM     23  C   UNL     1       2.590   5.098  -0.579  0.00  0.00    -0.050 A 
ATOM     24  C   UNL     1       1.601   5.224  -1.536  0.00  0.00    +0.005 A 
ATOM     25  C   UNL     1       0.343   4.702  -1.305  0.00  0.00    +0.024 A 
ATOM     26  C   UNL     1       3.961   5.669  -0.835  0.00  0.00    +0.044 C 
ENDBRANCH  17  20
BRANCH  18  27
ATOM     27  C   UNL     1      -0.391   1.364  -0.694  0.00  0.00    +0.157 A 
ATOM     28  C   UNL     1      -0.594   0.045  -1.074  0.00  0.00    +0.101 A 
ATOM     29  S   UNL     1       1.008  -0.412  -1.550  0.00  0.00    +0.029 S 
ATOM     30  N   UNL     1       1.758   0.947  -1.270  0.00  0.00    -0.110 NA
ATOM     31  N   UNL     1       0.869   1.760  -0.828  0.00  0.00    -0.136 NA
ENDBRANCH  18  27
ENDBRANCH   1  17
TORSDOF 7
