REMARK  Name = ZINC05283698
REMARK  6 active torsions:
REMARK  status: ('A' for Active; 'I' for Inactive)
REMARK    1  A    between atoms: C_1  and  C_2
REMARK    2  A    between atoms: C_2  and  O_4
REMARK    3  A    between atoms: O_4  and  C_5
REMARK    4  A    between atoms: C_14  and  C_15
REMARK    5  A    between atoms: C_16  and  C_17
REMARK    6  A    between atoms: C_16  and  C_19
REMARK                            x       y       z     vdW  Elec       q    Type
REMARK                         _______ _______ _______ _____ _____    ______ ____
ROOT
ATOM      1  C   UNL     1       1.124   5.984   0.022  0.00  0.00    +0.139 A 
ATOM      2  C   UNL     1       2.320   5.270  -0.016  0.00  0.00    +0.047 A 
ATOM      3  C   UNL     1       2.344   3.911  -0.024  0.00  0.00    +0.012 A 
ATOM      4  C   UNL     1       1.149   3.168   0.006  0.00  0.00    -0.017 A 
ATOM      5  C   UNL     1       1.165   1.763  -0.002  0.00  0.00    +0.008 A 
ATOM      6  C   UNL     1      -0.011   1.075   0.029  0.00  0.00    +0.001 A 
ATOM      7  C   UNL     1      -1.231   1.744   0.062  0.00  0.00    +0.001 A 
ATOM      8  C   UNL     1      -1.282   3.107   0.077  0.00  0.00    +0.009 A 
ATOM      9  C   UNL     1      -0.094   3.844   0.046  0.00  0.00    -0.007 A 
ATOM     10  C   UNL     1      -0.103   5.309   0.054  0.00  0.00    +0.026 A 
ENDROOT
BRANCH  10  11
ATOM     11  C   UNL     1      -1.324   6.026   0.093  0.00  0.00    +0.034 C 
ATOM     12  C   UNL     1      -1.504   7.032   1.019  0.00  0.00    +0.095 C 
BRANCH  12  13
ATOM     13  C   UNL     1      -2.774   7.777   1.059  0.00  0.00    +0.150 A 
ATOM     14  N   UNL     1      -3.065   8.793   1.932  0.00  0.00    -0.337 N 
ATOM     15  H   UNL     1      -2.462   9.155   2.644  0.00  0.00    +0.167 HD
ATOM     16  C   UNL     1      -4.346   9.224   1.645  0.00  0.00    +0.066 A 
ATOM     17  C   UNL     1      -5.174  10.203   2.174  0.00  0.00    +0.028 A 
ATOM     18  C   UNL     1      -6.435  10.391   1.648  0.00  0.00    +0.002 A 
ATOM     19  C   UNL     1      -6.881   9.607   0.593  0.00  0.00    +0.002 A 
ATOM     20  C   UNL     1      -6.081   8.638   0.058  0.00  0.00    +0.030 A 
ATOM     21  C   UNL     1      -4.798   8.429   0.576  0.00  0.00    +0.089 A 
ATOM     22  N   UNL     1      -3.796   7.573   0.261  0.00  0.00    -0.227 NA
ENDBRANCH  12  13
BRANCH  12  23
ATOM     23  C   UNL     1      -0.456   7.352   1.941  0.00  0.00    +0.103 C 
ATOM     24  N   UNL     1       0.376   7.605   2.672  0.00  0.00    -0.191 NA
ENDBRANCH  12  23
ENDBRANCH  10  11
BRANCH   1  25
ATOM     25  O   UNL     1       1.148   7.341   0.029  0.00  0.00    -0.425 OA
BRANCH  25  27
ATOM     26  C   UNL     1       1.175   9.457  -1.244  0.00  0.00    +0.136 C 
ATOM     27  C   UNL     1       1.044   7.958  -1.159  0.00  0.00    +0.309 C 
ATOM     28  O   UNL     1       0.844   7.312  -2.160  0.00  0.00    -0.251 OA
ENDBRANCH  25  27
ENDBRANCH   1  25
TORSDOF 5
