REMARK  Name = ZINC32529099
REMARK  8 active torsions:
REMARK  status: ('A' for Active; 'I' for Inactive)
REMARK    1  A    between atoms: C_1  and  C_2
REMARK    2  A    between atoms: C_9  and  S_13
REMARK    3  A    between atoms: C_11  and  C_12
REMARK    4  A    between atoms: S_13  and  C_14
REMARK    5  A    between atoms: C_14  and  C_16
REMARK    6  A    between atoms: C_14  and  C_17
REMARK    7  A    between atoms: N_19  and  C_20
REMARK    8  A    between atoms: C_21  and  C_29
REMARK                            x       y       z     vdW  Elec       q    Type
REMARK                         _______ _______ _______ _____ _____    ______ ____
ROOT
ATOM      1  C   UNL     1      -0.013   1.086   0.008  0.00  0.00    +0.136 C 
ATOM      2  C   UNL     1      -0.729   1.579   1.267  0.00  0.00    +0.029 C 
ENDROOT
BRANCH   1   3
ATOM      3  C   UNL     1      -0.742   1.585  -1.213  0.00  0.00    +0.231 C 
ATOM      4  O   UNL     1      -0.328   2.555  -1.812  0.00  0.00    -0.274 OA
ATOM      5  N   UNL     1      -1.854   0.954  -1.639  0.00  0.00    -0.278 N 
ATOM      6  H   UNL     1      -2.229   0.074  -1.095  0.00  0.00    +0.155 HD
BRANCH   5   7
ATOM      7  C   UNL     1      -2.525   1.414  -2.763  0.00  0.00    +0.090 A 
ATOM      8  C   UNL     1      -3.674   0.904  -3.350  0.00  0.00    +0.084 A 
ATOM      9  C   UNL     1      -4.180   1.577  -4.533  0.00  0.00    -0.018 A 
ATOM     10  C   UNL     1      -3.460   2.646  -4.939  0.00  0.00    -0.004 A 
ATOM     11  S   UNL     1      -2.135   2.769  -3.771  0.00  0.00    -0.077 S 
ATOM     12  C   UNL     1      -3.738   3.527  -6.117  0.00  0.00    +0.043 C 
ATOM     13  C   UNL     1      -4.754   2.817  -7.023  0.00  0.00    +0.005 C 
ATOM     14  C   UNL     1      -5.909   2.301  -6.160  0.00  0.00    +0.005 C 
ATOM     15  C   UNL     1      -5.428   1.139  -5.289  0.00  0.00    +0.037 C 
BRANCH   8  16
ATOM     16  C   UNL     1      -4.337  -0.244  -2.808  0.00  0.00    +0.102 C 
ATOM     17  N   UNL     1      -4.862  -1.155  -2.378  0.00  0.00    -0.191 NA
ENDBRANCH   8  16
ENDBRANCH   5   7
ENDBRANCH   1   3
BRANCH   1  18
ATOM     18  S   UNL     1       1.685   1.712  -0.005  0.00  0.00    -0.093 S 
BRANCH  18  27
ATOM     19  C   UNL     1      -0.281  -1.636   3.469  0.00  0.00    +0.046 C 
ATOM     20  C   UNL     1       1.151  -1.441   3.897  0.00  0.00    -0.024 A 
ATOM     21  C   UNL     1       1.633  -2.096   4.989  0.00  0.00    +0.005 A 
ATOM     22  C   UNL     1       2.952  -1.929   5.401  0.00  0.00    +0.001 A 
ATOM     23  C   UNL     1       3.798  -1.105   4.721  0.00  0.00    +0.010 A 
ATOM     24  C   UNL     1       3.335  -0.416   3.590  0.00  0.00    +0.004 A 
ATOM     25  C   UNL     1       1.993  -0.583   3.170  0.00  0.00    +0.075 A 
ATOM     26  N   UNL     1       1.545   0.071   2.092  0.00  0.00    -0.240 NA
ATOM     27  C   UNL     1       2.330   0.877   1.406  0.00  0.00    +0.099 A 
ATOM     28  C   UNL     1       3.670   1.080   1.770  0.00  0.00    +0.038 A 
ATOM     29  C   UNL     1       4.181   0.445   2.861  0.00  0.00    -0.039 A 
ATOM     30  C   UNL     1       5.615   0.653   3.275  0.00  0.00    +0.044 C 
ENDBRANCH  18  27
ENDBRANCH   1  18
TORSDOF 5
