REMARK  Name = ZINC41076253
REMARK  6 active torsions:
REMARK  status: ('A' for Active; 'I' for Inactive)
REMARK    1  A    between atoms: C_1  and  C_2
REMARK    2  A    between atoms: C_5  and  N_9
REMARK    3  A    between atoms: C_6  and  C_8
REMARK    4  A    between atoms: C_13  and  C_14
REMARK    5  A    between atoms: C_24  and  C_26
REMARK    6  A    between atoms: C_26  and  C_27
REMARK                            x       y       z     vdW  Elec       q    Type
REMARK                         _______ _______ _______ _____ _____    ______ ____
ROOT
ATOM      1  C   UNL     1      -2.117  -4.712   1.191  0.00  0.00    +0.042 C 
ATOM      2  C   UNL     1      -2.507  -3.385   1.274  0.00  0.00    +0.082 C 
ATOM      3  C   UNL     1      -3.697  -2.966   2.062  0.00  0.00    +0.153 C 
ATOM      4  N   UNL     1      -4.078  -3.566   3.161  0.00  0.00    -0.283 NA
ATOM      5  N   UNL     1      -4.375  -1.859   1.509  0.00  0.00    -0.152 N 
ATOM      6  C   UNL     1      -3.657  -1.023   0.681  0.00  0.00    +0.181 C 
ATOM      7  N   UNL     1      -2.427  -1.181   0.260  0.00  0.00    -0.152 NA
ATOM      8  C   UNL     1      -1.758  -2.308   0.587  0.00  0.00    +0.273 C 
ATOM      9  O   UNL     1      -0.573  -2.437   0.323  0.00  0.00    -0.268 OA
ATOM     10  S   UNL     1      -4.830   0.262   0.342  0.00  0.00    -0.038 S 
ATOM     11  C   UNL     1      -6.212  -0.442   1.232  0.00  0.00    +0.104 C 
ATOM     12  N   UNL     1      -5.694  -1.528   1.731  0.00  0.00    -0.169 NA
ATOM     13  H   UNL     1      -4.863  -3.252   3.637  0.00  0.00    +0.188 HD
ENDROOT
BRANCH   1  18
ATOM     14  N   UNL     1       0.362  -4.744   0.984  0.00  0.00    -0.316 N 
ATOM     15  C   UNL     1       1.256  -5.249   0.095  0.00  0.00    +0.092 A 
ATOM     16  C   UNL     1       0.581  -5.871  -0.905  0.00  0.00    +0.020 A 
ATOM     17  C   UNL     1      -0.785  -5.756  -0.641  0.00  0.00    +0.027 A 
ATOM     18  C   UNL     1      -0.912  -5.052   0.549  0.00  0.00    +0.047 A 
BRANCH  14  23
ATOM     19  C   UNL     1       1.648  -1.870   5.705  0.00  0.00    +0.044 C 
ATOM     20  C   UNL     1       1.306  -2.633   4.451  0.00  0.00    -0.050 A 
ATOM     21  C   UNL     1       1.596  -2.091   3.212  0.00  0.00    +0.005 A 
ATOM     22  C   UNL     1       1.285  -2.788   2.062  0.00  0.00    +0.026 A 
ATOM     23  C   UNL     1       0.680  -4.035   2.149  0.00  0.00    +0.049 A 
ATOM     24  C   UNL     1       0.390  -4.577   3.394  0.00  0.00    -0.026 A 
ATOM     25  C   UNL     1       0.709  -3.877   4.541  0.00  0.00    +0.008 A 
ATOM     26  C   UNL     1      -0.267  -5.929   3.493  0.00  0.00    +0.046 C 
ENDBRANCH  14  23
ENDBRANCH   1  18
BRANCH  11  27
ATOM     27  C   UNL     1      -7.617   0.085   1.368  0.00  0.00    +0.099 C 
BRANCH  27  28
ATOM     28  C   UNL     1      -8.428  -0.859   2.218  0.00  0.00    -0.041 A 
ATOM     29  C   UNL     1      -9.118  -1.901   1.628  0.00  0.00    +0.004 A 
ATOM     30  C   UNL     1      -9.861  -2.767   2.407  0.00  0.00    +0.000 A 
ATOM     31  C   UNL     1      -9.915  -2.591   3.777  0.00  0.00    +0.000 A 
ATOM     32  C   UNL     1      -9.224  -1.549   4.368  0.00  0.00    +0.000 A 
ATOM     33  C   UNL     1      -8.477  -0.686   3.588  0.00  0.00    +0.004 A 
ENDBRANCH  27  28
ENDBRANCH  11  27
TORSDOF 4
