REMARK  Name = ZINC43741188
REMARK  10 active torsions:
REMARK  status: ('A' for Active; 'I' for Inactive)
REMARK    1  A    between atoms: C_1  and  C_2
REMARK    2  A    between atoms: C_6  and  C_30
REMARK    3  A    between atoms: C_6  and  O_31
REMARK    4  A    between atoms: C_7  and  O_29
REMARK    5  A    between atoms: C_17  and  C_19
REMARK    6  A    between atoms: C_19  and  N_20
REMARK    7  A    between atoms: N_20  and  C_21
REMARK    8  A    between atoms: C_21  and  C_22
REMARK    9  A    between atoms: C_22  and  C_23
REMARK   10  A    between atoms: O_31  and  C_32
REMARK                            x       y       z     vdW  Elec       q    Type
REMARK                         _______ _______ _______ _____ _____    ______ ____
ROOT
ATOM      1  C   UNL     1      -0.019   1.526   0.010  0.00  0.00    +0.014 C 
ATOM      2  C   UNL     1       0.002  -0.004   0.002  0.00  0.00    +0.003 C 
ATOM      3  C   UNL     1       0.611  -0.500  -1.310  0.00  0.00    +0.010 C 
ATOM      4  C   UNL     1       2.033   0.049  -1.447  0.00  0.00    +0.003 C 
ATOM      5  C   UNL     1       2.884  -0.428  -0.270  0.00  0.00    +0.037 C 
ATOM      6  C   UNL     1       2.265   0.058   1.043  0.00  0.00    +0.095 C 
ATOM      7  C   UNL     1       0.849  -0.512   1.175  0.00  0.00    +0.100 C 
ATOM      8  C   UNL     1       0.908  -2.037   1.102  0.00  0.00    +0.046 C 
ATOM      9  C   UNL     1      -0.487  -2.647   1.242  0.00  0.00    +0.044 C 
ATOM     10  C   UNL     1      -1.460  -2.027   0.220  0.00  0.00    +0.181 C 
ATOM     11  C   UNL     1      -1.420  -0.535   0.162  0.00  0.00    +0.054 C 
ATOM     12  O   UNL     1      -1.076  -2.627  -1.022  0.00  0.00    -0.461 OA
ATOM     13  C   UNL     1      -0.825  -3.934  -0.779  0.00  0.00    +0.309 C 
ATOM     14  O   UNL     1      -0.927  -4.829  -1.584  0.00  0.00    -0.251 OA
ATOM     15  C   UNL     1      -0.391  -4.101   0.689  0.00  0.00    +0.087 C 
ATOM     16  C   UNL     1       3.121  -0.420   2.219  0.00  0.00    +0.044 C 
ENDROOT
BRANCH   7  17
ATOM     17  O   UNL     1       0.273  -0.092   2.413  0.00  0.00    -0.385 OA
ATOM     18  H   UNL     1       0.763  -0.382   3.194  0.00  0.00    +0.210 HD
ENDBRANCH   7  17
BRANCH   6  19
ATOM     19  O   UNL     1       2.207   1.486   1.043  0.00  0.00    -0.374 OA
ATOM     20  C   UNL     1       3.482   2.120   0.917  0.00  0.00    +0.194 C 
ENDBRANCH   6  19
BRANCH  15  21
ATOM     21  C   UNL     1      -1.350  -5.027   1.440  0.00  0.00    -0.068 C 
BRANCH  21  22
ATOM     22  N   UNL     1      -1.155  -6.409   0.983  0.00  0.00    +0.380 N 
ATOM     23  H   UNL     1      -1.340  -6.465  -0.007  0.00  0.00    -0.086 HD
ATOM     24  H   UNL     1      -0.203  -6.692   1.164  0.00  0.00    -0.086 HD
BRANCH  22  25
ATOM     25  C   UNL     1      -2.075  -7.298   1.704  0.00  0.00    -0.078 C 
BRANCH  25  26
ATOM     26  C   UNL     1      -1.872  -8.738   1.228  0.00  0.00    +0.011 C 
BRANCH  26  27
ATOM     27  C   UNL     1      -2.817  -9.650   1.968  0.00  0.00    -0.075 C 
ATOM     28  C   UNL     1      -3.944  -9.942   1.404  0.00  0.00    -0.028 C 
ATOM     29  C   UNL     1      -4.988 -10.826   2.021  0.00  0.00    +0.027 C 
ATOM     30  C   UNL     1      -4.379 -11.647   3.159  0.00  0.00    +0.004 C 
ATOM     31  C   UNL     1      -3.602 -10.697   4.080  0.00  0.00    +0.005 C 
ATOM     32  C   UNL     1      -2.389 -10.166   3.310  0.00  0.00    +0.030 C 
ENDBRANCH  26  27
ENDBRANCH  25  26
ENDBRANCH  22  25
ENDBRANCH  21  22
ENDBRANCH  15  21
TORSDOF 7
