REMARK  Name = ZINC34923744
REMARK  13 active torsions:
REMARK  status: ('A' for Active; 'I' for Inactive)
REMARK    1  A    between atoms: C_1  and  C_2
REMARK    2  A    between atoms: C_3  and  C_33
REMARK    3  A    between atoms: C_4  and  C_25
REMARK    4  A    between atoms: C_7  and  C_12
REMARK    5  A    between atoms: C_13  and  N_15
REMARK    6  A    between atoms: N_15  and  C_16
REMARK    7  A    between atoms: C_16  and  C_17
REMARK    8  A    between atoms: C_17  and  C_18
REMARK    9  A    between atoms: C_18  and  N_19
REMARK   10  A    between atoms: C_30  and  O_31
REMARK   11  A    between atoms: O_31  and  C_32
REMARK   12  A    between atoms: C_33  and  O_35
REMARK   13  A    between atoms: O_35  and  C_36
REMARK                            x       y       z     vdW  Elec       q    Type
REMARK                         _______ _______ _______ _____ _____    ______ ____
ROOT
ATOM      1  C   UNL     1       0.061   1.882   0.188  0.00  0.00    +0.066 C 
ATOM      2  C   UNL     1       0.052   0.375   0.156  0.00  0.00    +0.053 C 
ATOM      3  C   UNL     1      -1.152  -0.303   0.127  0.00  0.00    +0.083 C 
ATOM      4  C   UNL     1      -1.108  -1.815   0.095  0.00  0.00    +0.153 C 
ATOM      5  N   UNL     1       0.235  -2.453   0.097  0.00  0.00    -0.267 N 
ATOM      6  C   UNL     1       0.512  -3.806   0.070  0.00  0.00    +0.048 C 
ATOM      7  C   UNL     1       1.810  -4.180   0.076  0.00  0.00    +0.072 C 
ATOM      8  S   UNL     1       2.647  -2.607   0.120  0.00  0.00    -0.060 S 
ATOM      9  C   UNL     1       1.303  -1.601   0.127  0.00  0.00    +0.166 C 
ATOM     10  N   UNL     1       1.196  -0.289   0.149  0.00  0.00    -0.230 NA
ENDROOT
BRANCH   4  11
ATOM     11  C   UNL     1      -1.866  -2.326   1.293  0.00  0.00    +0.020 A 
ATOM     12  C   UNL     1      -3.119  -2.885   1.132  0.00  0.00    +0.009 A 
ATOM     13  C   UNL     1      -3.815  -3.354   2.231  0.00  0.00    +0.001 A 
ATOM     14  C   UNL     1      -3.258  -3.265   3.494  0.00  0.00    +0.004 A 
ATOM     15  C   UNL     1      -2.006  -2.708   3.660  0.00  0.00    +0.046 A 
ATOM     16  C   UNL     1      -1.303  -2.241   2.558  0.00  0.00    +0.125 A 
BRANCH  16  17
ATOM     17  O   UNL     1      -0.068  -1.698   2.719  0.00  0.00    -0.495 OA
ATOM     18  C   UNL     1       0.493  -1.740   4.032  0.00  0.00    +0.277 C 
ENDBRANCH  16  17
ENDBRANCH   4  11
BRANCH   6  19
ATOM     19  C   UNL     1      -0.567  -4.803   0.036  0.00  0.00    +0.091 C 
ATOM     20  C   UNL     1      -0.277  -6.114   0.144  0.00  0.00    +0.239 C 
ATOM     21  O   UNL     1       1.016  -6.521   0.173  0.00  0.00    -0.271 OA
BRANCH  20  22
ATOM     22  N   UNL     1      -1.298  -7.045   0.226  0.00  0.00    -0.312 N 
ATOM     23  H   UNL     1      -2.221  -6.762   0.132  0.00  0.00    +0.149 HD
BRANCH  22  24
ATOM     24  C   UNL     1      -0.985  -8.458   0.454  0.00  0.00    +0.106 C 
BRANCH  24  25
ATOM     25  C   UNL     1      -2.270  -9.284   0.378  0.00  0.00    +0.038 C 
BRANCH  25  26
ATOM     26  C   UNL     1      -1.943 -10.760   0.616  0.00  0.00    +0.109 C 
BRANCH  26  27
ATOM     27  N   UNL     1      -3.174 -11.551   0.544  0.00  0.00    -0.301 N 
ATOM     28  C   UNL     1      -4.042 -11.839   1.691  0.00  0.00    +0.108 C 
ATOM     29  C   UNL     1      -5.387 -12.298   1.086  0.00  0.00    +0.028 C 
ATOM     30  C   UNL     1      -4.943 -12.841  -0.292  0.00  0.00    +0.097 C 
ATOM     31  C   UNL     1      -3.656 -12.102  -0.584  0.00  0.00    +0.216 C 
ATOM     32  O   UNL     1      -3.134 -12.020  -1.675  0.00  0.00    -0.276 OA
ENDBRANCH  26  27
ENDBRANCH  25  26
ENDBRANCH  24  25
ENDBRANCH  22  24
ENDBRANCH  20  22
ENDBRANCH   6  19
BRANCH   3  33
ATOM     33  C   UNL     1      -2.371   0.386   0.129  0.00  0.00    +0.339 C 
ATOM     34  O   UNL     1      -2.386   1.597   0.262  0.00  0.00    -0.245 OA
BRANCH  33  35
ATOM     35  O   UNL     1      -3.530  -0.293  -0.018  0.00  0.00    -0.465 OA
ATOM     36  C   UNL     1      -4.736   0.474  -0.007  0.00  0.00    +0.280 C 
ENDBRANCH  33  35
ENDBRANCH   3  33
TORSDOF 10
