REMARK  Name = ZINC36506677
REMARK  11 active torsions:
REMARK  status: ('A' for Active; 'I' for Inactive)
REMARK    1  A    between atoms: C_1  and  C_2
REMARK    2  A    between atoms: C_2  and  C_3
REMARK    3  A    between atoms: C_2  and  C_4
REMARK    4  A    between atoms: C_2  and  N_5
REMARK    5  A    between atoms: C_6  and  C_8
REMARK    6  A    between atoms: C_8  and  C_10
REMARK    7  A    between atoms: C_8  and  N_24
REMARK    8  A    between atoms: N_24  and  C_25
REMARK    9  A    between atoms: C_25  and  C_26
REMARK   10  A    between atoms: C_31  and  C_33
REMARK   11  A    between atoms: C_33  and  C_34
REMARK                            x       y       z     vdW  Elec       q    Type
REMARK                         _______ _______ _______ _____ _____    ______ ____
ROOT
ATOM      1  C   UNL     1       2.732  -0.595  -2.514  0.00  0.00    +0.193 C 
ENDROOT
BRANCH   1   2
ATOM      2  C   UNL     1       2.148  -0.889  -3.871  0.00  0.00    -0.010 A 
ATOM      3  C   UNL     1       1.448   0.070  -4.510  0.00  0.00    +0.015 A 
ATOM      4  C   UNL     1       0.881  -0.157  -5.785  0.00  0.00    -0.017 A 
ATOM      5  C   UNL     1       0.155   0.847  -6.442  0.00  0.00    +0.008 A 
ATOM      6  C   UNL     1      -0.381   0.600  -7.672  0.00  0.00    +0.001 A 
ATOM      7  C   UNL     1      -0.220  -0.636  -8.287  0.00  0.00    +0.001 A 
ATOM      8  C   UNL     1       0.482  -1.634  -7.673  0.00  0.00    +0.009 A 
ATOM      9  C   UNL     1       1.044  -1.413  -6.415  0.00  0.00    -0.010 A 
ATOM     10  C   UNL     1       1.804  -2.455  -5.720  0.00  0.00    -0.010 A 
ATOM     11  C   UNL     1       2.352  -2.163  -4.450  0.00  0.00    -0.012 A 
ATOM     12  C   UNL     1       3.086  -3.152  -3.779  0.00  0.00    +0.009 A 
ATOM     13  C   UNL     1       3.265  -4.373  -4.361  0.00  0.00    +0.001 A 
ATOM     14  C   UNL     1       2.731  -4.654  -5.613  0.00  0.00    +0.001 A 
ATOM     15  C   UNL     1       2.001  -3.716  -6.286  0.00  0.00    +0.009 A 
ENDBRANCH   1   2
BRANCH   1  17
ATOM     16  N   UNL     1       0.830   0.600  -1.478  0.00  0.00    -0.309 N 
ATOM     17  C   UNL     1       2.092   0.647  -1.950  0.00  0.00    +0.239 C 
ATOM     18  O   UNL     1       2.711   1.690  -1.921  0.00  0.00    -0.273 OA
ATOM     19  H   UNL     1       0.313  -0.217  -1.556  0.00  0.00    +0.149 HD
BRANCH  16  21
ATOM     20  C   UNL     1       0.216   2.938  -1.847  0.00  0.00    +0.031 C 
ATOM     21  C   UNL     1       0.240   1.782  -0.845  0.00  0.00    +0.026 C 
ATOM     22  C   UNL     1       1.076   2.180   0.373  0.00  0.00    +0.031 C 
ATOM     23  C   UNL     1      -1.189   1.463  -0.401  0.00  0.00    +0.031 C 
ENDBRANCH  16  21
ENDBRANCH   1  17
BRANCH   1  24
ATOM     24  N   UNL     1       4.177  -0.385  -2.638  0.00  0.00    -0.278 N 
ATOM     25  C   UNL     1       5.009  -0.839  -1.680  0.00  0.00    +0.221 C 
ATOM     26  O   UNL     1       4.562  -1.420  -0.714  0.00  0.00    -0.275 OA
BRANCH  24  27
ATOM     27  C   UNL     1       4.717   0.317  -3.805  0.00  0.00    +0.183 C 
BRANCH  27  28
ATOM     28  C   UNL     1       4.760   1.797  -3.525  0.00  0.00    +0.122 A 
ATOM     29  C   UNL     1       5.819   2.477  -3.049  0.00  0.00    +0.046 A 
ATOM     30  C   UNL     1       5.421   3.829  -2.939  0.00  0.00    +0.041 A 
ATOM     31  C   UNL     1       4.143   3.895  -3.355  0.00  0.00    +0.195 A 
ATOM     32  O   UNL     1       3.750   2.662  -3.714  0.00  0.00    -0.466 OA
ENDBRANCH  27  28
ENDBRANCH  24  27
BRANCH  25  33
ATOM     33  C   UNL     1       6.495  -0.623  -1.808  0.00  0.00    +0.131 C 
BRANCH  33  34
ATOM     34  C   UNL     1       7.194  -1.220  -0.614  0.00  0.00    -0.039 A 
ATOM     35  C   UNL     1       7.409  -0.454   0.516  0.00  0.00    +0.004 A 
ATOM     36  C   UNL     1       8.050  -1.002   1.611  0.00  0.00    +0.000 A 
ATOM     37  C   UNL     1       8.476  -2.316   1.576  0.00  0.00    +0.000 A 
ATOM     38  C   UNL     1       8.261  -3.083   0.447  0.00  0.00    +0.000 A 
ATOM     39  C   UNL     1       7.616  -2.536  -0.647  0.00  0.00    +0.004 A 
ENDBRANCH  33  34
ENDBRANCH  25  33
ENDBRANCH   1  24
TORSDOF 8
