REMARK  Name = ZINC37664257
REMARK  7 active torsions:
REMARK  status: ('A' for Active; 'I' for Inactive)
REMARK    1  A    between atoms: C_1  and  N_2
REMARK    2  A    between atoms: N_2  and  C_3
REMARK    3  A    between atoms: N_2  and  C_8
REMARK    4  A    between atoms: C_3  and  C_4
REMARK    5  A    between atoms: C_8  and  C_10
REMARK    6  A    between atoms: C_8  and  C_12
REMARK    7  A    between atoms: C_10  and  N_11
REMARK                            x       y       z     vdW  Elec       q    Type
REMARK                         _______ _______ _______ _____ _____    ______ ____
ROOT
ATOM      1  C   UNL     1      -1.156  -1.057   0.097  0.00  0.00    +0.070 C 
ENDROOT
BRANCH   1   2
ATOM      2  C   UNL     1      -1.891  -0.891  -1.209  0.00  0.00    -0.027 A 
ATOM      3  C   UNL     1      -3.268  -0.768  -1.214  0.00  0.00    +0.054 A 
ATOM      4  C   UNL     1      -3.946  -0.615  -2.412  0.00  0.00    +0.168 A 
ATOM      5  C   UNL     1      -3.237  -0.586  -3.611  0.00  0.00    +0.180 A 
ATOM      6  C   UNL     1      -1.857  -0.711  -3.598  0.00  0.00    +0.064 A 
ATOM      7  C   UNL     1      -1.186  -0.857  -2.397  0.00  0.00    +0.024 A 
ATOM      8 BR   UNL     1      -0.889  -0.672  -5.223  0.00  0.00    -0.046 Br
ATOM      9  O   UNL     1      -4.122  -0.427  -4.638  0.00  0.00    -0.451 OA
ATOM     10  C   UNL     1      -5.410  -0.769  -4.091  0.00  0.00    +0.466 C 
ATOM     11  O   UNL     1      -5.275  -0.474  -2.688  0.00  0.00    -0.453 OA
ENDBRANCH   1   2
BRANCH   1  13
ATOM     12  C   UNL     1      -0.199   1.132  -0.297  0.00  0.00    +0.105 C 
ATOM     13  N   UNL     1       0.080  -0.264   0.067  0.00  0.00    -0.292 NA
BRANCH  13  14
ATOM     14  C   UNL     1       0.786  -0.342   1.353  0.00  0.00    +0.198 C 
BRANCH  14  15
ATOM     15  C   UNL     1       2.247   0.069   1.158  0.00  0.00    +0.402 C 
ATOM     16  F   UNL     1       2.308   1.420   0.800  0.00  0.00    -0.169 F 
ATOM     17  F   UNL     1       2.951  -0.129   2.351  0.00  0.00    -0.169 F 
ATOM     18  F   UNL     1       2.819  -0.708   0.144  0.00  0.00    -0.169 F 
ENDBRANCH  14  15
ENDBRANCH  13  14
ENDBRANCH   1  13
BRANCH   1  19
ATOM     19  C   UNL     1      -0.810  -2.533   0.303  0.00  0.00    -0.063 C 
BRANCH  19  20
ATOM     20  N   UNL     1      -2.048  -3.319   0.392  0.00  0.00    +0.379 N 
ATOM     21  H   UNL     1      -2.529  -3.290  -0.494  0.00  0.00    -0.090 HD
ATOM     22  H   UNL     1      -1.823  -4.275   0.622  0.00  0.00    -0.090 HD
ATOM     23  H   UNL     1      -2.641  -2.930   1.110  0.00  0.00    -0.090 HD
ENDBRANCH  19  20
ENDBRANCH   1  19
TORSDOF 6
