REMARK  Name = ZINC63577382
REMARK  4 active torsions:
REMARK  status: ('A' for Active; 'I' for Inactive)
REMARK    1  A    between atoms: C_4  and  N_7
REMARK    2  A    between atoms: C_8  and  S_23
REMARK    3  A    between atoms: S_23  and  C_24
REMARK    4  A    between atoms: C_24  and  C_25
REMARK                            x       y       z     vdW  Elec       q    Type
REMARK                         _______ _______ _______ _____ _____    ______ ____
ROOT
ATOM      1  N   UNL     1       3.621  -0.650  -0.036  0.00  0.00    -0.236 N 
ATOM      2  C   UNL     1       3.586  -2.098   0.062  0.00  0.00    +0.259 C 
ATOM      3  N   UNL     1       4.785  -2.689   0.663  0.00  0.00    -0.243 NA
ATOM      4  C   UNL     1       5.897  -2.053   0.605  0.00  0.00    +0.107 C 
ATOM      5  C   UNL     1       6.031  -0.663   0.062  0.00  0.00    +0.069 C 
ATOM      6  C   UNL     1       4.748   0.087  -0.148  0.00  0.00    +0.256 C 
ATOM      7  O   UNL     1       4.724   1.276  -0.398  0.00  0.00    -0.269 OA
ATOM      8  C   UNL     1       7.252  -0.206  -0.190  0.00  0.00    -0.042 C 
ATOM      9  C   UNL     1       8.404  -1.177   0.086  0.00  0.00    +0.079 C 
ATOM     10  S   UNL     1       7.552  -2.476   1.073  0.00  0.00    -0.098 S 
ATOM     11  C   UNL     1       9.417  -0.441   0.966  0.00  0.00    +0.019 C 
ATOM     12  C   UNL     1       9.822   0.864   0.277  0.00  0.00    +0.002 C 
ATOM     13  C   UNL     1       8.624   1.808   0.174  0.00  0.00    +0.004 C 
ATOM     14  C   UNL     1       7.550   1.196  -0.712  0.00  0.00    +0.033 C 
ENDROOT
BRANCH   1  18
ATOM     15  C   UNL     1      -0.017   1.378   0.011  0.00  0.00    +0.000 A 
ATOM     16  C   UNL     1       0.550   1.006  -1.195  0.00  0.00    +0.002 A 
ATOM     17  C   UNL     1       1.756   0.333  -1.214  0.00  0.00    +0.023 A 
ATOM     18  C   UNL     1       2.400   0.031  -0.021  0.00  0.00    +0.039 A 
ATOM     19  C   UNL     1       1.828   0.406   1.188  0.00  0.00    +0.023 A 
ATOM     20  C   UNL     1       0.621   1.078   1.200  0.00  0.00    +0.002 A 
ENDBRANCH   1  18
BRANCH   2  21
ATOM     21  S   UNL     1       3.382  -2.784  -1.604  0.00  0.00    -0.111 S 
BRANCH  21  22
ATOM     22  C   UNL     1       4.837  -2.185  -2.507  0.00  0.00    +0.119 C 
BRANCH  22  23
ATOM     23  C   UNL     1       4.791  -2.698  -3.947  0.00  0.00    +0.184 C 
ATOM     24  N   UNL     1       3.541  -2.276  -4.593  0.00  0.00    -0.363 N 
ATOM     25  C   UNL     1       2.896  -3.352  -4.936  0.00  0.00    +0.060 A 
ATOM     26  C   UNL     1       1.607  -3.574  -5.606  0.00  0.00    +0.027 A 
ATOM     27  C   UNL     1       1.184  -4.833  -5.835  0.00  0.00    +0.002 A 
ATOM     28  C   UNL     1       1.929  -5.964  -5.456  0.00  0.00    +0.002 A 
ATOM     29  C   UNL     1       3.122  -5.873  -4.835  0.00  0.00    +0.027 A 
ATOM     30  C   UNL     1       3.684  -4.549  -4.535  0.00  0.00    +0.060 A 
ATOM     31  N   UNL     1       4.787  -4.166  -3.960  0.00  0.00    -0.363 N 
ATOM     32  H   UNL     1       3.251  -1.361  -4.737  0.00  0.00    +0.162 HD
ATOM     33  H   UNL     1       5.480  -4.745  -3.604  0.00  0.00    +0.162 HD
ENDBRANCH  22  23
ENDBRANCH  21  22
ENDBRANCH   2  21
TORSDOF 4
