REMARK  Name = ZINC36993244
REMARK  3 active torsions:
REMARK  status: ('A' for Active; 'I' for Inactive)
REMARK    1  A    between atoms: C_1  and  C_2
REMARK    2  A    between atoms: C_8  and  N_10
REMARK    3  A    between atoms: N_10  and  C_11
REMARK                            x       y       z     vdW  Elec       q    Type
REMARK                         _______ _______ _______ _____ _____    ______ ____
ROOT
ATOM      1  C   UNL     1       0.764   0.098   3.646  0.00  0.00    +0.050 A 
ATOM      2  C   UNL     1       2.118  -0.209   3.692  0.00  0.00    +0.072 A 
ATOM      3  C   UNL     1       2.815  -0.073   4.879  0.00  0.00    +0.144 A 
ATOM      4  C   UNL     1       2.158   0.371   6.025  0.00  0.00    +0.077 A 
ATOM      5  C   UNL     1       0.808   0.677   5.978  0.00  0.00    +0.048 A 
ATOM      6  C   UNL     1       0.113   0.546   4.789  0.00  0.00    +0.064 A 
ATOM      7 CL   UNL     1      -1.578   0.937   4.726  0.00  0.00    -0.082 Cl
ATOM      8  N   UNL     1       2.880   0.501   7.223  0.00  0.00    -0.280 N 
ATOM      9  C   UNL     1       4.230   0.505   7.175  0.00  0.00    +0.255 C 
ATOM     10  O   UNL     1       4.875   0.585   8.200  0.00  0.00    -0.272 OA
ATOM     11  C   UNL     1       4.932   0.407   5.845  0.00  0.00    +0.325 C 
ATOM     12  O   UNL     1       4.141  -0.369   4.940  0.00  0.00    -0.481 OA
ATOM     13  H   UNL     1       2.417   0.588   8.070  0.00  0.00    +0.155 HD
ENDROOT
BRANCH   1  14
ATOM     14  N   UNL     1       0.056  -0.038   2.447  0.00  0.00    -0.340 N 
ATOM     15  H   UNL     1      -0.888   0.180   2.413  0.00  0.00    +0.146 HD
BRANCH  14  22
ATOM     16  C   UNL     1      -0.019   1.526   0.010  0.00  0.00    +0.009 C 
ATOM     17  C   UNL     1       0.002  -0.004   0.002  0.00  0.00    +0.006 C 
ATOM     18  C   UNL     1       0.718  -0.497  -1.257  0.00  0.00    +0.005 C 
ATOM     19  C   UNL     1       0.739  -2.027  -1.265  0.00  0.00    +0.000 C 
ATOM     20  C   UNL     1       1.479  -2.534  -0.026  0.00  0.00    +0.002 C 
ATOM     21  C   UNL     1       0.763  -2.041   1.233  0.00  0.00    +0.022 C 
ATOM     22  C   UNL     1       0.742  -0.511   1.242  0.00  0.00    +0.073 C 
ENDBRANCH  14  22
ENDBRANCH   1  14
TORSDOF 2
