REMARK  Name = ZINC00245333
REMARK  6 active torsions:
REMARK  status: ('A' for Active; 'I' for Inactive)
REMARK    1  A    between atoms: C_1  and  C_2
REMARK    2  A    between atoms: N_4  and  C_5
REMARK    3  A    between atoms: C_5  and  C_7
REMARK    4  A    between atoms: C_5  and  C_16
REMARK    5  A    between atoms: C_11  and  N_13
REMARK    6  A    between atoms: C_25  and  O_26
REMARK                            x       y       z     vdW  Elec       q    Type
REMARK                         _______ _______ _______ _____ _____    ______ ____
ROOT
ATOM      1  C   UNL     1       0.261   5.629  -0.424  0.00  0.00    +0.138 C 
ENDROOT
BRANCH   1   2
ATOM      2  C   UNL     1      -0.018   5.820   1.045  0.00  0.00    +0.026 A 
ATOM      3  C   UNL     1       1.038   6.054   1.940  0.00  0.00    -0.009 A 
ATOM      4  C   UNL     1       2.370   6.115   1.496  0.00  0.00    +0.009 A 
ATOM      5  C   UNL     1       3.369   6.343   2.391  0.00  0.00    +0.001 A 
ATOM      6  C   UNL     1       3.092   6.519   3.746  0.00  0.00    +0.001 A 
ATOM      7  C   UNL     1       1.815   6.467   4.212  0.00  0.00    +0.008 A 
ATOM      8  C   UNL     1       0.756   6.232   3.318  0.00  0.00    -0.017 A 
ATOM      9  C   UNL     1      -0.575   6.172   3.764  0.00  0.00    +0.012 A 
ATOM     10  C   UNL     1      -1.576   5.944   2.872  0.00  0.00    +0.046 A 
ATOM     11  C   UNL     1      -1.301   5.773   1.511  0.00  0.00    +0.123 A 
BRANCH  11  12
ATOM     12  O   UNL     1      -2.323   5.553   0.643  0.00  0.00    -0.506 OA
ATOM     13  H   UNL     1      -2.600   4.628   0.589  0.00  0.00    +0.292 HD
ENDBRANCH  11  12
ENDBRANCH   1   2
BRANCH   1  14
ATOM     14  C   UNL     1       0.170   4.164  -0.766  0.00  0.00    -0.021 A 
ATOM     15  C   UNL     1      -1.052   3.604  -1.089  0.00  0.00    +0.006 A 
ATOM     16  C   UNL     1      -1.135   2.262  -1.408  0.00  0.00    +0.003 A 
ATOM     17  C   UNL     1       0.003   1.477  -1.394  0.00  0.00    +0.033 A 
ATOM     18  C   UNL     1       1.225   2.037  -1.071  0.00  0.00    +0.127 A 
ATOM     19  C   UNL     1       1.308   3.380  -0.757  0.00  0.00    +0.038 A 
BRANCH  18  20
ATOM     20  N   UNL     1       2.444   1.197  -1.062  0.00  0.00    +0.056 N 
ATOM     21  O   UNL     1       2.370   0.013  -1.339  0.00  0.00    -0.126 OA
ATOM     22  O   UNL     1       3.521   1.690  -0.778  0.00  0.00    -0.126 OA
ENDBRANCH  18  20
ENDBRANCH   1  14
BRANCH   1  26
ATOM     23  C   UNL     1      -1.586   8.478  -2.189  0.00  0.00    +0.109 C 
ATOM     24  C   UNL     1      -0.522   7.681  -1.478  0.00  0.00    +0.211 C 
ATOM     25  O   UNL     1       0.515   8.215  -1.146  0.00  0.00    -0.276 OA
ATOM     26  N   UNL     1      -0.724   6.376  -1.210  0.00  0.00    -0.305 N 
ATOM     27  H   UNL     1      -1.521   5.931  -1.537  0.00  0.00    +0.150 HD
ENDBRANCH   1  26
TORSDOF 5
