REMARK  Name = ZINC04165405
REMARK  4 active torsions:
REMARK  status: ('A' for Active; 'I' for Inactive)
REMARK    1  A    between atoms: C_1  and  O_2
REMARK    2  A    between atoms: O_2  and  C_3
REMARK    3  A    between atoms: C_6  and  C_9
REMARK    4  A    between atoms: C_19  and  C_21
REMARK                            x       y       z     vdW  Elec       q    Type
REMARK                         _______ _______ _______ _____ _____    ______ ____
ROOT
ATOM      1  C   UNL     1      -4.981  -2.629   0.035  0.00  0.00    +0.172 C 
ATOM      2  N   UNL     1      -4.872  -3.965   0.651  0.00  0.00    -0.232 N 
ATOM      3  C   UNL     1      -5.421  -5.007   0.040  0.00  0.00    +0.232 C 
ATOM      4  O   UNL     1      -5.357  -6.120   0.517  0.00  0.00    -0.274 OA
ATOM      5  C   UNL     1      -6.133  -4.755  -1.280  0.00  0.00    +0.167 C 
ATOM      6  S   UNL     1      -5.514  -3.061  -1.677  0.00  0.00    -0.124 S 
ATOM      7  C   UNL     1      -4.202  -4.130   1.858  0.00  0.00    +0.192 A 
ATOM      8  N   UNL     1      -3.604  -3.226   2.608  0.00  0.00    -0.125 NA
ATOM      9  N   UNL     1      -3.030  -3.530   3.692  0.00  0.00    -0.144 NA
ATOM     10  C   UNL     1      -3.028  -4.788   4.085  0.00  0.00    +0.110 A 
ATOM     11  S   UNL     1      -3.947  -5.539   2.749  0.00  0.00    -0.035 S 
ENDROOT
BRANCH  10  12
ATOM     12  C   UNL     1      -2.427  -5.415   5.316  0.00  0.00    +0.022 C 
ATOM     13  C   UNL     1      -2.701  -6.920   5.308  0.00  0.00    +0.017 C 
ATOM     14  C   UNL     1      -2.090  -7.556   6.559  0.00  0.00    -0.010 C 
ATOM     15  C   UNL     1      -2.715  -6.931   7.807  0.00  0.00    +0.007 C 
ATOM     16  C   UNL     1      -2.441  -5.426   7.815  0.00  0.00    -0.010 C 
ATOM     17  C   UNL     1      -3.052  -4.789   6.565  0.00  0.00    +0.017 C 
ATOM     18  C   UNL     1      -0.931  -5.183   7.825  0.00  0.00    +0.007 C 
ATOM     19  C   UNL     1      -0.305  -5.808   6.576  0.00  0.00    -0.010 C 
ATOM     20  C   UNL     1      -0.580  -7.313   6.568  0.00  0.00    +0.007 C 
ATOM     21  C   UNL     1      -0.916  -5.172   5.326  0.00  0.00    +0.017 C 
ENDBRANCH  10  12
BRANCH   1  25
ATOM     22  C   UNL     1      -1.200  -0.637   0.010  0.00  0.00    +0.120 A 
ATOM     23  C   UNL     1      -2.375   0.101   0.019  0.00  0.00    +0.046 A 
ATOM     24  C   UNL     1      -3.596  -0.545   0.027  0.00  0.00    +0.010 A 
ATOM     25  C   UNL     1      -3.648  -1.927   0.026  0.00  0.00    -0.016 A 
ATOM     26  C   UNL     1      -2.479  -2.665   0.017  0.00  0.00    +0.010 A 
ATOM     27  C   UNL     1      -1.255  -2.024   0.003  0.00  0.00    +0.046 A 
BRANCH  22  29
ATOM     28  C   UNL     1      -0.017   1.425   0.010  0.00  0.00    +0.277 C 
ATOM     29  O   UNL     1       0.002  -0.004   0.002  0.00  0.00    -0.495 OA
ENDBRANCH  22  29
ENDBRANCH   1  25
TORSDOF 3
