REMARK  Name = ZINC49089839
REMARK  6 active torsions:
REMARK  status: ('A' for Active; 'I' for Inactive)
REMARK    1  A    between atoms: C_1  and  O_2
REMARK    2  A    between atoms: O_2  and  C_3
REMARK    3  A    between atoms: C_8  and  O_9
REMARK    4  A    between atoms: O_9  and  C_10
REMARK    5  A    between atoms: C_18  and  N_20
REMARK    6  A    between atoms: N_20  and  C_21
REMARK                            x       y       z     vdW  Elec       q    Type
REMARK                         _______ _______ _______ _____ _____    ______ ____
ROOT
ATOM      1  C   UNL     1      -3.248   2.188   0.024  0.00  0.00    +0.165 A 
ATOM      2  C   UNL     1      -4.600   1.993   0.266  0.00  0.00    +0.050 A 
ATOM      3  C   UNL     1      -5.135   0.722   0.204  0.00  0.00    +0.013 A 
ATOM      4  C   UNL     1      -4.331  -0.365  -0.098  0.00  0.00    +0.018 A 
ATOM      5  C   UNL     1      -2.981  -0.180  -0.338  0.00  0.00    +0.171 A 
ATOM      6  C   UNL     1      -2.439   1.103  -0.284  0.00  0.00    +0.204 A 
ATOM      7  O   UNL     1      -2.155  -1.220  -0.627  0.00  0.00    -0.488 OA
ATOM      8  C   UNL     1      -2.750  -2.449  -1.047  0.00  0.00    +0.231 C 
ATOM      9  C   UNL     1      -3.869  -2.806  -0.061  0.00  0.00    +0.068 C 
ATOM     10  C   UNL     1      -4.958  -1.735  -0.161  0.00  0.00    +0.108 C 
ENDROOT
BRANCH   1  12
ATOM     11  C   UNL     1      -3.611   4.508   0.404  0.00  0.00    +0.277 C 
ATOM     12  O   UNL     1      -2.719   3.439   0.082  0.00  0.00    -0.491 OA
ENDBRANCH   1  12
BRANCH  10  13
ATOM     13  N   UNL     1      -5.899  -1.891   0.951  0.00  0.00    -0.334 N 
ATOM     14  H   UNL     1      -5.567  -2.017   1.854  0.00  0.00    +0.147 HD
BRANCH  13  15
ATOM     15  C   UNL     1      -7.271  -1.858   0.713  0.00  0.00    +0.068 A 
ATOM     16  C   UNL     1      -8.077  -0.883   1.302  0.00  0.00    +0.081 A 
ATOM     17  C   UNL     1      -9.432  -0.885   1.040  0.00  0.00    +0.132 A 
ATOM     18  N   UNL     1      -9.966  -1.793   0.243  0.00  0.00    -0.260 NA
ATOM     19  C   UNL     1      -9.238  -2.731  -0.333  0.00  0.00    +0.132 A 
ATOM     20  C   UNL     1      -7.875  -2.795  -0.127  0.00  0.00    +0.081 A 
ATOM     21 CL   UNL     1      -6.925  -4.028  -0.895  0.00  0.00    -0.080 Cl
ATOM     22 CL   UNL     1      -7.385   0.314   2.352  0.00  0.00    -0.080 Cl
ENDBRANCH  13  15
ENDBRANCH  10  13
BRANCH   6  23
ATOM     23  O   UNL     1      -1.114   1.292  -0.528  0.00  0.00    -0.482 OA
BRANCH  23  24
ATOM     24  C   UNL     1      -0.230   1.219   0.593  0.00  0.00    +0.174 C 
ATOM     25  C   UNL     1      -0.010   2.626   1.184  0.00  0.00    +0.044 C 
ATOM     26  C   UNL     1       1.479   2.630   1.611  0.00  0.00    +0.004 C 
ATOM     27  C   UNL     1       2.162   1.825   0.477  0.00  0.00    +0.004 C 
ATOM     28  C   UNL     1       1.150   0.710   0.143  0.00  0.00    +0.044 C 
ENDBRANCH  23  24
ENDBRANCH   6  23
TORSDOF 5
