REMARK  Name = ZINC00413731
REMARK  8 active torsions:
REMARK  status: ('A' for Active; 'I' for Inactive)
REMARK    1  A    between atoms: C_1  and  C_2
REMARK    2  A    between atoms: C_2  and  C_3
REMARK    3  A    between atoms: C_3  and  C_4
REMARK    4  A    between atoms: C_3  and  C_5
REMARK    5  A    between atoms: C_3  and  N_6
REMARK    6  A    between atoms: N_6  and  C_7
REMARK    7  A    between atoms: C_8  and  C_17
REMARK    8  A    between atoms: C_22  and  O_23
REMARK                            x       y       z     vdW  Elec       q    Type
REMARK                         _______ _______ _______ _____ _____    ______ ____
ROOT
ATOM      1  C   UNL     1       2.664   0.932  -0.303  0.00  0.00    +0.132 A 
ATOM      2  C   UNL     1       1.348   0.523  -0.357  0.00  0.00    +0.115 A 
ATOM      3  N   UNL     1       0.580   1.614  -0.527  0.00  0.00    -0.226 NA
ATOM      4  C   UNL     1       1.351   2.687  -0.582  0.00  0.00    +0.140 A 
ATOM      5  N   UNL     1       2.662   2.292  -0.444  0.00  0.00    -0.286 N 
ATOM      6  C   UNL     1       3.671   3.218  -0.466  0.00  0.00    +0.114 A 
ATOM      7  C   UNL     1       3.395   4.529  -0.622  0.00  0.00    +0.058 A 
ATOM      8  C   UNL     1       2.064   4.963  -0.765  0.00  0.00    +0.025 A 
ATOM      9  C   UNL     1       1.052   4.056  -0.746  0.00  0.00    +0.048 A 
ATOM     10 CL   UNL     1       4.689   5.687  -0.646  0.00  0.00    -0.082 Cl
ENDROOT
BRANCH   2  11
ATOM     11  C   UNL     1       0.865  -0.874  -0.249  0.00  0.00    +0.045 A 
ATOM     12  C   UNL     1       1.773  -1.917  -0.074  0.00  0.00    +0.014 A 
ATOM     13  C   UNL     1       1.318  -3.216   0.027  0.00  0.00    +0.001 A 
ATOM     14  C   UNL     1      -0.037  -3.487  -0.044  0.00  0.00    +0.004 A 
ATOM     15  C   UNL     1      -0.946  -2.460  -0.217  0.00  0.00    +0.046 A 
ATOM     16  C   UNL     1      -0.504  -1.151  -0.315  0.00  0.00    +0.126 A 
BRANCH  16  17
ATOM     17  O   UNL     1      -1.397  -0.140  -0.480  0.00  0.00    -0.506 OA
ATOM     18  H   UNL     1      -1.595   0.063  -1.404  0.00  0.00    +0.292 HD
ENDBRANCH  16  17
ENDBRANCH   2  11
BRANCH   1  19
ATOM     19  N   UNL     1       3.783   0.114  -0.135  0.00  0.00    -0.323 N 
ATOM     20  H   UNL     1       3.715  -0.423   0.716  0.00  0.00    +0.148 HD
BRANCH  19  21
ATOM     21  C   UNL     1       5.021   0.905  -0.161  0.00  0.00    +0.028 C 
ATOM     22  C   UNL     1       5.102   1.683  -1.475  0.00  0.00    +0.031 C 
ATOM     23  C   UNL     1       5.024   1.885   1.014  0.00  0.00    +0.031 C 
BRANCH  21  25
ATOM     24  C   UNL     1       7.516   0.792  -0.073  0.00  0.00    +0.006 C 
ATOM     25  C   UNL     1       6.226  -0.031  -0.047  0.00  0.00    +0.022 C 
ENDBRANCH  21  25
ENDBRANCH  19  21
ENDBRANCH   1  19
TORSDOF 5
