REMARK  Name = ZINC05063728
REMARK  7 active torsions:
REMARK  status: ('A' for Active; 'I' for Inactive)
REMARK    1  A    between atoms: C_1  and  C_2
REMARK    2  A    between atoms: C_2  and  O_3
REMARK    3  A    between atoms: O_3  and  C_4
REMARK    4  A    between atoms: C_7  and  S_10
REMARK    5  A    between atoms: S_10  and  N_13
REMARK    6  A    between atoms: C_15  and  C_19
REMARK    7  A    between atoms: C_22  and  N_25
REMARK                            x       y       z     vdW  Elec       q    Type
REMARK                         _______ _______ _______ _____ _____    ______ ____
ROOT
ATOM      1  N   UNL     1      -4.517   0.310   0.539  0.00  0.00    -0.134 N 
ATOM      2  C   UNL     1      -3.553   1.192   0.872  0.00  0.00    +0.146 A 
ATOM      3  C   UNL     1      -2.505   1.002   0.019  0.00  0.00    +0.043 A 
ATOM      4  C   UNL     1      -2.856  -0.050  -0.858  0.00  0.00    +0.148 A 
ATOM      5  N   UNL     1      -4.060  -0.457  -0.539  0.00  0.00    -0.134 NA
ATOM      6  N   UNL     1      -2.058  -0.566  -1.884  0.00  0.00    -0.341 N 
ATOM      7  H   UNL     1      -1.176  -0.197  -2.044  0.00  0.00    +0.144 HD
ATOM      8  H   UNL     1      -2.388  -1.292  -2.436  0.00  0.00    +0.144 HD
ENDROOT
BRANCH   3   9
ATOM      9  C   UNL     1      -1.228   1.757   0.017  0.00  0.00    -0.013 A 
ATOM     10  C   UNL     1      -0.013   1.076   0.008  0.00  0.00    +0.011 A 
ATOM     11  C   UNL     1       1.172   1.783   0.000  0.00  0.00    +0.033 A 
ATOM     12  C   UNL     1       1.155   3.167   0.007  0.00  0.00    +0.126 A 
ATOM     13  C   UNL     1      -0.048   3.848   0.022  0.00  0.00    +0.033 A 
ATOM     14  C   UNL     1      -1.239   3.151   0.030  0.00  0.00    +0.011 A 
BRANCH  12  15
ATOM     15  N   UNL     1       2.429   3.920  -0.002  0.00  0.00    +0.056 N 
ATOM     16  O   UNL     1       3.490   3.322  -0.015  0.00  0.00    -0.126 OA
ATOM     17  O   UNL     1       2.417   5.138   0.004  0.00  0.00    -0.126 OA
ENDBRANCH  12  15
ENDBRANCH   3   9
BRANCH   1  18
ATOM     18  S   UNL     1      -5.988   0.155   1.285  0.00  0.00    +0.099 S 
ATOM     19  O   UNL     1      -6.268   1.407   1.895  0.00  0.00    -0.146 OA
ATOM     20  O   UNL     1      -6.862  -0.443   0.338  0.00  0.00    -0.146 OA
BRANCH  18  24
ATOM     21  C   UNL     1      -5.476  -2.837   4.645  0.00  0.00    +0.121 A 
ATOM     22  C   UNL     1      -5.268  -1.486   4.880  0.00  0.00    +0.047 A 
ATOM     23  C   UNL     1      -5.425  -0.575   3.854  0.00  0.00    +0.032 A 
ATOM     24  C   UNL     1      -5.789  -1.009   2.592  0.00  0.00    +0.113 A 
ATOM     25  C   UNL     1      -6.003  -2.355   2.357  0.00  0.00    +0.032 A 
ATOM     26  C   UNL     1      -5.842  -3.271   3.379  0.00  0.00    +0.047 A 
BRANCH  21  27
ATOM     27  O   UNL     1      -5.323  -3.736   5.654  0.00  0.00    -0.492 OA
BRANCH  27  29
ATOM     28  C   UNL     1      -5.335  -5.964   6.590  0.00  0.00    +0.048 C 
ATOM     29  C   UNL     1      -5.553  -5.110   5.339  0.00  0.00    +0.225 C 
ENDBRANCH  27  29
ENDBRANCH  21  27
ENDBRANCH  18  24
ENDBRANCH   1  18
TORSDOF 6
