REMARK  Name = ZINC33624917
REMARK  7 active torsions:
REMARK  status: ('A' for Active; 'I' for Inactive)
REMARK    1  A    between atoms: C_4  and  C_7
REMARK    2  A    between atoms: C_7  and  N_8
REMARK    3  A    between atoms: C_13  and  C_31
REMARK    4  A    between atoms: C_16  and  C_21
REMARK    5  A    between atoms: C_16  and  C_28
REMARK    6  A    between atoms: C_21  and  C_22
REMARK    7  A    between atoms: C_36  and  O_37
REMARK                            x       y       z     vdW  Elec       q    Type
REMARK                         _______ _______ _______ _____ _____    ______ ____
ROOT
ATOM      1  N   UNL     1       5.114  -0.893   1.476  0.00  0.00    -0.237 N 
ATOM      2  C   UNL     1       5.958  -0.111   2.224  0.00  0.00    +0.225 C 
ATOM      3  O   UNL     1       6.449   0.953   1.915  0.00  0.00    -0.275 OA
ATOM      4  C   UNL     1       6.134  -0.836   3.459  0.00  0.00    +0.077 C 
ATOM      5  C   UNL     1       6.540  -0.617   4.857  0.00  0.00    -0.023 C 
ATOM      6  N   UNL     1       6.173  -1.926   5.500  0.00  0.00    +0.396 N 
ATOM      7  C   UNL     1       5.117  -2.566   4.661  0.00  0.00    +0.048 C 
ATOM      8  C   UNL     1       4.706  -1.485   3.651  0.00  0.00    +0.086 C 
ATOM      9  C   UNL     1       4.514  -1.876   2.212  0.00  0.00    +0.225 C 
ATOM     10  O   UNL     1       3.946  -2.861   1.792  0.00  0.00    -0.275 OA
ATOM     11  H   UNL     1       6.984  -2.524   5.544  0.00  0.00    -0.083 HD
ATOM     12  H   UNL     1       5.818  -1.762   6.431  0.00  0.00    -0.083 HD
ENDROOT
BRANCH   5  13
ATOM     13  C   UNL     1       8.023  -0.367   4.954  0.00  0.00    -0.019 A 
ATOM     14  C   UNL     1       8.892  -1.425   5.139  0.00  0.00    +0.005 A 
ATOM     15  C   UNL     1      10.253  -1.196   5.228  0.00  0.00    +0.000 A 
ATOM     16  C   UNL     1      10.747   0.092   5.131  0.00  0.00    +0.004 A 
ATOM     17  C   UNL     1       9.883   1.153   4.945  0.00  0.00    +0.045 A 
ATOM     18  C   UNL     1       8.517   0.925   4.850  0.00  0.00    +0.118 A 
BRANCH  18  19
ATOM     19  O   UNL     1       7.665   1.967   4.661  0.00  0.00    -0.507 OA
ATOM     20  H   UNL     1       7.345   2.367   5.482  0.00  0.00    +0.292 HD
ENDBRANCH  18  19
ENDBRANCH   5  13
BRANCH   7  21
ATOM     21  C   UNL     1       3.933  -2.945   5.513  0.00  0.00    +0.346 C 
ATOM     22  O   UNL     1       3.884  -2.595   6.680  0.00  0.00    -0.248 OA
ATOM     23  O   UNL     1       3.023  -3.602   5.035  0.00  0.00    -0.248 OA
ENDBRANCH   7  21
BRANCH   1  24
ATOM     24  C   UNL     1       4.877  -0.693   0.044  0.00  0.00    +0.151 C 
BRANCH  24  28
ATOM     25  C   UNL     1       1.605   2.000  -0.495  0.00  0.00    +0.000 A 
ATOM     26  C   UNL     1       2.894   2.489  -0.403  0.00  0.00    +0.000 A 
ATOM     27  C   UNL     1       3.953   1.618  -0.228  0.00  0.00    +0.005 A 
ATOM     28  C   UNL     1       3.722   0.257  -0.145  0.00  0.00    -0.030 A 
ATOM     29  C   UNL     1       2.433  -0.232  -0.237  0.00  0.00    +0.005 A 
ATOM     30  C   UNL     1       1.374   0.640  -0.413  0.00  0.00    +0.000 A 
ENDBRANCH  24  28
ENDBRANCH   1  24
BRANCH   7  31
ATOM     31  C   UNL     1       5.679  -3.801   3.954  0.00  0.00    +0.003 C 
BRANCH  31  32
ATOM     32  C   UNL     1       6.316  -4.734   4.986  0.00  0.00    -0.012 C 
ATOM     33  C   UNL     1       5.224  -5.328   5.879  0.00  0.00    +0.003 C 
ATOM     34  C   UNL     1       5.861  -6.262   6.910  0.00  0.00    +0.000 C 
ATOM     35  C   UNL     1       6.600  -7.390   6.190  0.00  0.00    +0.000 C 
ATOM     36  C   UNL     1       7.692  -6.796   5.297  0.00  0.00    +0.000 C 
ATOM     37  C   UNL     1       7.055  -5.863   4.265  0.00  0.00    +0.003 C 
ENDBRANCH  31  32
ENDBRANCH   7  31
TORSDOF 7
