REMARK  Name = ZINC06526960
REMARK  5 active torsions:
REMARK  status: ('A' for Active; 'I' for Inactive)
REMARK    1  A    between atoms: C_3  and  C_6
REMARK    2  A    between atoms: C_6  and  N_7
REMARK    3  A    between atoms: N_7  and  C_8
REMARK    4  A    between atoms: C_8  and  C_9
REMARK    5  A    between atoms: N_18  and  C_19
REMARK                            x       y       z     vdW  Elec       q    Type
REMARK                         _______ _______ _______ _____ _____    ______ ____
ROOT
ATOM      1  N   UNL     1       4.101   0.607   1.347  0.00  0.00    -0.274 N 
ATOM      2  C   UNL     1       4.359   1.765   1.986  0.00  0.00    +0.303 C 
ATOM      3  O   UNL     1       4.775   1.750   3.128  0.00  0.00    -0.253 OA
ATOM      4  N   UNL     1       4.155   2.940   1.358  0.00  0.00    -0.296 N 
ATOM      5  H   UNL     1       3.823   2.952   0.447  0.00  0.00    +0.151 HD
ENDROOT
BRANCH   4   6
ATOM      6  C   UNL     1       4.435   4.199   2.053  0.00  0.00    +0.074 C 
ATOM      7  C   UNL     1       3.219   4.602   2.889  0.00  0.00    +0.022 C 
ATOM      8  C   UNL     1       3.512   5.917   3.614  0.00  0.00    +0.002 C 
ATOM      9  C   UNL     1       3.809   7.011   2.587  0.00  0.00    +0.000 C 
ATOM     10  C   UNL     1       5.026   6.608   1.750  0.00  0.00    +0.002 C 
ATOM     11  C   UNL     1       4.733   5.293   1.025  0.00  0.00    +0.022 C 
ENDBRANCH   4   6
BRANCH   1  12
ATOM     12  C   UNL     1       3.599   0.625  -0.029  0.00  0.00    +0.183 C 
BRANCH  12  15
ATOM     13  C   UNL     1      -0.016   1.341   0.009  0.00  0.00    +0.041 A 
ATOM     14  C   UNL     1       1.331   1.769  -0.001  0.00  0.00    +0.046 A 
ATOM     15  C   UNL     1       2.092   0.660  -0.014  0.00  0.00    +0.122 A 
ATOM     16  O   UNL     1       1.282  -0.411  -0.012  0.00  0.00    -0.466 OA
ATOM     17  C   UNL     1       0.002  -0.004   0.002  0.00  0.00    +0.195 A 
ENDBRANCH  12  15
ENDBRANCH   1  12
BRANCH   1  18
ATOM     18  C   UNL     1       4.322  -0.671   2.029  0.00  0.00    +0.145 C 
BRANCH  18  19
ATOM     19  C   UNL     1       5.732  -1.138   1.776  0.00  0.00    -0.030 A 
ATOM     20  C   UNL     1       6.011  -1.933   0.679  0.00  0.00    +0.006 A 
ATOM     21  C   UNL     1       7.305  -2.360   0.447  0.00  0.00    +0.015 A 
ATOM     22  C   UNL     1       8.320  -1.993   1.311  0.00  0.00    +0.018 A 
ATOM     23  C   UNL     1       8.041  -1.198   2.408  0.00  0.00    +0.015 A 
ATOM     24  C   UNL     1       6.748  -0.766   2.637  0.00  0.00    +0.006 A 
ATOM     25 BR   UNL     1      10.090  -2.579   0.993  0.00  0.00    -0.050 Br
ENDBRANCH  18  19
ENDBRANCH   1  18
TORSDOF 5
