REMARK  Name = ZINC13980080
REMARK  11 active torsions:
REMARK  status: ('A' for Active; 'I' for Inactive)
REMARK    1  A    between atoms: C_1  and  C_2
REMARK    2  A    between atoms: C_2  and  C_3
REMARK    3  A    between atoms: C_2  and  C_4
REMARK    4  A    between atoms: C_9  and  O_10
REMARK    5  A    between atoms: O_10  and  C_11
REMARK    6  A    between atoms: C_11  and  C_12
REMARK    7  A    between atoms: N_14  and  N_15
REMARK    8  A    between atoms: N_15  and  C_16
REMARK    9  A    between atoms: C_16  and  N_18
REMARK   10  A    between atoms: C_19  and  C_21
REMARK   11  A    between atoms: C_24  and  C_27
REMARK                            x       y       z     vdW  Elec       q    Type
REMARK                         _______ _______ _______ _____ _____    ______ ____
ROOT
ATOM      1  C   UNL     1       1.147   1.655   0.000  0.00  0.00    +0.153 C 
ATOM      2  S   UNL     1       1.124   3.367   0.009  0.00  0.00    -0.017 S 
ENDROOT
BRANCH   1   3
ATOM      3  N   UNL     1      -0.011   0.966   0.007  0.00  0.00    -0.263 N 
ATOM      4  C   UNL     1      -1.187   1.624   0.017  0.00  0.00    +0.250 C 
ATOM      5  O   UNL     1      -1.204   2.839   0.023  0.00  0.00    -0.270 OA
ATOM      6  H   UNL     1       0.002  -0.004   0.002  0.00  0.00    +0.157 HD
BRANCH   4   7
ATOM      7  C   UNL     1      -2.456   0.868   0.018  0.00  0.00    +0.037 A 
ATOM      8  C   UNL     1      -2.438  -0.529   0.005  0.00  0.00    +0.013 A 
ATOM      9  C   UNL     1      -3.621  -1.232   0.013  0.00  0.00    +0.009 A 
ATOM     10  C   UNL     1      -4.838  -0.551   0.023  0.00  0.00    -0.018 A 
ATOM     11  C   UNL     1      -4.858   0.844   0.030  0.00  0.00    +0.009 A 
ATOM     12  C   UNL     1      -3.676   1.550   0.028  0.00  0.00    +0.013 A 
BRANCH  10  13
ATOM     13  C   UNL     1      -6.112  -1.309   0.025  0.00  0.00    -0.018 A 
ATOM     14  C   UNL     1      -7.330  -0.631   0.039  0.00  0.00    +0.008 A 
ATOM     15  C   UNL     1      -8.512  -1.343   0.036  0.00  0.00    +0.001 A 
ATOM     16  C   UNL     1      -8.491  -2.726   0.029  0.00  0.00    +0.000 A 
ATOM     17  C   UNL     1      -7.285  -3.404   0.020  0.00  0.00    +0.001 A 
ATOM     18  C   UNL     1      -6.096  -2.703   0.017  0.00  0.00    +0.008 A 
ENDBRANCH  10  13
ENDBRANCH   4   7
ENDBRANCH   1   3
BRANCH   1  19
ATOM     19  N   UNL     1       2.323   0.998  -0.015  0.00  0.00    -0.245 N 
ATOM     20  H   UNL     1       3.156   1.494  -0.020  0.00  0.00    +0.172 HD
BRANCH  19  23
ATOM     21  C   UNL     1       3.518  -1.061  -0.037  0.00  0.00    +0.267 C 
ATOM     22  O   UNL     1       4.560  -0.441  -0.044  0.00  0.00    -0.271 OA
ATOM     23  N   UNL     1       2.342  -0.403  -0.022  0.00  0.00    -0.232 N 
ATOM     24  H   UNL     1       1.509  -0.900  -0.017  0.00  0.00    +0.173 HD
BRANCH  21  25
ATOM     25  C   UNL     1       3.539  -2.568  -0.045  0.00  0.00    +0.326 C 
BRANCH  25  26
ATOM     26  O   UNL     1       4.892  -3.026  -0.061  0.00  0.00    -0.482 OA
BRANCH  26  32
ATOM     27  C   UNL     1       6.377  -4.885  -0.085  0.00  0.00    -0.003 A 
ATOM     28  C   UNL     1       6.574  -6.252  -0.094  0.00  0.00    +0.007 A 
ATOM     29  C   UNL     1       5.488  -7.108  -0.089  0.00  0.00    +0.001 A 
ATOM     30  C   UNL     1       4.203  -6.598  -0.073  0.00  0.00    +0.004 A 
ATOM     31  C   UNL     1       4.001  -5.232  -0.059  0.00  0.00    +0.046 A 
ATOM     32  C   UNL     1       5.088  -4.371  -0.070  0.00  0.00    +0.125 A 
BRANCH  27  34
ATOM     33  C   UNL     1       8.419  -4.210   1.149  0.00  0.00    +0.012 C 
ATOM     34  C   UNL     1       7.561  -3.952  -0.091  0.00  0.00    +0.016 C 
ATOM     35  C   UNL     1       8.396  -4.196  -1.349  0.00  0.00    +0.012 C 
ENDBRANCH  27  34
ENDBRANCH  26  32
ENDBRANCH  25  26
ENDBRANCH  21  25
ENDBRANCH  19  23
ENDBRANCH   1  19
TORSDOF 9
