REMARK  Name = ZINC16033014
REMARK  7 active torsions:
REMARK  status: ('A' for Active; 'I' for Inactive)
REMARK    1  A    between atoms: C_1  and  C_2
REMARK    2  A    between atoms: C_2  and  C_3
REMARK    3  A    between atoms: C_17  and  C_20
REMARK    4  A    between atoms: C_20  and  C_21
REMARK    5  A    between atoms: N_26  and  C_29
REMARK    6  A    between atoms: C_29  and  C_30
REMARK    7  A    between atoms: C_30  and  C_31
REMARK                            x       y       z     vdW  Elec       q    Type
REMARK                         _______ _______ _______ _____ _____    ______ ____
ROOT
ATOM      1  C   UNL     1       0.731  -0.503   1.223  0.00  0.00    -0.026 A 
ATOM      2  C   UNL     1       2.075  -0.807   1.146  0.00  0.00    +0.005 A 
ATOM      3  C   UNL     1       2.752  -1.266   2.260  0.00  0.00    +0.001 A 
ATOM      4  C   UNL     1       2.079  -1.421   3.459  0.00  0.00    +0.008 A 
ATOM      5  C   UNL     1       0.739  -1.120   3.541  0.00  0.00    +0.004 A 
ATOM      6  C   UNL     1       0.048  -0.651   2.427  0.00  0.00    +0.042 A 
ATOM      7  N   UNL     1      -1.288  -0.407   2.755  0.00  0.00    -0.283 N 
ATOM      8  C   UNL     1      -1.552  -0.680   4.047  0.00  0.00    +0.243 C 
ATOM      9  O   UNL     1      -2.621  -0.561   4.608  0.00  0.00    -0.273 OA
ATOM     10  C   UNL     1      -0.268  -1.175   4.655  0.00  0.00    +0.136 C 
ATOM     11  C   UNL     1       0.152  -0.296   5.839  0.00  0.00    +0.122 C 
ATOM     12  C   UNL     1      -0.330  -1.075   7.095  0.00  0.00    +0.107 C 
ATOM     13  C   UNL     1      -0.997  -2.351   6.537  0.00  0.00    +0.076 C 
ATOM     14  N   UNL     1      -0.406  -2.542   5.194  0.00  0.00    -0.295 NA
ATOM     15  C   UNL     1      -1.383  -0.165   7.686  0.00  0.00    +0.227 C 
ATOM     16  O   UNL     1      -2.022  -0.393   8.691  0.00  0.00    -0.275 OA
ATOM     17  N   UNL     1      -1.500   0.931   6.928  0.00  0.00    -0.241 N 
ATOM     18  C   UNL     1      -0.676   0.969   5.856  0.00  0.00    +0.228 C 
ATOM     19  O   UNL     1      -0.607   1.862   5.039  0.00  0.00    -0.275 OA
ATOM     20  H   UNL     1      -1.948  -0.079   2.125  0.00  0.00    +0.155 HD
ATOM     21  H   UNL     1      -1.004  -3.103   4.606  0.00  0.00    +0.124 HD
ENDROOT
BRANCH   1  23
ATOM     22  C   UNL     1      -0.019   1.526   0.010  0.00  0.00    +0.009 C 
ATOM     23  C   UNL     1       0.002  -0.004   0.002  0.00  0.00    +0.033 C 
ENDBRANCH   1  23
BRANCH  13  24
ATOM     24  C   UNL     1      -0.701  -3.546   7.444  0.00  0.00    +0.115 C 
BRANCH  24  25
ATOM     25  C   UNL     1      -1.459  -4.752   6.951  0.00  0.00    +0.212 C 
ATOM     26  O   UNL     1      -2.168  -4.663   5.971  0.00  0.00    -0.276 OA
ATOM     27  N   UNL     1      -1.351  -5.928   7.600  0.00  0.00    -0.329 N 
ATOM     28  H   UNL     1      -0.784  -5.999   8.384  0.00  0.00    +0.145 HD
ATOM     29  H   UNL     1      -1.839  -6.704   7.283  0.00  0.00    +0.145 HD
ENDBRANCH  24  25
ENDBRANCH  13  24
BRANCH  17  30
ATOM     30  C   UNL     1      -2.441   2.011   7.236  0.00  0.00    +0.121 C 
BRANCH  30  31
ATOM     31  C   UNL     1      -1.758   3.043   8.135  0.00  0.00    +0.054 C 
BRANCH  31  32
ATOM     32  C   UNL     1      -2.726   4.153   8.451  0.00  0.00    -0.046 A 
ATOM     33  C   UNL     1      -2.804   5.259   7.625  0.00  0.00    +0.004 A 
ATOM     34  C   UNL     1      -3.692   6.277   7.916  0.00  0.00    +0.000 A 
ATOM     35  C   UNL     1      -4.503   6.190   9.032  0.00  0.00    +0.000 A 
ATOM     36  C   UNL     1      -4.426   5.084   9.858  0.00  0.00    +0.000 A 
ATOM     37  C   UNL     1      -3.540   4.064   9.565  0.00  0.00    +0.004 A 
ENDBRANCH  31  32
ENDBRANCH  30  31
ENDBRANCH  17  30
TORSDOF 6
