REMARK  Name = ZINC53363064
REMARK  8 active torsions:
REMARK  status: ('A' for Active; 'I' for Inactive)
REMARK    1  A    between atoms: C_1  and  C_2
REMARK    2  A    between atoms: C_2  and  O_3
REMARK    3  A    between atoms: O_3  and  C_4
REMARK    4  A    between atoms: C_7  and  C_10
REMARK    5  A    between atoms: C_12  and  C_25
REMARK    6  A    between atoms: C_15  and  C_18
REMARK    7  A    between atoms: C_23  and  O_24
REMARK    8  A    between atoms: C_28  and  C_31
REMARK                            x       y       z     vdW  Elec       q    Type
REMARK                         _______ _______ _______ _____ _____    ______ ____
ROOT
ATOM      1  C   UNL     1       1.108  -6.011  -1.843  0.00  0.00    +0.047 C 
ATOM      2  N   UNL     1       0.601  -6.775  -0.949  0.00  0.00    -0.264 NA
ATOM      3  C   UNL     1       0.652  -8.231  -0.994  0.00  0.00    +0.204 C 
ATOM      4  N   UNL     1       0.966  -8.697  -2.349  0.00  0.00    -0.284 NA
ATOM      5  C   UNL     1       2.164  -8.009  -2.859  0.00  0.00    +0.095 C 
ATOM      6  C   UNL     1       1.812  -6.531  -3.065  0.00  0.00    +0.079 C 
ATOM      7  H   UNL     1       1.089  -9.699  -2.368  0.00  0.00    +0.125 HD
ENDROOT
BRANCH   3   8
ATOM      8  C   UNL     1      -0.685  -8.787  -0.575  0.00  0.00    -0.009 A 
ATOM      9  C   UNL     1      -1.119  -9.998  -1.082  0.00  0.00    +0.007 A 
ATOM     10  C   UNL     1      -2.345 -10.508  -0.698  0.00  0.00    +0.004 A 
ATOM     11  C   UNL     1      -3.136  -9.809   0.193  0.00  0.00    -0.050 A 
ATOM     12  C   UNL     1      -2.702  -8.599   0.701  0.00  0.00    +0.004 A 
ATOM     13  C   UNL     1      -1.474  -8.090   0.321  0.00  0.00    +0.007 A 
ATOM     14  C   UNL     1      -4.473 -10.365   0.611  0.00  0.00    +0.044 C 
ENDBRANCH   3   8
BRANCH   1  18
ATOM     15  C   UNL     1       0.777  -1.809  -1.336  0.00  0.00    +0.121 A 
ATOM     16  C   UNL     1       0.241  -2.666  -0.383  0.00  0.00    +0.046 A 
ATOM     17  C   UNL     1       0.346  -4.030  -0.543  0.00  0.00    +0.013 A 
ATOM     18  C   UNL     1       0.993  -4.551  -1.667  0.00  0.00    -0.004 A 
ATOM     19  C   UNL     1       1.530  -3.685  -2.623  0.00  0.00    +0.013 A 
ATOM     20  C   UNL     1       1.416  -2.323  -2.458  0.00  0.00    +0.046 A 
BRANCH  15  21
ATOM     21  O   UNL     1       0.671  -0.465  -1.174  0.00  0.00    -0.492 OA
BRANCH  21  23
ATOM     22  C   UNL     1      -0.019   1.526   0.010  0.00  0.00    +0.048 C 
ATOM     23  C   UNL     1       0.002  -0.004   0.002  0.00  0.00    +0.225 C 
ENDBRANCH  21  23
ENDBRANCH  15  21
ENDBRANCH   1  18
BRANCH   5  24
ATOM     24  C   UNL     1       2.581  -8.620  -4.173  0.00  0.00    +0.011 A 
ATOM     25  C   UNL     1       1.647  -9.261  -4.964  0.00  0.00    +0.009 A 
ATOM     26  C   UNL     1       2.029  -9.821  -6.169  0.00  0.00    +0.001 A 
ATOM     27  C   UNL     1       3.345  -9.742  -6.585  0.00  0.00    +0.004 A 
ATOM     28  C   UNL     1       4.282  -9.101  -5.798  0.00  0.00    +0.046 A 
ATOM     29  C   UNL     1       3.901  -8.533  -4.591  0.00  0.00    +0.122 A 
BRANCH  29  30
ATOM     30  O   UNL     1       4.819  -7.897  -3.817  0.00  0.00    -0.506 OA
ATOM     31  H   UNL     1       5.265  -8.474  -3.182  0.00  0.00    +0.292 HD
ENDBRANCH  29  30
ENDBRANCH   5  24
TORSDOF 6
