REMARK  Name = ZINC43396294
REMARK  7 active torsions:
REMARK  status: ('A' for Active; 'I' for Inactive)
REMARK    1  A    between atoms: C_1  and  C_2
REMARK    2  A    between atoms: C_5  and  C_17
REMARK    3  A    between atoms: C_6  and  N_8
REMARK    4  A    between atoms: N_8  and  C_9
REMARK    5  A    between atoms: C_12  and  S_15
REMARK    6  A    between atoms: S_15  and  C_16
REMARK    7  A    between atoms: C_17  and  N_19
REMARK                            x       y       z     vdW  Elec       q    Type
REMARK                         _______ _______ _______ _____ _____    ______ ____
ROOT
ATOM      1  C   UNL     1       2.148   1.047   1.664  0.00  0.00    +0.065 C 
ATOM      2  C   UNL     1       1.489  -0.251   1.275  0.00  0.00    +0.040 A 
ATOM      3  C   UNL     1       2.195  -1.435   1.398  0.00  0.00    +0.024 A 
ATOM      4  C   UNL     1       1.592  -2.628   1.042  0.00  0.00    +0.015 A 
ATOM      5  C   UNL     1       0.276  -2.592   0.564  0.00  0.00    +0.043 A 
ATOM      6  C   UNL     1      -0.375  -1.350   0.468  0.00  0.00    +0.133 A 
ATOM      7  N   UNL     1       0.248  -0.238   0.828  0.00  0.00    -0.236 NA
ENDROOT
BRANCH   6   8
ATOM      8  N   UNL     1      -1.675  -1.289  -0.001  0.00  0.00    -0.299 N 
ATOM      9  H   UNL     1      -2.169  -2.107  -0.171  0.00  0.00    +0.154 HD
BRANCH   8  10
ATOM     10  C   UNL     1      -2.279  -0.047  -0.232  0.00  0.00    +0.032 A 
ATOM     11  C   UNL     1      -1.588   0.945  -0.916  0.00  0.00    +0.024 A 
ATOM     12  C   UNL     1      -2.183   2.170  -1.144  0.00  0.00    +0.016 A 
ATOM     13  C   UNL     1      -3.473   2.410  -0.687  0.00  0.00    +0.008 A 
ATOM     14  C   UNL     1      -4.164   1.418  -0.003  0.00  0.00    +0.016 A 
ATOM     15  C   UNL     1      -3.571   0.192   0.219  0.00  0.00    +0.024 A 
BRANCH  13  16
ATOM     16  S   UNL     1      -4.233   3.974  -0.977  0.00  0.00    -0.129 S 
ATOM     17  C   UNL     1      -5.871   3.813  -0.215  0.00  0.00    +0.090 C 
ENDBRANCH  13  16
ENDBRANCH   8  10
ENDBRANCH   6   8
BRANCH   5  18
ATOM     18  C   UNL     1      -0.412  -3.833   0.170  0.00  0.00    +0.080 C 
ATOM     19  S   UNL     1      -1.277  -4.739   1.337  0.00  0.00    -0.035 S 
BRANCH  18  20
ATOM     20  N   UNL     1      -0.362  -4.254  -1.109  0.00  0.00    -0.352 N 
ATOM     21  H   UNL     1       0.127  -3.740  -1.770  0.00  0.00    +0.143 HD
ATOM     22  H   UNL     1      -0.816  -5.071  -1.369  0.00  0.00    +0.143 HD
ENDBRANCH  18  20
ENDBRANCH   5  18
TORSDOF 5
