REMARK  Name = ZINC20567768
REMARK  4 active torsions:
REMARK  status: ('A' for Active; 'I' for Inactive)
REMARK    1  A    between atoms: C_7  and  C_11
REMARK    2  A    between atoms: C_11  and  C_12
REMARK    3  A    between atoms: N_20  and  C_23
REMARK    4  A    between atoms: C_23  and  C_24
REMARK                            x       y       z     vdW  Elec       q    Type
REMARK                         _______ _______ _______ _____ _____    ______ ____
ROOT
ATOM      1  C   UNL     1       0.236  -3.589  -1.455  0.00  0.00    +0.072 C 
ATOM      2  C   UNL     1      -0.792  -4.740  -1.468  0.00  0.00    +0.107 C 
ATOM      3  C   UNL     1      -0.439  -5.578  -2.728  0.00  0.00    +0.122 C 
ATOM      4  C   UNL     1       0.000  -6.905  -2.151  0.00  0.00    +0.228 C 
ATOM      5  O   UNL     1       0.360  -7.866  -2.797  0.00  0.00    -0.275 OA
ATOM      6  N   UNL     1      -0.069  -6.854  -0.816  0.00  0.00    -0.239 N 
ATOM      7  C   UNL     1      -0.509  -5.676  -0.316  0.00  0.00    +0.227 C 
ATOM      8  O   UNL     1      -0.653  -5.407   0.858  0.00  0.00    -0.275 OA
ATOM      9  C   UNL     1       0.758  -4.850  -3.352  0.00  0.00    +0.136 C 
ATOM     10  N   UNL     1       1.391  -4.098  -2.243  0.00  0.00    -0.295 NA
ATOM     11  C   UNL     1       0.331  -3.953  -4.479  0.00  0.00    +0.005 A 
ATOM     12  C   UNL     1      -0.532  -2.882  -4.563  0.00  0.00    +0.008 A 
ATOM     13  C   UNL     1      -0.724  -2.242  -5.774  0.00  0.00    +0.002 A 
ATOM     14  C   UNL     1      -0.048  -2.679  -6.899  0.00  0.00    +0.022 A 
ATOM     15  C   UNL     1       0.817  -3.752  -6.819  0.00  0.00    +0.062 A 
ATOM     16  C   UNL     1       1.017  -4.402  -5.603  0.00  0.00    +0.057 A 
ATOM     17  N   UNL     1       1.826  -5.491  -5.272  0.00  0.00    -0.282 N 
ATOM     18  C   UNL     1       1.731  -5.817  -3.968  0.00  0.00    +0.243 C 
ATOM     19  O   UNL     1       2.317  -6.715  -3.401  0.00  0.00    -0.273 OA
ATOM     20 CL   UNL     1       1.659  -4.291  -8.238  0.00  0.00    -0.082 Cl
ATOM     21  H   UNL     1       1.949  -3.336  -2.598  0.00  0.00    +0.124 HD
ATOM     22  H   UNL     1       2.391  -5.959  -5.907  0.00  0.00    +0.155 HD
ENDROOT
BRANCH   1  23
ATOM     23  C   UNL     1       0.666  -3.275  -0.021  0.00  0.00    +0.056 C 
BRANCH  23  30
ATOM     24  C   UNL     1      -0.017   1.362   0.009  0.00  0.00    +0.001 A 
ATOM     25  C   UNL     1       1.170   2.083   0.002  0.00  0.00    +0.002 A 
ATOM     26  C   UNL     1       2.386   1.436  -0.013  0.00  0.00    +0.026 A 
ATOM     27  C   UNL     1       2.428   0.046  -0.021  0.00  0.00    +0.047 A 
ATOM     28  C   UNL     1       1.223  -0.681  -0.013  0.00  0.00    +0.003 A 
ATOM     29  C   UNL     1       0.002  -0.004   0.002  0.00  0.00    +0.010 A 
ATOM     30  C   UNL     1       1.604  -2.095  -0.025  0.00  0.00    -0.021 A 
ATOM     31  C   UNL     1       2.945  -2.141  -0.038  0.00  0.00    +0.087 A 
ATOM     32  N   UNL     1       3.455  -0.871  -0.036  0.00  0.00    -0.360 N 
ATOM     33  H   UNL     1       4.399  -0.650  -0.044  0.00  0.00    +0.165 HD
ENDBRANCH  23  30
ENDBRANCH   1  23
BRANCH   6  34
ATOM     34  C   UNL     1       0.296  -7.985   0.041  0.00  0.00    +0.148 C 
BRANCH  34  35
ATOM     35  C   UNL     1       1.783  -7.901   0.391  0.00  0.00    +0.136 C 
ATOM     36  C   UNL     1       2.198  -9.108   1.268  0.00  0.00    +0.035 C 
ATOM     37  C   UNL     1       3.718  -9.188   0.960  0.00  0.00    +0.031 C 
ATOM     38  C   UNL     1       3.776  -8.750  -0.519  0.00  0.00    +0.160 C 
ATOM     39  O   UNL     1       2.582  -8.006  -0.798  0.00  0.00    -0.375 OA
ENDBRANCH  34  35
ENDBRANCH   6  34
TORSDOF 4
