REMARK  Name = ZINC39697738
REMARK  8 active torsions:
REMARK  status: ('A' for Active; 'I' for Inactive)
REMARK    1  A    between atoms: C_1  and  C_2
REMARK    2  A    between atoms: C_9  and  C_14
REMARK    3  A    between atoms: C_15  and  N_24
REMARK    4  A    between atoms: C_19  and  C_23
REMARK    5  A    between atoms: N_24  and  C_25
REMARK    6  A    between atoms: C_25  and  C_26
REMARK    7  A    between atoms: C_26  and  O_27
REMARK    8  A    between atoms: O_27  and  C_28
REMARK                            x       y       z     vdW  Elec       q    Type
REMARK                         _______ _______ _______ _____ _____    ______ ____
ROOT
ATOM      1  C   UNL     1       1.300  -4.867   2.923  0.00  0.00    +0.072 A 
ATOM      2  C   UNL     1       1.307  -5.602   4.064  0.00  0.00    +0.125 A 
ATOM      3  N   UNL     1       2.616  -5.846   4.378  0.00  0.00    -0.289 N 
ATOM      4  C   UNL     1       3.212  -6.527   5.404  0.00  0.00    +0.094 A 
ATOM      5  C   UNL     1       4.555  -6.618   5.479  0.00  0.00    +0.021 A 
ATOM      6  C   UNL     1       5.364  -6.013   4.500  0.00  0.00    -0.046 A 
ATOM      7  C   UNL     1       4.788  -5.333   3.474  0.00  0.00    +0.048 A 
ATOM      8  C   UNL     1       3.382  -5.244   3.406  0.00  0.00    +0.117 A 
ATOM      9  N   UNL     1       2.566  -4.666   2.538  0.00  0.00    -0.341 N 
ATOM     10  C   UNL     1       6.864  -6.117   4.590  0.00  0.00    +0.044 C 
ATOM     11  H   UNL     1       2.842  -4.173   1.750  0.00  0.00    +0.167 HD
ENDROOT
BRANCH   1  20
ATOM     12  C   UNL     1      -0.018   1.503   0.010  0.00  0.00    +0.044 C 
ATOM     13  C   UNL     1       0.002  -0.004   0.002  0.00  0.00    -0.050 A 
ATOM     14  C   UNL     1       0.005  -0.680  -1.218  0.00  0.00    +0.005 A 
ATOM     15  C   UNL     1       0.024  -2.036  -1.305  0.00  0.00    +0.024 A 
ATOM     16  C   UNL     1       0.041  -2.826  -0.141  0.00  0.00    +0.040 A 
ATOM     17  N   UNL     1       0.059  -4.155  -0.238  0.00  0.00    -0.284 N 
ATOM     18  C   UNL     1       0.075  -4.956   0.815  0.00  0.00    +0.230 C 
ATOM     19  O   UNL     1       0.092  -6.163   0.663  0.00  0.00    -0.274 OA
ATOM     20  C   UNL     1       0.073  -4.365   2.207  0.00  0.00    +0.148 C 
ATOM     21  C   UNL     1       0.053  -2.854   2.322  0.00  0.00    +0.001 C 
ATOM     22  C   UNL     1       0.037  -2.138   1.162  0.00  0.00    -0.006 A 
ATOM     23  C   UNL     1       0.022  -0.675   1.183  0.00  0.00    +0.012 A 
ATOM     24  H   UNL     1       0.061  -4.554  -1.122  0.00  0.00    +0.155 HD
ENDBRANCH   1  20
BRANCH   2  25
ATOM     25  N   UNL     1       0.185  -6.030   4.784  0.00  0.00    -0.327 N 
ATOM     26  H   UNL     1      -0.706  -5.802   4.475  0.00  0.00    +0.148 HD
BRANCH  25  27
ATOM     27  C   UNL     1       0.356  -6.822   6.005  0.00  0.00    +0.131 C 
BRANCH  27  28
ATOM     28  C   UNL     1      -1.016  -7.157   6.592  0.00  0.00    +0.178 C 
BRANCH  28  29
ATOM     29  O   UNL     1      -1.728  -8.004   5.688  0.00  0.00    -0.381 OA
ATOM     30  C   UNL     1      -3.029  -8.378   6.144  0.00  0.00    +0.194 C 
ENDBRANCH  28  29
ENDBRANCH  27  28
ENDBRANCH  25  27
ENDBRANCH   2  25
TORSDOF 5
