REMARK  Name = ZINC54430410
REMARK  5 active torsions:
REMARK  status: ('A' for Active; 'I' for Inactive)
REMARK    1  A    between atoms: C_1  and  N_2
REMARK    2  A    between atoms: N_2  and  C_3
REMARK    3  A    between atoms: C_6  and  C_12
REMARK    4  A    between atoms: C_8  and  N_9
REMARK    5  A    between atoms: N_23  and  C_24
REMARK                            x       y       z     vdW  Elec       q    Type
REMARK                         _______ _______ _______ _____ _____    ______ ____
ROOT
ATOM      1  C   UNL     1      -4.870  -2.812  -0.501  0.00  0.00    +0.192 C 
ATOM      2  N   UNL     1      -4.638  -3.874  -1.488  0.00  0.00    -0.321 N 
ATOM      3  C   UNL     1      -4.487  -3.518  -2.823  0.00  0.00    +0.042 A 
ATOM      4  C   UNL     1      -3.710  -4.260  -3.696  0.00  0.00    +0.043 A 
ATOM      5  C   UNL     1      -3.589  -3.859  -5.014  0.00  0.00    +0.043 A 
ATOM      6  C   UNL     1      -4.239  -2.719  -5.466  0.00  0.00    +0.021 A 
ATOM      7  C   UNL     1      -5.017  -1.970  -4.609  0.00  0.00    +0.016 A 
ATOM      8  C   UNL     1      -5.150  -2.365  -3.280  0.00  0.00    +0.058 A 
ATOM      9  C   UNL     1      -5.978  -1.607  -2.325  0.00  0.00    +0.250 C 
ATOM     10  O   UNL     1      -6.759  -0.764  -2.723  0.00  0.00    -0.270 OA
ATOM     11  N   UNL     1      -5.858  -1.860  -1.009  0.00  0.00    -0.278 N 
ATOM     12  C   UNL     1      -6.738  -1.165  -0.066  0.00  0.00    +0.134 C 
ATOM     13 CL   UNL     1      -2.616  -4.788  -6.111  0.00  0.00    -0.083 Cl
ATOM     14  H   UNL     1      -4.591  -4.803  -1.214  0.00  0.00    +0.148 HD
ENDROOT
BRANCH   1  18
ATOM     15  C   UNL     1      -1.198  -0.764   0.266  0.00  0.00    +0.057 A 
ATOM     16  C   UNL     1      -2.408  -0.090   0.379  0.00  0.00    +0.025 A 
ATOM     17  C   UNL     1      -3.592  -0.755   0.131  0.00  0.00    +0.009 A 
ATOM     18  C   UNL     1      -3.575  -2.090  -0.231  0.00  0.00    -0.007 A 
ATOM     19  C   UNL     1      -2.373  -2.763  -0.344  0.00  0.00    +0.041 A 
ATOM     20  C   UNL     1      -1.184  -2.103  -0.103  0.00  0.00    +0.147 A 
BRANCH  15  22
ATOM     21  C   UNL     1      -0.003   1.348   0.772  0.00  0.00    +0.125 C 
ATOM     22  N   UNL     1       0.002  -0.095   0.516  0.00  0.00    -0.345 N 
ATOM     23  H   UNL     1       0.839  -0.585   0.520  0.00  0.00    +0.146 HD
ENDBRANCH  15  22
BRANCH  20  24
ATOM     24  N   UNL     1       0.102  -2.823  -0.230  0.00  0.00    +0.058 N 
ATOM     25  O   UNL     1       1.069  -2.258  -0.686  0.00  0.00    -0.126 OA
ATOM     26  O   UNL     1       0.187  -3.977   0.121  0.00  0.00    -0.126 OA
ENDBRANCH  20  24
ENDBRANCH   1  18
TORSDOF 3
