REMARK  Name = ZINC04648811
REMARK  7 active torsions:
REMARK  status: ('A' for Active; 'I' for Inactive)
REMARK    1  A    between atoms: C_1  and  C_2
REMARK    2  A    between atoms: C_2  and  O_3
REMARK    3  A    between atoms: O_3  and  C_4
REMARK    4  A    between atoms: C_4  and  C_6
REMARK    5  A    between atoms: C_10  and  C_31
REMARK    6  A    between atoms: C_22  and  C_30
REMARK    7  A    between atoms: C_27  and  O_29
REMARK                            x       y       z     vdW  Elec       q    Type
REMARK                         _______ _______ _______ _____ _____    ______ ____
ROOT
ATOM      1  C   UNL     1       1.404   2.079  -0.000  0.00  0.00    +0.098 C 
ATOM      2  C   UNL     1      -0.019   1.522   0.010  0.00  0.00    +0.015 C 
ATOM      3  C   UNL     1       0.002  -0.004   0.002  0.00  0.00    +0.008 C 
ATOM      4  C   UNL     1       0.763  -0.532  -1.220  0.00  0.00    -0.026 C 
ATOM      5  C   UNL     1       2.187   0.040  -1.189  0.00  0.00    -0.004 C 
ATOM      6  C   UNL     1       2.153   1.563  -1.233  0.00  0.00    +0.018 C 
ATOM      7  C   UNL     1       3.058  -0.522  -2.306  0.00  0.00    +0.004 C 
ATOM      8  C   UNL     1       3.134  -2.057  -2.205  0.00  0.00    +0.004 C 
ATOM      9  C   UNL     1       1.713  -2.585  -2.294  0.00  0.00    -0.004 C 
ATOM     10  C   UNL     1       0.903  -2.047  -1.108  0.00  0.00    -0.001 C 
ATOM     11  C   UNL     1      -0.399  -2.822  -1.004  0.00  0.00    +0.005 C 
ATOM     12  C   UNL     1      -0.075  -4.224  -0.447  0.00  0.00    +0.010 C 
ATOM     13  C   UNL     1       1.211  -4.736  -1.046  0.00  0.00    -0.003 C 
ATOM     14  C   UNL     1       1.528  -4.064  -2.396  0.00  0.00    +0.001 C 
ATOM     15  C   UNL     1       2.723  -4.889  -2.897  0.00  0.00    +0.007 C 
ATOM     16  C   UNL     1       2.363  -6.337  -2.468  0.00  0.00    +0.032 C 
ATOM     17  C   UNL     1       1.188  -6.221  -1.464  0.00  0.00    +0.121 C 
ATOM     18  C   UNL     1       2.362  -4.574  -0.049  0.00  0.00    +0.014 C 
ATOM     19  C   UNL     1       0.021  -0.141  -2.493  0.00  0.00    +0.012 C 
ENDROOT
BRANCH   1  20
ATOM     20  C   UNL     1       1.357   3.585  -0.034  0.00  0.00    +0.310 C 
ATOM     21  O   UNL     1       1.863   4.184  -0.953  0.00  0.00    -0.251 OA
BRANCH  20  22
ATOM     22  O   UNL     1       0.754   4.260   0.957  0.00  0.00    -0.465 OA
BRANCH  22  24
ATOM     23  C   UNL     1       0.021   6.299   2.069  0.00  0.00    +0.048 C 
ATOM     24  C   UNL     1       0.747   5.709   0.859  0.00  0.00    +0.229 C 
ENDBRANCH  22  24
ENDBRANCH  20  22
ENDBRANCH   1  20
BRANCH  17  25
ATOM     25  O   UNL     1      -0.045  -6.536  -2.105  0.00  0.00    -0.391 OA
ATOM     26  H   UNL     1      -0.089  -7.437  -2.452  0.00  0.00    +0.210 HD
ENDBRANCH  17  25
TORSDOF 4
