REMARK  Name = ZINC40322223
REMARK  7 active torsions:
REMARK  status: ('A' for Active; 'I' for Inactive)
REMARK    1  A    between atoms: C_4  and  C_7
REMARK    2  A    between atoms: C_7  and  C_9
REMARK    3  A    between atoms: C_7  and  N_28
REMARK    4  A    between atoms: C_9  and  N_10
REMARK    5  A    between atoms: C_11  and  C_13
REMARK    6  A    between atoms: C_16  and  S_18
REMARK    7  A    between atoms: S_18  and  C_21
REMARK                            x       y       z     vdW  Elec       q    Type
REMARK                         _______ _______ _______ _____ _____    ______ ____
ROOT
ATOM      1  N   UNL     1       2.653  -1.951   1.775  0.00  0.00    -0.310 N 
ATOM      2  C   UNL     1       2.493  -2.379   3.043  0.00  0.00    +0.279 C 
ATOM      3  O   UNL     1       3.330  -2.115   3.885  0.00  0.00    -0.267 OA
ATOM      4  H   UNL     1       1.985  -2.162   1.104  0.00  0.00    +0.149 HD
ENDROOT
BRANCH   2   5
ATOM      5  C   UNL     1       1.309  -3.164   3.407  0.00  0.00    +0.192 A 
ATOM      6  C   UNL     1       1.022  -3.654   4.649  0.00  0.00    +0.056 A 
ATOM      7  C   UNL     1      -0.199  -4.337   4.542  0.00  0.00    +0.070 A 
ATOM      8  C   UNL     1      -0.599  -4.237   3.255  0.00  0.00    +0.246 A 
ATOM      9  O   UNL     1       0.310  -3.525   2.576  0.00  0.00    -0.433 OA
BRANCH   8  10
ATOM     10  S   UNL     1      -2.076  -4.924   2.583  0.00  0.00    +0.058 S 
ATOM     11  O   UNL     1      -1.851  -5.085   1.189  0.00  0.00    -0.161 OA
ATOM     12  O   UNL     1      -2.439  -6.009   3.426  0.00  0.00    -0.161 OA
BRANCH  10  13
ATOM     13  C   UNL     1      -3.340  -3.709   2.752  0.00  0.00    +0.097 A 
ATOM     14  C   UNL     1      -4.115  -3.673   3.896  0.00  0.00    +0.029 A 
ATOM     15  C   UNL     1      -5.107  -2.719   4.030  0.00  0.00    +0.022 A 
ATOM     16  C   UNL     1      -5.324  -1.801   3.018  0.00  0.00    +0.041 A 
ATOM     17  C   UNL     1      -4.548  -1.838   1.873  0.00  0.00    +0.022 A 
ATOM     18  C   UNL     1      -3.553  -2.788   1.743  0.00  0.00    +0.029 A 
ATOM     19 CL   UNL     1      -6.571  -0.604   3.184  0.00  0.00    -0.084 Cl
ENDBRANCH  10  13
ENDBRANCH   8  10
ENDBRANCH   2   5
BRANCH   1  20
ATOM     20  C   UNL     1       3.835  -1.166   1.411  0.00  0.00    +0.094 C 
BRANCH  20  21
ATOM     21  C   UNL     1       3.709  -0.698  -0.041  0.00  0.00    -0.020 C 
BRANCH  21  22
ATOM     22  N   UNL     1       3.466  -1.857  -0.910  0.00  0.00    +0.385 N 
ATOM     23  C   UNL     1       4.604  -2.789  -0.785  0.00  0.00    -0.078 C 
ATOM     24  C   UNL     1       4.126  -4.172  -1.150  0.00  0.00    -0.019 C 
ATOM     25  C   UNL     1       4.428  -4.503  -2.623  0.00  0.00    -0.002 C 
ATOM     26  C   UNL     1       4.165  -3.296  -3.546  0.00  0.00    -0.002 C 
ATOM     27  C   UNL     1       2.906  -2.555  -3.178  0.00  0.00    -0.019 C 
ATOM     28  C   UNL     1       3.263  -1.403  -2.214  0.00  0.00    -0.078 C 
ATOM     29  H   UNL     1       2.630  -2.326  -0.596  0.00  0.00    -0.081 HD
ENDBRANCH  21  22
BRANCH  21  33
ATOM     30  C   UNL     1       0.448   2.041  -0.377  0.00  0.00    +0.000 A 
ATOM     31  C   UNL     1       1.744   2.515  -0.299  0.00  0.00    +0.000 A 
ATOM     32  C   UNL     1       2.799   1.629  -0.190  0.00  0.00    +0.002 A 
ATOM     33  C   UNL     1       2.559   0.268  -0.159  0.00  0.00    -0.059 A 
ATOM     34  C   UNL     1       1.263  -0.206  -0.236  0.00  0.00    +0.002 A 
ATOM     35  C   UNL     1       0.207   0.680  -0.347  0.00  0.00    +0.000 A 
ENDBRANCH  21  33
ENDBRANCH  20  21
ENDBRANCH   1  20
TORSDOF 7
