REMARK  Name = ZINC63213734
REMARK  7 active torsions:
REMARK  status: ('A' for Active; 'I' for Inactive)
REMARK    1  A    between atoms: C_1  and  C_2
REMARK    2  A    between atoms: C_2  and  C_3
REMARK    3  A    between atoms: C_2  and  C_4
REMARK    4  A    between atoms: C_7  and  S_10
REMARK    5  A    between atoms: S_10  and  N_13
REMARK    6  A    between atoms: N_13  and  C_14
REMARK    7  A    between atoms: C_21  and  N_23
REMARK                            x       y       z     vdW  Elec       q    Type
REMARK                         _______ _______ _______ _____ _____    ______ ____
ROOT
ATOM      1  N   UNL     1      -6.599  -0.977  -0.736  0.00  0.00    -0.188 NA
ATOM      2  H   UNL     1      -7.287  -0.496  -0.249  0.00  0.00    +0.148 HD
ENDROOT
BRANCH   1   3
ATOM      3  C   UNL     1      -6.392  -0.714  -2.163  0.00  0.00    +0.062 C 
ATOM      4  C   UNL     1      -5.428   0.478  -2.315  0.00  0.00    +0.019 C 
ATOM      5  C   UNL     1      -5.474   1.107  -3.721  0.00  0.00    +0.001 C 
ATOM      6  C   UNL     1      -5.541   0.073  -4.812  0.00  0.00    -0.000 C 
ATOM      7  C   UNL     1      -7.021  -0.156  -5.180  0.00  0.00    -0.002 C 
ATOM      8  C   UNL     1      -7.696  -1.038  -4.239  0.00  0.00    -0.015 C 
ATOM      9  C   UNL     1      -7.727  -0.459  -2.809  0.00  0.00    -0.056 C 
BRANCH   9  10
ATOM     10  N   UNL     1      -8.785  -1.118  -2.033  0.00  0.00    +0.381 N 
ATOM     11  H   UNL     1      -8.793  -0.750  -1.093  0.00  0.00    -0.090 HD
ATOM     12  H   UNL     1      -9.679  -0.946  -2.469  0.00  0.00    -0.090 HD
ATOM     13  H   UNL     1      -8.612  -2.112  -2.004  0.00  0.00    -0.090 HD
ENDBRANCH   9  10
ENDBRANCH   1   3
BRANCH   1  14
ATOM     14  S   UNL     1      -5.658  -2.093   0.045  0.00  0.00    +0.059 S 
ATOM     15  O   UNL     1      -5.665  -3.264  -0.760  0.00  0.00    -0.153 OA
ATOM     16  O   UNL     1      -6.078  -2.099   1.403  0.00  0.00    -0.153 OA
BRANCH  14  20
ATOM     17  C   UNL     1      -1.412  -0.526   0.013  0.00  0.00    -0.045 A 
ATOM     18  C   UNL     1      -2.259  -0.204   1.056  0.00  0.00    +0.006 A 
ATOM     19  C   UNL     1      -3.556  -0.683   1.066  0.00  0.00    +0.029 A 
ATOM     20  C   UNL     1      -4.006  -1.482   0.032  0.00  0.00    +0.105 A 
ATOM     21  C   UNL     1      -3.159  -1.803  -1.012  0.00  0.00    +0.029 A 
ATOM     22  C   UNL     1      -1.863  -1.321  -1.024  0.00  0.00    +0.006 A 
BRANCH  17  24
ATOM     23  C   UNL     1      -0.019   1.526   0.010  0.00  0.00    +0.012 C 
ATOM     24  C   UNL     1       0.002  -0.004   0.002  0.00  0.00    +0.013 C 
ATOM     25  C   UNL     1       0.742  -0.511   1.242  0.00  0.00    +0.012 C 
ENDBRANCH  17  24
ENDBRANCH  14  20
ENDBRANCH   1  14
TORSDOF 5
