REMARK  Name = ZINC39550929
REMARK  9 active torsions:
REMARK  status: ('A' for Active; 'I' for Inactive)
REMARK    1  A    between atoms: C_1  and  C_2
REMARK    2  A    between atoms: C_5  and  C_33
REMARK    3  A    between atoms: C_6  and  C_8
REMARK    4  A    between atoms: C_8  and  O_9
REMARK    5  A    between atoms: O_9  and  C_10
REMARK    6  A    between atoms: C_13  and  C_17
REMARK    7  A    between atoms: C_14  and  O_16
REMARK    8  A    between atoms: C_18  and  C_27
REMARK    9  A    between atoms: C_19  and  C_23
REMARK                            x       y       z     vdW  Elec       q    Type
REMARK                         _______ _______ _______ _____ _____    ______ ____
ROOT
ATOM      1  C   UNL     1       0.498  -2.943   4.665  0.00  0.00    +0.124 A 
ATOM      2  C   UNL     1       0.357  -4.292   4.961  0.00  0.00    +0.046 A 
ATOM      3  C   UNL     1       0.259  -4.707   6.273  0.00  0.00    +0.017 A 
ATOM      4  C   UNL     1       0.302  -3.772   7.304  0.00  0.00    +0.044 A 
ATOM      5  C   UNL     1       0.445  -2.413   7.005  0.00  0.00    +0.130 A 
ATOM      6  C   UNL     1       0.547  -2.006   5.686  0.00  0.00    +0.091 A 
ENDROOT
BRANCH   4   7
ATOM      7  C   UNL     1       0.197  -4.215   8.715  0.00  0.00    +0.104 A 
ATOM      8  C   UNL     1      -0.755  -5.129   9.235  0.00  0.00    +0.039 A 
ATOM      9  C   UNL     1      -0.507  -5.264  10.568  0.00  0.00    +0.147 A 
ATOM     10  N   UNL     1       0.544  -4.477  10.875  0.00  0.00    -0.272 N 
ATOM     11  H   UNL     1       0.939  -4.376  11.755  0.00  0.00    +0.189 HD
ATOM     12  N   UNL     1       0.973  -3.836   9.707  0.00  0.00    -0.173 NA
BRANCH   8  13
ATOM     13  C   UNL     1      -1.824  -5.814   8.467  0.00  0.00    -0.014 A 
ATOM     14  C   UNL     1      -2.879  -5.079   7.930  0.00  0.00    +0.008 A 
ATOM     15  C   UNL     1      -3.871  -5.721   7.216  0.00  0.00    +0.001 A 
ATOM     16  C   UNL     1      -3.819  -7.091   7.035  0.00  0.00    +0.000 A 
ATOM     17  C   UNL     1      -2.774  -7.825   7.566  0.00  0.00    +0.001 A 
ATOM     18  C   UNL     1      -1.774  -7.193   8.275  0.00  0.00    +0.008 A 
ENDBRANCH   8  13
BRANCH   9  19
ATOM     19  C   UNL     1      -1.273  -6.136  11.529  0.00  0.00    +0.434 C 
ATOM     20  F   UNL     1      -0.726  -6.011  12.810  0.00  0.00    -0.164 F 
ATOM     21  F   UNL     1      -2.614  -5.738  11.554  0.00  0.00    -0.164 F 
ATOM     22  F   UNL     1      -1.191  -7.470  11.115  0.00  0.00    -0.164 F 
ENDBRANCH   9  19
ENDBRANCH   4   7
BRANCH   5  23
ATOM     23  O   UNL     1       0.487  -1.496   8.007  0.00  0.00    -0.506 OA
ATOM     24  H   UNL     1       1.377  -1.314   8.336  0.00  0.00    +0.292 HD
ENDBRANCH   5  23
BRANCH   1  25
ATOM     25  O   UNL     1       0.593  -2.540   3.371  0.00  0.00    -0.487 OA
BRANCH  25  26
ATOM     26  C   UNL     1       0.535  -3.557   2.369  0.00  0.00    +0.264 C 
BRANCH  26  32
ATOM     27  C   UNL     1       1.058   0.516  -0.492  0.00  0.00    +0.044 C 
ATOM     28  C   UNL     1       0.905  -0.978  -0.363  0.00  0.00    -0.050 A 
ATOM     29  C   UNL     1       0.876  -1.769  -1.496  0.00  0.00    +0.003 A 
ATOM     30  C   UNL     1       0.736  -3.139  -1.378  0.00  0.00    +0.004 A 
ATOM     31  C   UNL     1       0.625  -3.718  -0.128  0.00  0.00    -0.044 A 
ATOM     32  C   UNL     1       0.656  -2.926   1.005  0.00  0.00    -0.007 A 
ATOM     33  C   UNL     1       0.800  -1.556   0.887  0.00  0.00    +0.010 A 
ATOM     34  C   UNL     1       0.472  -5.212   0.001  0.00  0.00    +0.044 C 
ENDBRANCH  26  32
ENDBRANCH  25  26
ENDBRANCH   1  25
TORSDOF 7
