REMARK  Name = ZINC24211646
REMARK  16 active torsions:
REMARK  status: ('A' for Active; 'I' for Inactive)
REMARK    1  A    between atoms: C_1  and  C_2
REMARK    2  A    between atoms: C_2  and  C_28
REMARK    3  A    between atoms: N_5  and  N_9
REMARK    4  A    between atoms: C_10  and  C_12
REMARK    5  A    between atoms: C_12  and  N_13
REMARK    6  A    between atoms: N_13  and  C_14
REMARK    7  A    between atoms: N_13  and  C_15
REMARK    8  A    between atoms: C_15  and  C_16
REMARK    9  A    between atoms: C_19  and  O_26
REMARK   10  A    between atoms: C_20  and  O_24
REMARK   11  A    between atoms: C_21  and  O_22
REMARK   12  A    between atoms: O_22  and  C_23
REMARK   13  A    between atoms: O_24  and  C_25
REMARK   14  A    between atoms: O_26  and  C_27
REMARK   15  A    between atoms: C_28  and  C_29
REMARK   16  A    between atoms: C_29  and  C_30
REMARK                            x       y       z     vdW  Elec       q    Type
REMARK                         _______ _______ _______ _____ _____    ______ ____
ROOT
ATOM      1  N   UNL     1       3.016   1.532  -0.314  0.00  0.00    -0.225 N 
ATOM      2  C   UNL     1       3.768   1.837  -1.390  0.00  0.00    +0.213 C 
ATOM      3  O   UNL     1       3.236   2.170  -2.428  0.00  0.00    -0.276 OA
ATOM      4  H   UNL     1       3.499   1.230   0.627  0.00  0.00    +0.173 HD
ENDROOT
BRANCH   1   9
ATOM      5  C   UNL     1      -1.276   0.671  -1.855  0.00  0.00    +0.041 C 
ATOM      6  C   UNL     1      -0.599   1.073  -0.542  0.00  0.00    +0.112 C 
ATOM      7  C   UNL     1       0.812   0.524  -0.476  0.00  0.00    +0.263 C 
ATOM      8  O   UNL     1       1.145  -0.642  -0.494  0.00  0.00    -0.271 OA
ATOM      9  N   UNL     1       1.619   1.600  -0.395  0.00  0.00    -0.137 N 
ATOM     10  C   UNL     1       0.921   2.742  -0.400  0.00  0.00    +0.326 C 
ATOM     11  O   UNL     1       1.428   3.844  -0.335  0.00  0.00    -0.251 OA
ATOM     12  N   UNL     1      -0.405   2.533  -0.485  0.00  0.00    -0.284 N 
ATOM     13  H   UNL     1      -1.276   3.205  -0.516  0.00  0.00    +0.151 HD
BRANCH   6  14
ATOM     14  C   UNL     1      -1.421   0.592   0.655  0.00  0.00    +0.040 C 
BRANCH  14  15
ATOM     15  C   UNL     1      -2.803   1.247   0.621  0.00  0.00    +0.038 C 
BRANCH  15  16
ATOM     16  C   UNL     1      -3.613   0.773   1.800  0.00  0.00    -0.047 A 
ATOM     17  C   UNL     1      -4.405  -0.354   1.686  0.00  0.00    +0.003 A 
ATOM     18  C   UNL     1      -5.145  -0.791   2.769  0.00  0.00    +0.000 A 
ATOM     19  C   UNL     1      -5.099  -0.096   3.963  0.00  0.00    +0.000 A 
ATOM     20  C   UNL     1      -4.310   1.034   4.076  0.00  0.00    +0.000 A 
ATOM     21  C   UNL     1      -3.568   1.469   2.994  0.00  0.00    +0.003 A 
ENDBRANCH  15  16
ENDBRANCH  14  15
ENDBRANCH   6  14
ENDBRANCH   1   9
BRANCH   2  22
ATOM     22  C   UNL     1       5.271   1.764  -1.304  0.00  0.00    +0.020 C 
BRANCH  22  23
ATOM     23  N   UNL     1       5.855   2.140  -2.598  0.00  0.00    +0.386 N 
ATOM     24  C   UNL     1       5.590   3.552  -2.904  0.00  0.00    -0.095 C 
ATOM     25  H   UNL     1       5.373   1.530  -3.377  0.00  0.00    -0.081 HD
BRANCH  23  26
ATOM     26  C   UNL     1       7.296   1.856  -2.629  0.00  0.00    -0.039 C 
BRANCH  26  27
ATOM     27  C   UNL     1       7.811   2.020  -4.036  0.00  0.00    -0.018 A 
ATOM     28  C   UNL     1       8.014   0.908  -4.831  0.00  0.00    +0.009 A 
ATOM     29  C   UNL     1       8.480   1.054  -6.124  0.00  0.00    +0.050 A 
ATOM     30  C   UNL     1       8.758   2.317  -6.624  0.00  0.00    +0.165 A 
ATOM     31  C   UNL     1       8.560   3.437  -5.826  0.00  0.00    +0.204 A 
ATOM     32  C   UNL     1       8.085   3.287  -4.529  0.00  0.00    +0.167 A 
BRANCH  32  33
ATOM     33  O   UNL     1       7.889   4.380  -3.744  0.00  0.00    -0.491 OA
ATOM     34  C   UNL     1       9.023   4.877  -3.030  0.00  0.00    +0.277 C 
ENDBRANCH  32  33
BRANCH  31  35
ATOM     35  O   UNL     1       8.831   4.678  -6.314  0.00  0.00    -0.488 OA
ATOM     36  C   UNL     1       7.766   5.362  -6.978  0.00  0.00    +0.277 C 
ENDBRANCH  31  35
BRANCH  30  37
ATOM     37  O   UNL     1       9.222   2.459  -7.895  0.00  0.00    -0.491 OA
ATOM     38  C   UNL     1       9.401   1.264  -8.658  0.00  0.00    +0.277 C 
ENDBRANCH  30  37
ENDBRANCH  26  27
ENDBRANCH  23  26
ENDBRANCH  22  23
ENDBRANCH   2  22
TORSDOF 11
