REMARK  Name = ZINC09311263
REMARK  4 active torsions:
REMARK  status: ('A' for Active; 'I' for Inactive)
REMARK    1  A    between atoms: C_4  and  C_7
REMARK    2  A    between atoms: C_10  and  C_11
REMARK    3  A    between atoms: C_14  and  N_17
REMARK    4  A    between atoms: N_22  and  C_23
REMARK                            x       y       z     vdW  Elec       q    Type
REMARK                         _______ _______ _______ _____ _____    ______ ____
ROOT
ATOM      1  C   UNL     1      -4.415   7.698   0.314  0.00  0.00    +0.049 C 
ATOM      2  C   UNL     1      -3.920   6.370  -0.101  0.00  0.00    +0.037 C 
ATOM      3  C   UNL     1      -4.997   5.506  -0.008  0.00  0.00    +0.040 C 
ATOM      4  C   UNL     1      -5.004   4.125  -0.304  0.00  0.00    +0.021 C 
ATOM      5  C   UNL     1      -6.148   6.324   0.460  0.00  0.00    +0.255 C 
ATOM      6  O   UNL     1      -7.274   5.917   0.657  0.00  0.00    -0.269 OA
ATOM      7  N   UNL     1      -5.730   7.590   0.631  0.00  0.00    -0.235 N 
ENDROOT
BRANCH   7   8
ATOM      8  C   UNL     1      -6.535   8.645   1.067  0.00  0.00    +0.056 A 
ATOM      9  C   UNL     1      -7.232   9.417   0.145  0.00  0.00    +0.025 A 
ATOM     10  C   UNL     1      -8.027  10.458   0.580  0.00  0.00    +0.002 A 
ATOM     11  C   UNL     1      -8.131  10.735   1.932  0.00  0.00    +0.001 A 
ATOM     12  C   UNL     1      -7.439   9.970   2.853  0.00  0.00    +0.017 A 
ATOM     13  C   UNL     1      -6.646   8.922   2.426  0.00  0.00    +0.040 A 
ATOM     14 BR   UNL     1      -5.707   7.870   3.687  0.00  0.00    -0.048 Br
ENDBRANCH   7   8
BRANCH   1  18
ATOM     15  C   UNL     1      -2.147  11.204   0.482  0.00  0.00    +0.000 A 
ATOM     16  C   UNL     1      -1.658  10.040   1.058  0.00  0.00    +0.001 A 
ATOM     17  C   UNL     1      -2.390   8.888   1.009  0.00  0.00    +0.010 A 
ATOM     18  C   UNL     1      -3.647   8.885   0.371  0.00  0.00    -0.003 A 
ATOM     19  C   UNL     1      -4.130  10.073  -0.216  0.00  0.00    +0.010 A 
ATOM     20  C   UNL     1      -3.383  11.214  -0.149  0.00  0.00    +0.001 A 
ENDBRANCH   1  18
BRANCH   4  21
ATOM     21  C   UNL     1      -3.797   3.462  -0.603  0.00  0.00    -0.024 A 
ATOM     22  C   UNL     1      -2.579   3.929  -0.068  0.00  0.00    +0.010 A 
ATOM     23  C   UNL     1      -1.415   3.279  -0.366  0.00  0.00    +0.033 A 
ATOM     24  C   UNL     1      -1.429   2.164  -1.192  0.00  0.00    +0.126 A 
ATOM     25  C   UNL     1      -2.620   1.699  -1.729  0.00  0.00    +0.033 A 
ATOM     26  C   UNL     1      -3.798   2.328  -1.441  0.00  0.00    +0.010 A 
BRANCH  24  27
ATOM     27  N   UNL     1      -0.160   1.468  -1.507  0.00  0.00    +0.056 N 
ATOM     28  O   UNL     1       0.975   1.909  -1.005  0.00  0.00    -0.126 OA
ATOM     29  O   UNL     1      -0.167   0.406  -2.286  0.00  0.00    -0.126 OA
ENDBRANCH  24  27
ENDBRANCH   4  21
TORSDOF 4
