REMARK  Name = ZINC19171812
REMARK  6 active torsions:
REMARK  status: ('A' for Active; 'I' for Inactive)
REMARK    1  A    between atoms: C_1  and  C_2
REMARK    2  A    between atoms: C_5  and  N_8
REMARK    3  A    between atoms: C_13  and  C_22
REMARK    4  A    between atoms: N_16  and  C_21
REMARK    5  A    between atoms: C_25  and  O_28
REMARK    6  A    between atoms: O_28  and  C_29
REMARK                            x       y       z     vdW  Elec       q    Type
REMARK                         _______ _______ _______ _____ _____    ______ ____
ROOT
ATOM      1  N   UNL     1       0.059  -4.172  -0.021  0.00  0.00    -0.209 N 
ATOM      2  C   UNL     1       0.069  -4.938   1.118  0.00  0.00    +0.233 C 
ATOM      3  O   UNL     1      -0.151  -4.578   2.254  0.00  0.00    -0.274 OA
ATOM      4  C   UNL     1       0.402  -6.268   0.663  0.00  0.00    +0.126 C 
ATOM      5  C   UNL     1       0.293  -7.666   1.109  0.00  0.00    +0.113 C 
ATOM      6  N   UNL     1       0.400  -8.442  -0.172  0.00  0.00    -0.245 NA
ATOM      7  N   UNL     1       0.458  -7.457  -1.280  0.00  0.00    -0.233 NA
ATOM      8  C   UNL     1      -0.319  -6.316  -0.743  0.00  0.00    +0.173 C 
ATOM      9  C   UNL     1       0.062  -4.922  -1.162  0.00  0.00    +0.246 C 
ATOM     10  O   UNL     1       0.321  -4.543  -2.284  0.00  0.00    -0.273 OA
ATOM     11  C   UNL     1      -0.176  -7.991  -2.493  0.00  0.00    +0.125 C 
ATOM     12  H   UNL     1       1.219  -9.032  -0.170  0.00  0.00    +0.141 HD
ENDROOT
BRANCH   1  17
ATOM     13  C   UNL     1      -0.018   1.503   0.010  0.00  0.00    +0.044 C 
ATOM     14  C   UNL     1       0.002  -0.004   0.002  0.00  0.00    -0.050 A 
ATOM     15  C   UNL     1       0.006  -0.688  -1.200  0.00  0.00    +0.005 A 
ATOM     16  C   UNL     1       0.025  -2.068  -1.211  0.00  0.00    +0.024 A 
ATOM     17  C   UNL     1       0.040  -2.771  -0.013  0.00  0.00    +0.044 A 
ATOM     18  C   UNL     1       0.037  -2.082   1.192  0.00  0.00    +0.024 A 
ATOM     19  C   UNL     1       0.023  -0.700   1.196  0.00  0.00    +0.005 A 
ENDBRANCH   1  17
BRANCH   5  20
ATOM     20  C   UNL     1       1.422  -8.016   2.044  0.00  0.00    -0.028 A 
ATOM     21  C   UNL     1       2.671  -8.322   1.534  0.00  0.00    +0.009 A 
ATOM     22  C   UNL     1       3.707  -8.644   2.389  0.00  0.00    +0.046 A 
ATOM     23  C   UNL     1       3.495  -8.659   3.759  0.00  0.00    +0.120 A 
ATOM     24  C   UNL     1       2.242  -8.351   4.269  0.00  0.00    +0.046 A 
ATOM     25  C   UNL     1       1.210  -8.025   3.410  0.00  0.00    +0.009 A 
BRANCH  23  26
ATOM     26  O   UNL     1       4.513  -8.975   4.602  0.00  0.00    -0.495 OA
ATOM     27  C   UNL     1       4.223  -8.971   6.001  0.00  0.00    +0.277 C 
ENDBRANCH  23  26
ENDBRANCH   5  20
TORSDOF 3
