REMARK  Name = ZINC38818718
REMARK  3 active torsions:
REMARK  status: ('A' for Active; 'I' for Inactive)
REMARK    1  A    between atoms: C_4  and  C_8
REMARK    2  A    between atoms: N_9  and  N_10
REMARK    3  A    between atoms: N_10  and  C_11
REMARK                            x       y       z     vdW  Elec       q    Type
REMARK                         _______ _______ _______ _____ _____    ______ ____
ROOT
ATOM      1  C   UNL     1       3.694  -0.681  -0.038  0.00  0.00    +0.141 C 
ATOM      2  N   UNL     1       3.716  -1.981  -0.045  0.00  0.00    -0.190 NA
ENDROOT
BRANCH   1   6
ATOM      3  C   UNL     1      -0.017   1.379   0.010  0.00  0.00    +0.003 A 
ATOM      4  C   UNL     1       1.168   2.095   0.002  0.00  0.00    +0.021 A 
ATOM      5  C   UNL     1       2.379   1.432  -0.013  0.00  0.00    +0.051 A 
ATOM      6  C   UNL     1       2.406   0.034  -0.021  0.00  0.00    +0.031 A 
ATOM      7  C   UNL     1       1.205  -0.682  -0.013  0.00  0.00    +0.051 A 
ATOM      8  C   UNL     1       0.002  -0.004   0.002  0.00  0.00    +0.021 A 
ATOM      9 CL   UNL     1       1.226  -2.417  -0.023  0.00  0.00    -0.083 Cl
ATOM     10 CL   UNL     1       3.863   2.332  -0.024  0.00  0.00    -0.083 Cl
ENDBRANCH   1   6
BRANCH   2  11
ATOM     11  N   UNL     1       4.941  -2.661  -0.061  0.00  0.00    -0.239 N 
ATOM     12  H   UNL     1       5.772  -2.162  -0.067  0.00  0.00    +0.174 HD
BRANCH  11  13
ATOM     13  C   UNL     1       4.963  -4.012  -0.069  0.00  0.00    +0.068 C 
ATOM     14  C   UNL     1       3.801  -4.759  -0.067  0.00  0.00    +0.154 C 
ATOM     15  N   UNL     1       3.833  -6.077  -0.075  0.00  0.00    -0.164 NA
ATOM     16  N   UNL     1       4.881  -6.804  -0.085  0.00  0.00    -0.079 NA
ATOM     17  C   UNL     1       6.124  -6.303  -0.088  0.00  0.00    +0.273 C 
ATOM     18  O   UNL     1       7.097  -7.029  -0.098  0.00  0.00    -0.271 OA
ATOM     19  C   UNL     1       6.268  -4.791  -0.086  0.00  0.00    +0.193 C 
ATOM     20 BR   UNL     1       7.283  -4.260  -1.685  0.00  0.00    -0.072 Br
ENDBRANCH  11  13
ENDBRANCH   2  11
TORSDOF 3
