REMARK  Name = ZINC08884368
REMARK  7 active torsions:
REMARK  status: ('A' for Active; 'I' for Inactive)
REMARK    1  A    between atoms: C_1  and  C_2
REMARK    2  A    between atoms: C_5  and  C_33
REMARK    3  A    between atoms: C_10  and  C_12
REMARK    4  A    between atoms: C_12  and  S_13
REMARK    5  A    between atoms: S_13  and  C_14
REMARK    6  A    between atoms: C_14  and  C_15
REMARK    7  A    between atoms: C_20  and  C_23
REMARK                            x       y       z     vdW  Elec       q    Type
REMARK                         _______ _______ _______ _____ _____    ______ ____
ROOT
ATOM      1  C   UNL     1      -6.229  -4.690   0.004  0.00  0.00    +0.228 C 
ATOM      2  O   UNL     1      -7.189  -3.949   0.015  0.00  0.00    -0.275 OA
ATOM      3  N   UNL     1      -4.983  -4.178   0.000  0.00  0.00    -0.264 N 
ATOM      4  C   UNL     1      -4.797  -2.801   0.009  0.00  0.00    +0.165 A 
ATOM      5  N   UNL     1      -3.673  -2.110   0.003  0.00  0.00    -0.225 NA
ATOM      6  C   UNL     1      -3.680  -0.785   0.018  0.00  0.00    +0.080 A 
ATOM      7  C   UNL     1      -4.875  -0.121   0.030  0.00  0.00    +0.076 A 
ATOM      8  S   UNL     1      -6.018  -1.496   0.026  0.00  0.00    -0.060 S 
ATOM      9  H   UNL     1      -4.215  -4.771  -0.009  0.00  0.00    +0.157 HD
ENDROOT
BRANCH   6  10
ATOM     10  C   UNL     1      -2.403  -0.030   0.016  0.00  0.00    +0.005 A 
ATOM     11  C   UNL     1      -2.416   1.364   0.026  0.00  0.00    +0.014 A 
ATOM     12  C   UNL     1      -1.228   2.065   0.019  0.00  0.00    +0.050 A 
ATOM     13  C   UNL     1      -0.017   1.387   0.010  0.00  0.00    +0.162 A 
ATOM     14  C   UNL     1       0.002  -0.004   0.002  0.00  0.00    +0.163 A 
ATOM     15  C   UNL     1      -1.189  -0.712   0.004  0.00  0.00    +0.059 A 
ATOM     16  O   UNL     1       1.181  -0.685  -0.007  0.00  0.00    -0.485 OA
ATOM     17  C   UNL     1       2.347   0.053  -0.387  0.00  0.00    +0.270 C 
ATOM     18  C   UNL     1       2.335   1.391   0.365  0.00  0.00    +0.270 C 
ATOM     19  O   UNL     1       1.144   2.098   0.002  0.00  0.00    -0.485 OA
ENDBRANCH   6  10
BRANCH   1  20
ATOM     20  C   UNL     1      -6.431  -6.184  -0.007  0.00  0.00    +0.165 C 
BRANCH  20  21
ATOM     21  S   UNL     1      -8.206  -6.555   0.001  0.00  0.00    -0.142 S 
BRANCH  21  22
ATOM     22  C   UNL     1      -8.276  -8.367  -0.013  0.00  0.00    +0.165 C 
BRANCH  22  30
ATOM     23  C   UNL     1      -8.145 -13.246   1.052  0.00  0.00    +0.009 C 
ATOM     24  C   UNL     1      -9.169 -12.112   1.131  0.00  0.00    +0.004 C 
ATOM     25  C   UNL     1     -10.582 -12.692   1.038  0.00  0.00    +0.009 C 
ATOM     26  C   UNL     1     -11.607 -11.561   1.150  0.00  0.00    +0.004 C 
ATOM     27  C   UNL     1     -11.410 -10.582  -0.011  0.00  0.00    +0.111 C 
ATOM     28  N   UNL     1     -10.012 -10.130  -0.016  0.00  0.00    -0.300 N 
ATOM     29  C   UNL     1      -8.943 -11.138  -0.036  0.00  0.00    +0.111 C 
ATOM     30  C   UNL     1      -9.715  -8.815  -0.008  0.00  0.00    +0.225 C 
ATOM     31  O   UNL     1     -10.606  -7.992   0.004  0.00  0.00    -0.275 OA
ATOM     32  C   UNL     1     -11.414 -10.826   2.477  0.00  0.00    +0.009 C 
ENDBRANCH  22  30
ENDBRANCH  21  22
ENDBRANCH  20  21
ENDBRANCH   1  20
TORSDOF 5
