REMARK  Name = ZINC57414525
REMARK  12 active torsions:
REMARK  status: ('A' for Active; 'I' for Inactive)
REMARK    1  A    between atoms: C_1  and  C_2
REMARK    2  A    between atoms: C_2  and  O_3
REMARK    3  A    between atoms: O_3  and  C_4
REMARK    4  A    between atoms: C_4  and  C_6
REMARK    5  A    between atoms: C_7  and  C_24
REMARK    6  A    between atoms: C_12  and  C_14
REMARK    7  A    between atoms: C_17  and  O_22
REMARK    8  A    between atoms: C_18  and  O_20
REMARK    9  A    between atoms: O_20  and  C_21
REMARK   10  A    between atoms: O_22  and  C_23
REMARK   11  A    between atoms: C_24  and  N_25
REMARK   12  A    between atoms: C_28  and  N_31
REMARK                            x       y       z     vdW  Elec       q    Type
REMARK                         _______ _______ _______ _____ _____    ______ ____
ROOT
ATOM      1  C   UNL     1       1.655  -2.094  -2.806  0.00  0.00    +0.079 C 
ATOM      2  C   UNL     1       1.894  -3.404  -3.031  0.00  0.00    +0.038 C 
ATOM      3  N   UNL     1       2.587  -3.814  -4.134  0.00  0.00    -0.271 N 
ATOM      4  C   UNL     1       3.075  -2.977  -5.058  0.00  0.00    +0.304 C 
ATOM      5  O   UNL     1       3.681  -3.437  -6.007  0.00  0.00    -0.252 OA
ATOM      6  N   UNL     1       2.917  -1.642  -4.971  0.00  0.00    -0.288 N 
ATOM      7  C   UNL     1       2.177  -1.097  -3.821  0.00  0.00    +0.144 C 
ATOM      8  H   UNL     1       2.735  -4.765  -4.254  0.00  0.00    +0.156 HD
ATOM      9  H   UNL     1       3.280  -1.054  -5.652  0.00  0.00    +0.151 HD
ENDROOT
BRANCH   7  10
ATOM     10  C   UNL     1       1.003  -0.312  -4.347  0.00  0.00    -0.019 A 
ATOM     11  C   UNL     1       0.112  -0.906  -5.221  0.00  0.00    +0.009 A 
ATOM     12  C   UNL     1      -0.966  -0.190  -5.707  0.00  0.00    +0.050 A 
ATOM     13  C   UNL     1      -1.156   1.126  -5.317  0.00  0.00    +0.162 A 
ATOM     14  C   UNL     1      -0.259   1.724  -4.438  0.00  0.00    +0.162 A 
ATOM     15  C   UNL     1       0.817   0.999  -3.951  0.00  0.00    +0.055 A 
BRANCH  14  16
ATOM     16  O   UNL     1      -0.441   3.016  -4.053  0.00  0.00    -0.491 OA
ATOM     17  C   UNL     1       0.574   3.597  -3.231  0.00  0.00    +0.277 C 
ENDBRANCH  14  16
BRANCH  13  18
ATOM     18  O   UNL     1      -2.216   1.832  -5.795  0.00  0.00    -0.491 OA
ATOM     19  C   UNL     1      -3.095   1.154  -6.694  0.00  0.00    +0.277 C 
ENDBRANCH  13  18
ENDBRANCH   7  10
BRANCH   1  20
ATOM     20  C   UNL     1       0.936  -1.667  -1.665  0.00  0.00    +0.339 C 
ATOM     21  O   UNL     1      -0.242  -1.379  -1.760  0.00  0.00    -0.245 OA
BRANCH  20  22
ATOM     22  O   UNL     1       1.557  -1.579  -0.470  0.00  0.00    -0.462 OA
BRANCH  22  24
ATOM     23  C   UNL     1       1.634  -1.095   1.896  0.00  0.00    +0.048 C 
ATOM     24  C   UNL     1       0.746  -1.256   0.661  0.00  0.00    +0.229 C 
ENDBRANCH  22  24
ENDBRANCH  20  22
ENDBRANCH   1  20
BRANCH   2  25
ATOM     25  C   UNL     1       1.388  -4.429  -2.050  0.00  0.00    +0.135 C 
BRANCH  25  26
ATOM     26  N   UNL     1       0.391  -5.285  -2.707  0.00  0.00    -0.297 NA
ATOM     27  C   UNL     1      -0.807  -4.517  -3.067  0.00  0.00    +0.083 C 
ATOM     28  C   UNL     1      -1.759  -5.403  -3.875  0.00  0.00    +0.000 C 
ATOM     29  C   UNL     1      -2.146  -6.625  -3.038  0.00  0.00    -0.066 C 
ATOM     30  C   UNL     1      -0.876  -7.380  -2.635  0.00  0.00    +0.000 C 
ATOM     31  C   UNL     1       0.050  -6.438  -1.863  0.00  0.00    +0.083 C 
BRANCH  29  32
ATOM     32  N   UNL     1      -3.012  -7.508  -3.830  0.00  0.00    +0.382 N 
ATOM     33  C   UNL     1      -4.221  -6.776  -4.228  0.00  0.00    -0.078 C 
ATOM     34  C   UNL     1      -5.089  -7.665  -5.121  0.00  0.00    -0.019 C 
ATOM     35  C   UNL     1      -5.486  -8.925  -4.346  0.00  0.00    -0.004 C 
ATOM     36  C   UNL     1      -4.218  -9.641  -3.871  0.00  0.00    -0.019 C 
ATOM     37  C   UNL     1      -3.382  -8.679  -3.025  0.00  0.00    -0.078 C 
ATOM     38  H   UNL     1      -2.518  -7.811  -4.655  0.00  0.00    -0.081 HD
ENDBRANCH  29  32
ENDBRANCH  25  26
ENDBRANCH   2  25
TORSDOF 9
