REMARK  Name = ZINC45314841
REMARK  4 active torsions:
REMARK  status: ('A' for Active; 'I' for Inactive)
REMARK    1  A    between atoms: C_1  and  C_2
REMARK    2  A    between atoms: C_2  and  C_3
REMARK    3  A    between atoms: C_10  and  N_20
REMARK    4  A    between atoms: C_15  and  C_17
REMARK                            x       y       z     vdW  Elec       q    Type
REMARK                         _______ _______ _______ _____ _____    ______ ____
ROOT
ATOM      1  C   UNL     1       0.707  -0.490  -1.238  0.00  0.00    -0.073 C 
ATOM      2  C   UNL     1       1.968  -0.776  -1.152  0.00  0.00    -0.024 C 
ATOM      3  C   UNL     1       2.801  -1.274  -2.295  0.00  0.00    +0.018 C 
ATOM      4  C   UNL     1       3.023  -2.780  -2.159  0.00  0.00    +0.063 C 
ATOM      5  C   UNL     1       1.723  -3.519  -2.360  0.00  0.00    +0.051 A 
ATOM      6  C   UNL     1       0.638  -2.937  -2.978  0.00  0.00    +0.000 A 
ATOM      7  C   UNL     1      -0.537  -3.675  -3.137  0.00  0.00    +0.061 A 
ATOM      8  C   UNL     1      -0.570  -4.990  -2.655  0.00  0.00    +0.150 A 
ATOM      9  C   UNL     1       0.574  -5.512  -2.036  0.00  0.00    +0.250 A 
ATOM     10  N   UNL     1       1.659  -4.768  -1.915  0.00  0.00    -0.215 NA
ATOM     11  O   UNL     1       0.260  -6.776  -1.676  0.00  0.00    -0.421 OA
ATOM     12  C   UNL     1      -1.006  -7.018  -2.053  0.00  0.00    +0.202 A 
ATOM     13  N   UNL     1      -1.510  -5.971  -2.634  0.00  0.00    -0.209 NA
ATOM     14  C   UNL     1       0.652  -1.523  -3.492  0.00  0.00    +0.027 C 
ATOM     15  C   UNL     1       2.089  -1.014  -3.627  0.00  0.00    +0.016 C 
ATOM     16  C   UNL     1      -0.091  -0.622  -2.503  0.00  0.00    +0.038 C 
ENDROOT
BRANCH  12  17
ATOM     17  C   UNL     1      -1.737  -8.318  -1.834  0.00  0.00    +0.075 C 
ATOM     18  C   UNL     1      -1.058  -9.371  -0.956  0.00  0.00    +0.013 C 
ATOM     19  C   UNL     1      -1.145  -9.577  -2.469  0.00  0.00    +0.013 C 
ENDBRANCH  12  17
BRANCH   7  20
ATOM     20  N   UNL     1      -1.648  -3.116  -3.759  0.00  0.00    -0.356 N 
ATOM     21  H   UNL     1      -1.613  -2.205  -4.089  0.00  0.00    +0.142 HD
ATOM     22  H   UNL     1      -2.458  -3.639  -3.864  0.00  0.00    +0.142 HD
ENDBRANCH   7  20
BRANCH   1  24
ATOM     23  C   UNL     1      -0.019   1.526   0.010  0.00  0.00    +0.008 C 
ATOM     24  C   UNL     1       0.002  -0.004   0.002  0.00  0.00    +0.027 C 
ENDBRANCH   1  24
TORSDOF 3
