REMARK  Name = ZINC37332189
REMARK  5 active torsions:
REMARK  status: ('A' for Active; 'I' for Inactive)
REMARK    1  A    between atoms: C_1  and  O_2
REMARK    2  A    between atoms: O_2  and  C_3
REMARK    3  A    between atoms: C_6  and  C_9
REMARK    4  A    between atoms: C_9  and  C_11
REMARK    5  A    between atoms: C_9  and  N_22
REMARK                            x       y       z     vdW  Elec       q    Type
REMARK                         _______ _______ _______ _____ _____    ______ ____
ROOT
ATOM      1  C   UNL     1       2.587  -2.550   4.310  0.00  0.00    -0.012 C 
ENDROOT
BRANCH   1   2
ATOM      2  C   UNL     1       3.971  -2.971   3.888  0.00  0.00    -0.036 A 
ATOM      3  C   UNL     1       4.190  -4.253   3.421  0.00  0.00    +0.053 A 
ATOM      4  C   UNL     1       5.462  -4.643   3.030  0.00  0.00    +0.162 A 
ATOM      5  C   UNL     1       6.516  -3.741   3.108  0.00  0.00    +0.163 A 
ATOM      6  C   UNL     1       6.291  -2.456   3.579  0.00  0.00    +0.069 A 
ATOM      7  C   UNL     1       5.019  -2.071   3.963  0.00  0.00    +0.047 A 
ATOM      8 CL   UNL     1       4.739  -0.460   4.545  0.00  0.00    -0.083 Cl
ATOM      9  O   UNL     1       7.771  -4.101   2.722  0.00  0.00    -0.485 OA
ATOM     10  C   UNL     1       8.031  -5.504   2.608  0.00  0.00    +0.270 C 
ATOM     11  C   UNL     1       6.868  -6.148   1.842  0.00  0.00    +0.270 C 
ATOM     12  O   UNL     1       5.662  -5.911   2.576  0.00  0.00    -0.485 OA
ENDBRANCH   1   2
BRANCH   1  16
ATOM     13  C   UNL     1       0.626  -0.618   1.042  0.00  0.00    +0.120 A 
ATOM     14  C   UNL     1       1.202   0.138   2.051  0.00  0.00    +0.046 A 
ATOM     15  C   UNL     1       1.835  -0.488   3.107  0.00  0.00    +0.006 A 
ATOM     16  C   UNL     1       1.895  -1.869   3.158  0.00  0.00    -0.057 A 
ATOM     17  C   UNL     1       1.322  -2.625   2.152  0.00  0.00    +0.006 A 
ATOM     18  C   UNL     1       0.682  -2.003   1.098  0.00  0.00    +0.046 A 
BRANCH  13  20
ATOM     19  C   UNL     1      -0.017   1.425   0.010  0.00  0.00    +0.277 C 
ATOM     20  O   UNL     1       0.002  -0.004   0.002  0.00  0.00    -0.495 OA
ENDBRANCH  13  20
ENDBRANCH   1  16
BRANCH   1  21
ATOM     21  N   UNL     1       1.816  -3.734   4.713  0.00  0.00    +0.385 N 
ATOM     22  H   UNL     1       1.751  -4.373   3.935  0.00  0.00    -0.089 HD
ATOM     23  H   UNL     1       2.279  -4.190   5.485  0.00  0.00    -0.089 HD
ATOM     24  H   UNL     1       0.890  -3.453   4.996  0.00  0.00    -0.089 HD
ENDBRANCH   1  21
TORSDOF 4
