REMARK  Name = ZINC17838226
REMARK  9 active torsions:
REMARK  status: ('A' for Active; 'I' for Inactive)
REMARK    1  A    between atoms: C_1  and  C_2
REMARK    2  A    between atoms: C_2  and  C_3
REMARK    3  A    between atoms: C_6  and  C_9
REMARK    4  A    between atoms: C_11  and  C_31
REMARK    5  A    between atoms: C_12  and  C_14
REMARK    6  A    between atoms: C_14  and  O_16
REMARK    7  A    between atoms: O_16  and  C_17
REMARK    8  A    between atoms: C_17  and  C_18
REMARK    9  A    between atoms: C_18  and  C_20
REMARK                            x       y       z     vdW  Elec       q    Type
REMARK                         _______ _______ _______ _____ _____    ______ ____
ROOT
ATOM      1  C   UNL     1      -0.016   1.345   0.009  0.00  0.00    +0.348 C 
ATOM      2  O   UNL     1       1.029   1.967   0.003  0.00  0.00    -0.244 OA
ENDROOT
BRANCH   1   6
ATOM      3  C   UNL     1      -3.792   2.942   0.035  0.00  0.00    +0.109 A 
ATOM      4  N   UNL     1      -2.793   3.814   0.035  0.00  0.00    -0.243 NA
ATOM      5  C   UNL     1      -1.547   3.426   0.028  0.00  0.00    +0.060 A 
ATOM      6  C   UNL     1      -1.294   2.059   0.019  0.00  0.00    +0.119 A 
ATOM      7  S   UNL     1      -2.962   1.417   0.016  0.00  0.00    -0.060 S 
ATOM      8  C   UNL     1      -0.420   4.427   0.029  0.00  0.00    +0.067 C 
BRANCH   3  12
ATOM      9  C   UNL     1      -7.973   3.691   0.056  0.00  0.00    -0.048 A 
ATOM     10  C   UNL     1      -7.506   2.389   0.047  0.00  0.00    +0.004 A 
ATOM     11  C   UNL     1      -6.150   2.138   0.040  0.00  0.00    +0.011 A 
ATOM     12  C   UNL     1      -5.247   3.203   0.042  0.00  0.00    +0.007 A 
ATOM     13  C   UNL     1      -5.724   4.515   0.056  0.00  0.00    +0.011 A 
ATOM     14  C   UNL     1      -7.083   4.751   0.059  0.00  0.00    +0.004 A 
BRANCH   9  16
ATOM     15  C   UNL     1      -9.951   4.039   1.510  0.00  0.00    +0.009 C 
ATOM     16  C   UNL     1      -9.456   3.957   0.064  0.00  0.00    +0.032 C 
ENDBRANCH   9  16
ENDBRANCH   3  12
ENDBRANCH   1   6
BRANCH   1  17
ATOM     17  O   UNL     1       0.002  -0.004   0.002  0.00  0.00    -0.453 OA
BRANCH  17  18
ATOM     18  C   UNL     1       1.305  -0.646  -0.014  0.00  0.00    +0.311 C 
BRANCH  18  19
ATOM     19  C   UNL     1       1.127  -2.142  -0.020  0.00  0.00    +0.200 C 
ATOM     20  O   UNL     1       0.013  -2.621  -0.012  0.00  0.00    -0.288 OA
BRANCH  19  21
ATOM     21  C   UNL     1       2.304  -3.021  -0.036  0.00  0.00    +0.023 A 
ATOM     22  C   UNL     1       3.591  -2.470  -0.051  0.00  0.00    +0.015 A 
ATOM     23  C   UNL     1       4.695  -3.294  -0.060  0.00  0.00    +0.048 A 
ATOM     24  C   UNL     1       4.534  -4.672  -0.066  0.00  0.00    +0.142 A 
ATOM     25  C   UNL     1       3.253  -5.230  -0.057  0.00  0.00    +0.076 A 
ATOM     26  C   UNL     1       2.141  -4.412  -0.042  0.00  0.00    +0.038 A 
ATOM     27  N   UNL     1       3.113  -6.626  -0.064  0.00  0.00    -0.280 N 
ATOM     28  C   UNL     1       4.183  -7.392   0.238  0.00  0.00    +0.255 C 
ATOM     29  O   UNL     1       4.094  -8.601   0.210  0.00  0.00    -0.272 OA
ATOM     30  C   UNL     1       5.489  -6.738   0.611  0.00  0.00    +0.325 C 
ATOM     31  O   UNL     1       5.617  -5.492  -0.079  0.00  0.00    -0.481 OA
ATOM     32  H   UNL     1       2.261  -7.034  -0.283  0.00  0.00    +0.155 HD
ENDBRANCH  19  21
ENDBRANCH  18  19
ENDBRANCH  17  18
ENDBRANCH   1  17
TORSDOF 7
