REMARK  Name = ZINC20989744
REMARK  7 active torsions:
REMARK  status: ('A' for Active; 'I' for Inactive)
REMARK    1  A    between atoms: C_1  and  C_2
REMARK    2  A    between atoms: C_8  and  N_10
REMARK    3  A    between atoms: C_11  and  C_13
REMARK    4  A    between atoms: C_13  and  C_15
REMARK    5  A    between atoms: C_13  and  S_16
REMARK    6  A    between atoms: S_16  and  C_17
REMARK    7  A    between atoms: N_21  and  C_32
REMARK                            x       y       z     vdW  Elec       q    Type
REMARK                         _______ _______ _______ _____ _____    ______ ____
ROOT
ATOM      1  C   UNL     1       0.785  -2.593  -0.021  0.00  0.00    +0.172 A 
ATOM      2  N   UNL     1       1.739  -1.700  -0.036  0.00  0.00    -0.202 NA
ATOM      3  C   UNL     1       1.432  -0.378  -0.019  0.00  0.00    +0.190 A 
ATOM      4  N   UNL     1       2.120   0.734  -0.018  0.00  0.00    -0.143 NA
ATOM      5  N   UNL     1       1.275   1.846  -0.000  0.00  0.00    -0.194 N 
ATOM      6  C   UNL     1      -0.018   1.455   0.010  0.00  0.00    +0.284 A 
ATOM      7  O   UNL     1      -1.003   2.176   0.019  0.00  0.00    -0.265 OA
ATOM      8  C   UNL     1       0.002  -0.004   0.002  0.00  0.00    +0.106 A 
ATOM      9  C   UNL     1      -0.956  -0.998   0.003  0.00  0.00    +0.037 A 
ATOM     10  N   UNL     1      -0.556  -2.278   0.018  0.00  0.00    -0.323 N 
ATOM     11  C   UNL     1      -1.490  -3.405   0.081  0.00  0.00    +0.124 C 
ATOM     12  C   UNL     1      -2.569  -3.293  -0.998  0.00  0.00    +0.022 C 
ATOM     13  C   UNL     1      -3.782  -2.599  -0.378  0.00  0.00    +0.002 C 
ATOM     14  C   UNL     1      -3.300  -1.591   0.669  0.00  0.00    +0.006 C 
ATOM     15  C   UNL     1      -2.401  -0.571  -0.028  0.00  0.00    +0.054 C 
ENDROOT
BRANCH   5  16
ATOM     16  C   UNL     1       1.707   3.177   0.006  0.00  0.00    +0.069 A 
ATOM     17  C   UNL     1       0.982   4.147  -0.674  0.00  0.00    +0.028 A 
ATOM     18  C   UNL     1       1.408   5.461  -0.662  0.00  0.00    +0.002 A 
ATOM     19  C   UNL     1       2.562   5.809   0.016  0.00  0.00    +0.000 A 
ATOM     20  C   UNL     1       3.289   4.844   0.690  0.00  0.00    +0.002 A 
ATOM     21  C   UNL     1       2.866   3.530   0.686  0.00  0.00    +0.028 A 
ENDBRANCH   5  16
BRANCH   1  22
ATOM     22  S   UNL     1       1.239  -4.296  -0.050  0.00  0.00    -0.075 S 
BRANCH  22  23
ATOM     23  C   UNL     1       3.042  -4.139  -0.096  0.00  0.00    +0.137 C 
ATOM     24  C   UNL     1       3.463  -3.474  -1.407  0.00  0.00    +0.029 C 
BRANCH  23  26
ATOM     25  N   UNL     1       4.918  -5.645   0.480  0.00  0.00    -0.311 N 
ATOM     26  C   UNL     1       3.667  -5.507  -0.002  0.00  0.00    +0.226 C 
ATOM     27  O   UNL     1       3.045  -6.484  -0.361  0.00  0.00    -0.275 OA
ATOM     28  H   UNL     1       5.483  -4.759   0.806  0.00  0.00    +0.149 HD
BRANCH  25  35
ATOM     29  C   UNL     1       7.471  -6.178  -0.779  0.00  0.00    +0.009 C 
ATOM     30  C   UNL     1       7.050  -6.843   0.532  0.00  0.00    +0.006 C 
ATOM     31  C   UNL     1       7.685  -8.232   0.627  0.00  0.00    +0.005 C 
ATOM     32  C   UNL     1       7.263  -8.897   1.939  0.00  0.00    +0.000 C 
ATOM     33  C   UNL     1       5.739  -9.029   1.977  0.00  0.00    +0.002 C 
ATOM     34  C   UNL     1       5.104  -7.640   1.882  0.00  0.00    +0.022 C 
ATOM     35  C   UNL     1       5.526  -6.975   0.571  0.00  0.00    +0.076 C 
ENDBRANCH  25  35
ENDBRANCH  23  26
ENDBRANCH  22  23
ENDBRANCH   1  22
TORSDOF 5
