REMARK  Name = ZINC16033236
REMARK  8 active torsions:
REMARK  status: ('A' for Active; 'I' for Inactive)
REMARK    1  A    between atoms: C_1  and  C_2
REMARK    2  A    between atoms: C_12  and  C_18
REMARK    3  A    between atoms: C_15  and  C_17
REMARK    4  A    between atoms: N_20  and  C_21
REMARK    5  A    between atoms: C_23  and  O_29
REMARK    6  A    between atoms: C_26  and  O_27
REMARK    7  A    between atoms: O_27  and  C_28
REMARK    8  A    between atoms: O_29  and  C_30
REMARK                            x       y       z     vdW  Elec       q    Type
REMARK                         _______ _______ _______ _____ _____    ______ ____
ROOT
ATOM      1  C   UNL     1       3.695   3.193   3.829  0.00  0.00    +0.046 C 
ATOM      2  C   UNL     1       2.681   3.488   2.754  0.00  0.00    -0.028 A 
ATOM      3  C   UNL     1       2.057   4.718   2.716  0.00  0.00    +0.025 A 
ATOM      4  C   UNL     1       1.125   4.998   1.733  0.00  0.00    +0.042 A 
ATOM      5  C   UNL     1       0.816   4.038   0.782  0.00  0.00    +0.024 A 
ATOM      6  C   UNL     1       1.438   2.811   0.818  0.00  0.00    -0.026 A 
ATOM      7  C   UNL     1       2.376   2.518   1.802  0.00  0.00    +0.039 A 
ATOM      8  N   UNL     1       2.865   1.220   1.633  0.00  0.00    -0.286 N 
ATOM      9  C   UNL     1       2.306   0.601   0.577  0.00  0.00    +0.211 C 
ATOM     10  O   UNL     1       2.536  -0.527   0.194  0.00  0.00    -0.277 OA
ATOM     11  C   UNL     1       1.338   1.578  -0.040  0.00  0.00    +0.049 C 
ATOM     12  C   UNL     1       1.721   1.885  -1.492  0.00  0.00    +0.076 C 
ATOM     13  C   UNL     1       0.470   1.507  -2.321  0.00  0.00    -0.004 C 
ATOM     14  C   UNL     1      -0.671   1.566  -1.274  0.00  0.00    -0.072 C 
ATOM     15  C   UNL     1      -1.840   0.675  -1.698  0.00  0.00    -0.014 C 
ATOM     16 CL   UNL     1       0.343   6.548   1.690  0.00  0.00    -0.084 Cl
ATOM     17  H   UNL     1       3.530   0.813   2.210  0.00  0.00    +0.155 HD
ATOM     18  N   UNL     1      -0.020   1.054  -0.057  0.00  0.00    +0.393 N 
ATOM     19  H   UNL     1      -0.531   1.373   0.775  0.00  0.00    -0.083 HD
ATOM     20  H   UNL     1      -0.001   0.028  -0.075  0.00  0.00    -0.083 HD
ENDROOT
BRANCH  12  21
ATOM     21  C   UNL     1       2.901   1.048  -1.912  0.00  0.00    +0.220 C 
ATOM     22  O   UNL     1       2.727  -0.074  -2.339  0.00  0.00    -0.275 OA
ATOM     23  N   UNL     1       4.150   1.545  -1.813  0.00  0.00    -0.282 N 
ATOM     24  H   UNL     1       4.297   2.408  -1.395  0.00  0.00    +0.155 HD
BRANCH  23  25
ATOM     25  C   UNL     1       5.236   0.815  -2.314  0.00  0.00    +0.079 A 
ATOM     26  C   UNL     1       5.082   0.028  -3.446  0.00  0.00    +0.072 A 
ATOM     27  C   UNL     1       6.159  -0.693  -3.939  0.00  0.00    +0.122 A 
ATOM     28  C   UNL     1       7.389  -0.628  -3.301  0.00  0.00    +0.049 A 
ATOM     29  C   UNL     1       7.545   0.155  -2.172  0.00  0.00    +0.051 A 
ATOM     30  C   UNL     1       6.474   0.882  -1.679  0.00  0.00    +0.141 A 
BRANCH  30  31
ATOM     31  O   UNL     1       6.630   1.657  -0.571  0.00  0.00    -0.493 OA
ATOM     32  C   UNL     1       7.927   1.678   0.028  0.00  0.00    +0.277 C 
ENDBRANCH  30  31
BRANCH  27  33
ATOM     33  O   UNL     1       6.009  -1.464  -5.048  0.00  0.00    -0.495 OA
ATOM     34  C   UNL     1       7.159  -2.180  -5.501  0.00  0.00    +0.277 C 
ENDBRANCH  27  33
ENDBRANCH  23  25
ENDBRANCH  12  21
TORSDOF 4
