REMARK  Name = ZINC41586592
REMARK  15 active torsions:
REMARK  status: ('A' for Active; 'I' for Inactive)
REMARK    1  A    between atoms: C_1  and  C_2
REMARK    2  A    between atoms: C_2  and  O_3
REMARK    3  A    between atoms: O_3  and  C_4
REMARK    4  A    between atoms: C_4  and  C_6
REMARK    5  A    between atoms: N_11  and  C_13
REMARK    6  A    between atoms: C_13  and  C_14
REMARK    7  A    between atoms: C_15  and  O_34
REMARK    8  A    between atoms: C_16  and  C_26
REMARK    9  A    between atoms: C_24  and  C_25
REMARK   10  A    between atoms: C_26  and  C_27
REMARK   11  A    between atoms: C_27  and  C_28
REMARK   12  A    between atoms: C_28  and  O_30
REMARK   13  A    between atoms: O_30  and  C_31
REMARK   14  A    between atoms: C_31  and  C_32
REMARK   15  A    between atoms: C_31  and  C_33
REMARK                            x       y       z     vdW  Elec       q    Type
REMARK                         _______ _______ _______ _____ _____    ______ ____
ROOT
ATOM      1  C   UNL     1       2.620  -6.455  -4.920  0.00  0.00    +0.021 A 
ATOM      2  C   UNL     1       1.805  -6.653  -6.023  0.00  0.00    +0.125 A 
ATOM      3  C   UNL     1       2.328  -7.169  -7.207  0.00  0.00    -0.004 A 
ATOM      4  C   UNL     1       3.652  -7.487  -7.296  0.00  0.00    +0.019 A 
ATOM      5  C   UNL     1       4.490  -7.293  -6.193  0.00  0.00    +0.021 A 
ATOM      6  C   UNL     1       3.969  -6.767  -4.996  0.00  0.00    +0.144 A 
ATOM      7  O   UNL     1       4.781  -6.577  -3.935  0.00  0.00    -0.422 OA
ATOM      8  C   UNL     1       6.089  -6.874  -3.992  0.00  0.00    +0.337 A 
ATOM      9  O   UNL     1       6.784  -6.686  -3.009  0.00  0.00    -0.245 OA
ATOM     10  C   UNL     1       6.679  -7.399  -5.160  0.00  0.00    +0.096 A 
ATOM     11  C   UNL     1       5.915  -7.626  -6.260  0.00  0.00    -0.033 A 
ATOM     12  C   UNL     1       6.520  -8.187  -7.521  0.00  0.00    +0.045 C 
ENDROOT
BRANCH   2  13
ATOM     13  O   UNL     1       0.485  -6.342  -5.950  0.00  0.00    -0.506 OA
ATOM     14  H   UNL     1       0.281  -5.433  -6.207  0.00  0.00    +0.292 HD
ENDBRANCH   2  13
BRANCH   1  15
ATOM     15  C   UNL     1       2.043  -5.897  -3.645  0.00  0.00    -0.036 C 
BRANCH  15  20
ATOM     16  C   UNL     1       1.468  -2.353  -2.550  0.00  0.00    +0.081 C 
ATOM     17  C   UNL     1       2.919  -1.864  -2.583  0.00  0.00    +0.011 C 
ATOM     18  C   UNL     1       3.635  -2.500  -3.778  0.00  0.00    -0.018 C 
ATOM     19  C   UNL     1       3.539  -4.024  -3.670  0.00  0.00    -0.078 C 
ATOM     20  N   UNL     1       2.129  -4.430  -3.670  0.00  0.00    +0.383 N 
ATOM     21  C   UNL     1       1.452  -3.882  -2.488  0.00  0.00    -0.064 C 
ATOM     22  H   UNL     1       1.680  -4.083  -4.504  0.00  0.00    -0.081 HD
BRANCH  16  23
ATOM     23  C   UNL     1       0.775  -1.794  -1.334  0.00  0.00    +0.308 C 
ATOM     24  O   UNL     1       0.314  -2.540  -0.504  0.00  0.00    -0.251 OA
BRANCH  23  25
ATOM     25  O   UNL     1       0.671  -0.465  -1.174  0.00  0.00    -0.465 OA
BRANCH  25  27
ATOM     26  C   UNL     1      -0.019   1.526   0.010  0.00  0.00    +0.048 C 
ATOM     27  C   UNL     1       0.002  -0.004   0.002  0.00  0.00    +0.229 C 
ENDBRANCH  25  27
ENDBRANCH  23  25
ENDBRANCH  16  23
ENDBRANCH  15  20
ENDBRANCH   1  15
BRANCH   3  28
ATOM     28  C   UNL     1       1.426  -7.379  -8.396  0.00  0.00    +0.050 C 
BRANCH  28  29
ATOM     29  C   UNL     1       1.311  -6.073  -9.185  0.00  0.00    +0.125 C 
BRANCH  29  30
ATOM     30  C   UNL     1       0.409  -6.283 -10.374  0.00  0.00    +0.308 C 
ATOM     31  O   UNL     1      -0.091  -7.365 -10.569  0.00  0.00    -0.251 OA
BRANCH  30  32
ATOM     32  O   UNL     1       0.161  -5.267 -11.215  0.00  0.00    -0.462 OA
BRANCH  32  33
ATOM     33  C   UNL     1      -0.703  -5.536 -12.321  0.00  0.00    +0.170 C 
ATOM     34  C   UNL     1      -2.151  -5.250 -11.918  0.00  0.00    +0.052 C 
ATOM     35  C   UNL     1      -0.316  -4.643 -13.501  0.00  0.00    +0.052 C 
ENDBRANCH  32  33
ENDBRANCH  30  32
ENDBRANCH  29  30
ENDBRANCH  28  29
ENDBRANCH   3  28
TORSDOF 11
