REMARK  Name = ZINC63140384
REMARK  8 active torsions:
REMARK  status: ('A' for Active; 'I' for Inactive)
REMARK    1  A    between atoms: C_1  and  C_2
REMARK    2  A    between atoms: C_2  and  C_3
REMARK    3  A    between atoms: C_2  and  O_4
REMARK    4  A    between atoms: O_4  and  C_5
REMARK    5  A    between atoms: C_8  and  C_13
REMARK    6  A    between atoms: C_10  and  O_11
REMARK    7  A    between atoms: O_11  and  C_12
REMARK    8  A    between atoms: N_32  and  C_35
REMARK                            x       y       z     vdW  Elec       q    Type
REMARK                         _______ _______ _______ _____ _____    ______ ____
ROOT
ATOM      1  C   UNL     1       6.291  -0.829  -0.937  0.00  0.00    +0.134 C 
ATOM      2  C   UNL     1       6.676  -2.190  -0.359  0.00  0.00    +0.131 C 
ATOM      3  C   UNL     1       8.154  -2.083   0.012  0.00  0.00    -0.034 C 
ATOM      4  C   UNL     1       8.797  -2.988  -0.711  0.00  0.00    -0.001 A 
ATOM      5  C   UNL     1      10.218  -3.369  -0.766  0.00  0.00    +0.010 A 
ATOM      6  C   UNL     1      10.541  -4.357  -1.642  0.00  0.00    +0.001 A 
ATOM      7  C   UNL     1       9.604  -4.996  -2.459  0.00  0.00    +0.002 A 
ATOM      8  C   UNL     1       8.277  -4.712  -2.474  0.00  0.00    +0.026 A 
ATOM      9  C   UNL     1       7.816  -3.690  -1.593  0.00  0.00    +0.043 A 
ATOM     10  N   UNL     1       6.597  -3.229  -1.395  0.00  0.00    -0.375 N 
ATOM     11  C   UNL     1       8.634  -1.064   1.010  0.00  0.00    +0.065 C 
ATOM     12  C   UNL     1       7.921   0.244   0.788  0.00  0.00    +0.167 C 
ATOM     13  N   UNL     1       6.801   0.268  -0.127  0.00  0.00    -0.279 N 
ATOM     14  C   UNL     1       6.188   1.489  -0.275  0.00  0.00    +0.234 C 
ATOM     15  O   UNL     1       5.198   1.624  -0.962  0.00  0.00    -0.274 OA
ATOM     16  C   UNL     1       6.807   2.658   0.461  0.00  0.00    +0.204 C 
ATOM     17  N   UNL     1       8.270   2.598   0.288  0.00  0.00    -0.288 N 
ATOM     18  C   UNL     1       8.860   1.381   0.470  0.00  0.00    +0.237 C 
ATOM     19  O   UNL     1      10.059   1.224   0.385  0.00  0.00    -0.274 OA
ATOM     20  H   UNL     1       5.788  -3.516  -1.847  0.00  0.00    +0.160 HD
ENDROOT
BRANCH  17  21
ATOM     21  C   UNL     1       9.053   3.785  -0.063  0.00  0.00    +0.077 C 
ATOM     22  C   UNL     1       8.924   4.823   1.071  0.00  0.00    +0.022 C 
ATOM     23  C   UNL     1      10.080   5.781   0.976  0.00  0.00    +0.002 C 
ATOM     24  C   UNL     1       9.733   7.045   0.167  0.00  0.00    +0.000 C 
ATOM     25  C   UNL     1       8.907   6.738  -1.097  0.00  0.00    +0.000 C 
ATOM     26  C   UNL     1       9.399   5.515  -1.823  0.00  0.00    +0.002 C 
ATOM     27  C   UNL     1       8.582   4.298  -1.341  0.00  0.00    +0.022 C 
ENDBRANCH  17  21
BRANCH   1  31
ATOM     28  C   UNL     1       2.027  -0.553  -1.118  0.00  0.00    +0.162 A 
ATOM     29  C   UNL     1       2.690  -0.309   0.074  0.00  0.00    +0.050 A 
ATOM     30  C   UNL     1       4.068  -0.399   0.130  0.00  0.00    +0.009 A 
ATOM     31  C   UNL     1       4.788  -0.732  -1.002  0.00  0.00    -0.021 A 
ATOM     32  C   UNL     1       4.133  -0.977  -2.195  0.00  0.00    +0.055 A 
ATOM     33  C   UNL     1       2.751  -0.894  -2.256  0.00  0.00    +0.162 A 
BRANCH  33  34
ATOM     34  O   UNL     1       2.105  -1.140  -3.427  0.00  0.00    -0.491 OA
ATOM     35  C   UNL     1       2.913  -1.484  -4.554  0.00  0.00    +0.277 C 
ENDBRANCH  33  34
BRANCH  28  36
ATOM     36  O   UNL     1       0.671  -0.465  -1.174  0.00  0.00    -0.486 OA
BRANCH  36  38
ATOM     37  C   UNL     1      -0.051   1.266   0.351  0.00  0.00    +0.051 C 
ATOM     38  C   UNL     1      -0.016  -0.236   0.058  0.00  0.00    +0.167 C 
ATOM     39  C   UNL     1      -1.446  -0.768  -0.049  0.00  0.00    +0.051 C 
ENDBRANCH  36  38
ENDBRANCH  28  36
ENDBRANCH   1  31
TORSDOF 5
