REMARK  Name = ZINC36531246
REMARK  9 active torsions:
REMARK  status: ('A' for Active; 'I' for Inactive)
REMARK    1  A    between atoms: C_1  and  N_2
REMARK    2  A    between atoms: N_2  and  C_3
REMARK    3  A    between atoms: C_3  and  C_5
REMARK    4  A    between atoms: C_3  and  C_12
REMARK    5  A    between atoms: C_8  and  O_11
REMARK    6  A    between atoms: N_14  and  C_15
REMARK    7  A    between atoms: C_21  and  C_23
REMARK    8  A    between atoms: C_27  and  O_30
REMARK    9  A    between atoms: C_28  and  O_29
REMARK                            x       y       z     vdW  Elec       q    Type
REMARK                         _______ _______ _______ _____ _____    ______ ____
ROOT
ATOM      1  C   UNL     1       0.601  -0.801   1.166  0.00  0.00    +0.192 C 
ENDROOT
BRANCH   1   2
ATOM      2  C   UNL     1       2.057  -0.749   1.552  0.00  0.00    -0.018 A 
ATOM      3  C   UNL     1       2.763  -1.922   1.741  0.00  0.00    +0.009 A 
ATOM      4  C   UNL     1       4.098  -1.876   2.095  0.00  0.00    +0.046 A 
ATOM      5  C   UNL     1       4.729  -0.652   2.260  0.00  0.00    +0.117 A 
ATOM      6  C   UNL     1       4.018   0.524   2.068  0.00  0.00    +0.046 A 
ATOM      7  C   UNL     1       2.685   0.473   1.710  0.00  0.00    +0.009 A 
BRANCH   5   8
ATOM      8  O   UNL     1       6.042  -0.605   2.608  0.00  0.00    -0.507 OA
ATOM      9  H   UNL     1       6.649  -0.593   1.855  0.00  0.00    +0.292 HD
ENDBRANCH   5   8
ENDBRANCH   1   2
BRANCH   1  11
ATOM     10  C   UNL     1       0.729   1.345  -0.182  0.00  0.00    +0.133 C 
ATOM     11  N   UNL     1       0.403  -0.081  -0.094  0.00  0.00    -0.285 N 
ATOM     12  C   UNL     1      -0.079  -0.729  -1.173  0.00  0.00    +0.251 C 
ATOM     13  O   UNL     1      -0.446  -1.884  -1.073  0.00  0.00    -0.270 OA
BRANCH  12  14
ATOM     14  C   UNL     1      -0.162  -0.038  -2.474  0.00  0.00    +0.082 A 
ATOM     15  C   UNL     1       0.894   0.768  -2.909  0.00  0.00    +0.017 A 
ATOM     16  C   UNL     1       0.814   1.411  -4.124  0.00  0.00    +0.005 A 
ATOM     17  C   UNL     1      -0.309   1.265  -4.921  0.00  0.00    +0.049 A 
ATOM     18  C   UNL     1      -1.363   0.470  -4.504  0.00  0.00    +0.159 A 
ATOM     19  C   UNL     1      -1.295  -0.191  -3.281  0.00  0.00    +0.171 A 
BRANCH  19  20
ATOM     20  O   UNL     1      -2.324  -0.976  -2.871  0.00  0.00    -0.503 OA
ATOM     21  H   UNL     1      -2.996  -0.507  -2.358  0.00  0.00    +0.292 HD
ENDBRANCH  19  20
BRANCH  18  22
ATOM     22  O   UNL     1      -2.463   0.331  -5.291  0.00  0.00    -0.503 OA
ATOM     23  H   UNL     1      -2.411  -0.408  -5.913  0.00  0.00    +0.292 HD
ENDBRANCH  18  22
ENDBRANCH  12  14
ENDBRANCH   1  11
BRANCH   1  24
ATOM     24  C   UNL     1      -0.229  -0.158   2.248  0.00  0.00    +0.238 C 
ATOM     25  O   UNL     1      -0.917   0.807   1.991  0.00  0.00    -0.273 OA
ATOM     26  N   UNL     1      -0.205  -0.655   3.500  0.00  0.00    -0.311 N 
ATOM     27  H   UNL     1       0.345  -1.427   3.705  0.00  0.00    +0.149 HD
BRANCH  26  28
ATOM     28  C   UNL     1      -1.012  -0.030   4.551  0.00  0.00    +0.073 C 
ATOM     29  C   UNL     1      -0.238   1.141   5.160  0.00  0.00    +0.022 C 
ATOM     30  C   UNL     1      -1.080   1.794   6.258  0.00  0.00    +0.002 C 
ATOM     31  C   UNL     1      -1.385   0.763   7.347  0.00  0.00    +0.000 C 
ATOM     32  C   UNL     1      -2.159  -0.408   6.739  0.00  0.00    +0.002 C 
ATOM     33  C   UNL     1      -1.316  -1.061   5.641  0.00  0.00    +0.022 C 
ENDBRANCH  26  28
ENDBRANCH   1  24
TORSDOF 8
