REMARK  Name = ZINC06203204
REMARK  7 active torsions:
REMARK  status: ('A' for Active; 'I' for Inactive)
REMARK    1  A    between atoms: C_1  and  C_2
REMARK    2  A    between atoms: C_2  and  C_3
REMARK    3  A    between atoms: C_3  and  C_4
REMARK    4  A    between atoms: C_4  and  C_5
REMARK    5  A    between atoms: N_7  and  C_8
REMARK    6  A    between atoms: C_8  and  N_10
REMARK    7  A    between atoms: C_13  and  C_16
REMARK                            x       y       z     vdW  Elec       q    Type
REMARK                         _______ _______ _______ _____ _____    ______ ____
ROOT
ATOM      1  N   UNL     1       1.277   3.399   0.007  0.00  0.00    -0.276 N 
ATOM      2  C   UNL     1       1.103   2.021   0.002  0.00  0.00    +0.164 A 
ATOM      3  N   UNL     1      -0.016   1.321   0.009  0.00  0.00    -0.225 NA
ATOM      4  C   UNL     1       0.002  -0.004   0.002  0.00  0.00    +0.080 A 
ATOM      5  C   UNL     1       1.202  -0.658  -0.013  0.00  0.00    +0.076 A 
ATOM      6  S   UNL     1       2.334   0.726  -0.016  0.00  0.00    -0.060 S 
ATOM      7  H   UNL     1       0.505   3.985   0.017  0.00  0.00    +0.156 HD
ENDROOT
BRANCH   4   8
ATOM      8  C   UNL     1      -1.268  -0.770   0.009  0.00  0.00    +0.001 A 
ATOM      9  C   UNL     1      -1.244  -2.163  -0.004  0.00  0.00    +0.011 A 
ATOM     10  C   UNL     1      -2.429  -2.871   0.006  0.00  0.00    +0.016 A 
ATOM     11  C   UNL     1      -3.639  -2.200   0.022  0.00  0.00    +0.018 A 
ATOM     12  C   UNL     1      -3.668  -0.816   0.031  0.00  0.00    +0.016 A 
ATOM     13  C   UNL     1      -2.490  -0.099   0.025  0.00  0.00    +0.011 A 
ATOM     14 BR   UNL     1      -5.259  -3.176   0.030  0.00  0.00    -0.050 Br
ENDBRANCH   4   8
BRANCH   1  15
ATOM     15  C   UNL     1       2.520   3.921  -0.002  0.00  0.00    +0.142 C 
ATOM     16  S   UNL     1       3.883   2.886  -0.019  0.00  0.00    -0.018 S 
BRANCH  15  19
ATOM     17  C   UNL     1       3.931   5.780  -0.006  0.00  0.00    +0.218 C 
ATOM     18  O   UNL     1       4.897   5.047  -0.018  0.00  0.00    -0.275 OA
ATOM     19  N   UNL     1       2.689   5.258   0.003  0.00  0.00    -0.268 N 
ATOM     20  H   UNL     1       1.916   5.845   0.013  0.00  0.00    +0.156 HD
BRANCH  17  21
ATOM     21  C   UNL     1       4.120   7.275  -0.000  0.00  0.00    +0.096 C 
BRANCH  21  22
ATOM     22  C   UNL     1       5.615   7.601  -0.013  0.00  0.00    +0.009 C 
BRANCH  22  24
ATOM     23  C   UNL     1       7.302   9.444  -0.019  0.00  0.00    +0.004 C 
ATOM     24  C   UNL     1       5.807   9.118  -0.007  0.00  0.00    -0.003 C 
ENDBRANCH  22  24
ENDBRANCH  21  22
ENDBRANCH  17  21
ENDBRANCH  15  19
ENDBRANCH   1  15
TORSDOF 6
