REMARK  Name = ZINC36609363
REMARK  16 active torsions:
REMARK  status: ('A' for Active; 'I' for Inactive)
REMARK    1  A    between atoms: C_1  and  C_2
REMARK    2  A    between atoms: C_2  and  C_3
REMARK    3  A    between atoms: C_2  and  C_4
REMARK    4  A    between atoms: C_2  and  C_5
REMARK    5  A    between atoms: C_5  and  C_6
REMARK    6  A    between atoms: C_6  and  C_7
REMARK    7  A    between atoms: C_6  and  C_8
REMARK    8  A    between atoms: C_6  and  N_9
REMARK    9  A    between atoms: C_10  and  C_12
REMARK   10  A    between atoms: C_12  and  C_14
REMARK   11  A    between atoms: C_12  and  N_21
REMARK   12  A    between atoms: C_19  and  O_20
REMARK   13  A    between atoms: N_21  and  C_22
REMARK   14  A    between atoms: C_28  and  C_30
REMARK   15  A    between atoms: C_32  and  N_37
REMARK   16  A    between atoms: C_35  and  O_36
REMARK                            x       y       z     vdW  Elec       q    Type
REMARK                         _______ _______ _______ _____ _____    ______ ____
ROOT
ATOM      1  C   UNL     1       6.321  -1.316  -3.683  0.00  0.00    +0.201 C 
ENDROOT
BRANCH   1   2
ATOM      2  C   UNL     1       5.320  -2.419  -3.455  0.00  0.00    +0.024 A 
ATOM      3  C   UNL     1       5.429  -3.232  -2.344  0.00  0.00    +0.009 A 
ATOM      4  C   UNL     1       4.511  -4.245  -2.134  0.00  0.00    +0.001 A 
ATOM      5  C   UNL     1       3.482  -4.445  -3.035  0.00  0.00    +0.004 A 
ATOM      6  C   UNL     1       3.368  -3.634  -4.148  0.00  0.00    +0.046 A 
ATOM      7  C   UNL     1       4.285  -2.614  -4.358  0.00  0.00    +0.122 A 
BRANCH   7   8
ATOM      8  O   UNL     1       4.172  -1.811  -5.448  0.00  0.00    -0.506 OA
ATOM      9  H   UNL     1       4.647  -2.135  -6.226  0.00  0.00    +0.292 HD
ENDBRANCH   7   8
ENDBRANCH   1   2
BRANCH   1  11
ATOM     10  N   UNL     1       4.598   0.437  -3.400  0.00  0.00    -0.308 N 
ATOM     11  C   UNL     1       5.813  -0.040  -3.063  0.00  0.00    +0.239 C 
ATOM     12  O   UNL     1       6.497   0.558  -2.260  0.00  0.00    -0.273 OA
ATOM     13  H   UNL     1       4.051  -0.042  -4.042  0.00  0.00    +0.149 HD
BRANCH  10  14
ATOM     14  C   UNL     1       4.104   1.677  -2.796  0.00  0.00    +0.030 C 
ATOM     15  C   UNL     1       5.127   2.794  -3.017  0.00  0.00    +0.031 C 
ATOM     16  C   UNL     1       3.896   1.466  -1.296  0.00  0.00    +0.031 C 
BRANCH  14  17
ATOM     17  C   UNL     1       2.775   2.067  -3.447  0.00  0.00    +0.031 C 
BRANCH  17  19
ATOM     18  C   UNL     1       2.306   0.449  -5.292  0.00  0.00    +0.010 C 
ATOM     19  C   UNL     1       2.859   1.835  -4.957  0.00  0.00    -0.036 C 
ATOM     20  C   UNL     1       4.319   1.924  -5.406  0.00  0.00    +0.010 C 
ATOM     21  C   UNL     1       2.037   2.902  -5.682  0.00  0.00    +0.010 C 
ENDBRANCH  17  19
ENDBRANCH  14  17
ENDBRANCH  10  14
ENDBRANCH   1  11
BRANCH   1  22
ATOM     22  N   UNL     1       7.600  -1.682  -3.070  0.00  0.00    -0.251 N 
ATOM     23  C   UNL     1       8.306  -2.722  -3.554  0.00  0.00    +0.255 C 
ATOM     24  O   UNL     1       7.943  -3.283  -4.570  0.00  0.00    -0.269 OA
BRANCH  22  25
ATOM     25  C   UNL     1       8.087  -0.953  -1.980  0.00  0.00    +0.038 A 
ATOM     26  C   UNL     1       9.091  -0.011  -2.166  0.00  0.00    +0.023 A 
ATOM     27  C   UNL     1       9.569   0.708  -1.089  0.00  0.00    +0.002 A 
ATOM     28  C   UNL     1       9.050   0.491   0.175  0.00  0.00    +0.000 A 
ATOM     29  C   UNL     1       8.051  -0.446   0.363  0.00  0.00    +0.002 A 
ATOM     30  C   UNL     1       7.564  -1.164  -0.711  0.00  0.00    +0.023 A 
ENDBRANCH  22  25
BRANCH  23  31
ATOM     31  C   UNL     1       9.521  -3.179  -2.853  0.00  0.00    +0.081 A 
ATOM     32  C   UNL     1       9.559  -3.205  -1.457  0.00  0.00    +0.049 A 
ATOM     33  C   UNL     1      10.696  -3.633  -0.808  0.00  0.00    +0.127 A 
ATOM     34  C   UNL     1      11.804  -4.039  -1.534  0.00  0.00    +0.036 A 
ATOM     35  C   UNL     1      11.781  -4.019  -2.914  0.00  0.00    +0.048 A 
ATOM     36  C   UNL     1      10.642  -3.596  -3.584  0.00  0.00    +0.129 A 
BRANCH  33  37
ATOM     37  N   UNL     1      10.735  -3.659   0.672  0.00  0.00    +0.056 N 
ATOM     38  O   UNL     1       9.803  -3.225   1.308  0.00  0.00    -0.126 OA
ATOM     39  O   UNL     1      11.698  -4.113   1.243  0.00  0.00    -0.126 OA
ENDBRANCH  33  37
BRANCH  36  40
ATOM     40  O   UNL     1      10.615  -3.582  -4.940  0.00  0.00    -0.506 OA
ATOM     41  H   UNL     1      10.917  -2.750  -5.330  0.00  0.00    +0.292 HD
ENDBRANCH  36  40
ENDBRANCH  23  31
ENDBRANCH   1  22
TORSDOF 11
