REMARK  Name = ZINC05980153
REMARK  12 active torsions:
REMARK  status: ('A' for Active; 'I' for Inactive)
REMARK    1  A    between atoms: C_1  and  C_2
REMARK    2  A    between atoms: C_2  and  O_3
REMARK    3  A    between atoms: O_3  and  P_4
REMARK    4  A    between atoms: P_4  and  C_6
REMARK    5  A    between atoms: P_4  and  O_26
REMARK    6  A    between atoms: C_7  and  C_25
REMARK    7  A    between atoms: C_9  and  N_24
REMARK    8  A    between atoms: C_10  and  C_22
REMARK    9  A    between atoms: C_11  and  C_13
REMARK   10  A    between atoms: C_17  and  N_19
REMARK   11  A    between atoms: O_26  and  C_27
REMARK   12  A    between atoms: C_27  and  C_28
REMARK                            x       y       z     vdW  Elec       q    Type
REMARK                         _______ _______ _______ _____ _____    ______ ____
ROOT
ATOM      1  C   UNL     1      -0.770   5.831   1.270  0.00  0.00    +0.091 C 
ATOM      2  C   UNL     1      -1.993   6.294   1.232  0.00  0.00    +0.116 C 
ATOM      3  O   UNL     1      -2.700   6.366   0.085  0.00  0.00    -0.445 OA
ATOM      4  C   UNL     1      -2.061   6.321  -1.099  0.00  0.00    +0.198 C 
ATOM      5  C   UNL     1      -0.794   5.843  -1.193  0.00  0.00    +0.098 C 
ATOM      6  C   UNL     1      -0.070   5.347   0.030  0.00  0.00    +0.105 C 
ATOM      7  C   UNL     1      -2.635   6.762   2.513  0.00  0.00    +0.087 C 
ENDROOT
BRANCH   6   8
ATOM      8  C   UNL     1      -0.050   3.840   0.022  0.00  0.00    -0.032 A 
ATOM      9  C   UNL     1      -1.238   3.133   0.030  0.00  0.00    +0.005 A 
ATOM     10  C   UNL     1      -1.219   1.751   0.017  0.00  0.00    +0.003 A 
ATOM     11  C   UNL     1      -0.013   1.076   0.008  0.00  0.00    +0.033 A 
ATOM     12  C   UNL     1       1.175   1.783   0.000  0.00  0.00    +0.126 A 
ATOM     13  C   UNL     1       1.156   3.166   0.008  0.00  0.00    +0.037 A 
BRANCH  12  14
ATOM     14  N   UNL     1       2.467   1.060  -0.016  0.00  0.00    +0.056 N 
ATOM     15  O   UNL     1       2.483  -0.157  -0.023  0.00  0.00    -0.126 OA
ATOM     16  O   UNL     1       3.513   1.684  -0.022  0.00  0.00    -0.126 OA
ENDBRANCH  12  14
ENDBRANCH   6   8
BRANCH   4  17
ATOM     17  N   UNL     1      -2.700   6.767  -2.229  0.00  0.00    -0.328 N 
ATOM     18  H   UNL     1      -2.246   6.738  -3.086  0.00  0.00    +0.145 HD
ATOM     19  H   UNL     1      -3.605   7.111  -2.171  0.00  0.00    +0.145 HD
ENDBRANCH   4  17
BRANCH   1  20
ATOM     20  P   UNL     1       0.102   5.771   2.859  0.00  0.00    +0.363 P 
ATOM     21  O   UNL     1       1.327   6.598   2.781  0.00  0.00    -0.253 OA
BRANCH  20  22
ATOM     22  O   UNL     1      -0.858   6.341   4.020  0.00  0.00    -0.305 OA
BRANCH  22  24
ATOM     23  C   UNL     1      -1.579   7.076   6.206  0.00  0.00    +0.034 C 
ATOM     24  C   UNL     1      -0.424   6.521   5.369  0.00  0.00    +0.167 C 
ENDBRANCH  22  24
ENDBRANCH  20  22
BRANCH  20  25
ATOM     25  O   UNL     1       0.503   4.248   3.194  0.00  0.00    -0.305 OA
BRANCH  25  26
ATOM     26  C   UNL     1       1.292   3.883   4.329  0.00  0.00    +0.167 C 
ATOM     27  C   UNL     1       1.485   2.365   4.348  0.00  0.00    +0.034 C 
ENDBRANCH  25  26
ENDBRANCH  20  25
ENDBRANCH   1  20
BRANCH   5  28
ATOM     28  C   UNL     1      -0.141   5.809  -2.467  0.00  0.00    +0.101 C 
ATOM     29  N   UNL     1       0.377   5.783  -3.478  0.00  0.00    -0.191 NA
ENDBRANCH   5  28
TORSDOF 9
