REMARK  Name = ZINC04303907
REMARK  6 active torsions:
REMARK  status: ('A' for Active; 'I' for Inactive)
REMARK    1  A    between atoms: C_1  and  C_2
REMARK    2  A    between atoms: C_2  and  N_51
REMARK    3  A    between atoms: C_5  and  C_6
REMARK    4  A    between atoms: C_16  and  C_24
REMARK    5  A    between atoms: C_18  and  C_22
REMARK    6  A    between atoms: C_19  and  N_21
REMARK                            x       y       z     vdW  Elec       q    Type
REMARK                         _______ _______ _______ _____ _____    ______ ____
ROOT
ATOM      1  C   UNL     1      -4.725   3.079   3.764  0.00  0.00    -0.039 C 
ATOM      2  C   UNL     1      -5.160   2.429   2.468  0.00  0.00    -0.021 C 
ATOM      3  C   UNL     1      -6.225   1.609   2.423  0.00  0.00    +0.013 C 
ATOM      4  C   UNL     1      -4.371   2.727   1.255  0.00  0.00    +0.130 C 
ATOM      5  C   UNL     1      -3.462   3.703   1.282  0.00  0.00    -0.031 C 
ATOM      6  C   UNL     1      -3.199   4.496   2.536  0.00  0.00    -0.042 C 
ATOM      7  C   UNL     1      -2.662   4.035   0.045  0.00  0.00    +0.092 C 
ATOM      8  C   UNL     1      -3.325   3.466  -1.177  0.00  0.00    +0.098 C 
ATOM      9  C   UNL     1      -4.254   2.483  -1.067  0.00  0.00    +0.199 C 
ATOM     10  O   UNL     1      -4.604   1.998   0.136  0.00  0.00    -0.441 OA
ATOM     11  N   UNL     1      -4.369   4.477   3.429  0.00  0.00    +0.385 N 
ATOM     12  H   UNL     1      -5.162   4.917   2.949  0.00  0.00    -0.081 HD
ENDROOT
BRANCH   3  13
ATOM     13  C   UNL     1      -6.890   1.196   3.671  0.00  0.00    -0.025 A 
ATOM     14  C   UNL     1      -6.146   1.032   4.842  0.00  0.00    +0.011 A 
ATOM     15  C   UNL     1      -6.775   0.652   6.008  0.00  0.00    +0.039 A 
ATOM     16  C   UNL     1      -8.142   0.421   6.018  0.00  0.00    +0.123 A 
ATOM     17  C   UNL     1      -8.885   0.577   4.858  0.00  0.00    +0.039 A 
ATOM     18  C   UNL     1      -8.268   0.962   3.687  0.00  0.00    +0.011 A 
ATOM     19  F   UNL     1      -8.752   0.044   7.162  0.00  0.00    -0.205 F 
ENDBRANCH   3  13
BRANCH   7  20
ATOM     20  C   UNL     1      -1.278   3.454   0.177  0.00  0.00    -0.035 A 
ATOM     21  C   UNL     1      -1.111   2.087   0.304  0.00  0.00    +0.007 A 
ATOM     22  C   UNL     1       0.158   1.554   0.431  0.00  0.00    +0.038 A 
ATOM     23  C   UNL     1       1.263   2.388   0.420  0.00  0.00    +0.123 A 
ATOM     24  C   UNL     1       1.095   3.756   0.288  0.00  0.00    +0.038 A 
ATOM     25  C   UNL     1      -0.175   4.287   0.166  0.00  0.00    +0.007 A 
ATOM     26  F   UNL     1       2.504   1.868   0.539  0.00  0.00    -0.205 F 
ENDBRANCH   7  20
BRANCH   9  27
ATOM     27  N   UNL     1      -4.844   1.980  -2.200  0.00  0.00    -0.328 N 
ATOM     28  H   UNL     1      -4.596   2.326  -3.071  0.00  0.00    +0.145 HD
ATOM     29  H   UNL     1      -5.509   1.277  -2.128  0.00  0.00    +0.145 HD
ENDBRANCH   9  27
BRANCH  11  31
ATOM     30  C   UNL     1      -2.828   4.670   5.353  0.00  0.00    -0.017 C 
ATOM     31  C   UNL     1      -4.072   5.235   4.665  0.00  0.00    -0.081 C 
ENDBRANCH  11  31
BRANCH   8  32
ATOM     32  C   UNL     1      -2.972   3.966  -2.472  0.00  0.00    +0.101 C 
ATOM     33  N   UNL     1      -2.693   4.363  -3.499  0.00  0.00    -0.191 NA
ENDBRANCH   8  32
TORSDOF 5
