REMARK  Name = ZINC06997107
REMARK  4 active torsions:
REMARK  status: ('A' for Active; 'I' for Inactive)
REMARK    1  A    between atoms: C_1  and  C_2
REMARK    2  A    between atoms: C_5  and  C_8
REMARK    3  A    between atoms: C_8  and  N_9
REMARK    4  A    between atoms: N_19  and  C_24
REMARK                            x       y       z     vdW  Elec       q    Type
REMARK                         _______ _______ _______ _____ _____    ______ ____
ROOT
ATOM      1  N   UNL     1      -1.063   2.058   0.333  0.00  0.00    -0.264 N 
ATOM      2  C   UNL     1      -0.127   3.065   0.086  0.00  0.00    +0.043 A 
ATOM      3  C   UNL     1       1.262   3.014  -0.001  0.00  0.00    +0.024 A 
ATOM      4  C   UNL     1       1.986   4.162  -0.247  0.00  0.00    +0.002 A 
ATOM      5  C   UNL     1       1.339   5.374  -0.404  0.00  0.00    +0.000 A 
ATOM      6  C   UNL     1      -0.041   5.436  -0.314  0.00  0.00    +0.009 A 
ATOM      7  C   UNL     1      -0.768   4.292  -0.070  0.00  0.00    +0.017 A 
ATOM      8  C   UNL     1      -2.229   4.003   0.084  0.00  0.00    +0.192 C 
ATOM      9  C   UNL     1      -2.327   2.530   0.344  0.00  0.00    +0.259 C 
ATOM     10  O   UNL     1      -3.341   1.891   0.527  0.00  0.00    -0.272 OA
ATOM     11  N   UNL     1      -3.030   4.444  -1.053  0.00  0.00    -0.243 N 
ATOM     12  C   UNL     1      -4.159   5.114  -0.822  0.00  0.00    +0.231 C 
ATOM     13  O   UNL     1      -4.853   5.511  -1.733  0.00  0.00    -0.274 OA
ATOM     14  C   UNL     1      -4.542   5.363   0.630  0.00  0.00    +0.168 C 
ATOM     15  S   UNL     1      -2.947   4.963   1.472  0.00  0.00    -0.111 S 
ENDROOT
BRANCH  11  16
ATOM     16  C   UNL     1      -2.622   4.169  -2.363  0.00  0.00    +0.038 A 
ATOM     17  C   UNL     1      -2.919   2.942  -2.941  0.00  0.00    +0.023 A 
ATOM     18  C   UNL     1      -2.520   2.676  -4.236  0.00  0.00    +0.002 A 
ATOM     19  C   UNL     1      -1.813   3.624  -4.952  0.00  0.00    +0.000 A 
ATOM     20  C   UNL     1      -1.510   4.845  -4.377  0.00  0.00    +0.002 A 
ATOM     21  C   UNL     1      -1.912   5.120  -3.084  0.00  0.00    +0.023 A 
ENDBRANCH  11  16
BRANCH   1  22
ATOM     22  C   UNL     1      -0.714   0.651   0.547  0.00  0.00    +0.148 C 
BRANCH  22  27
ATOM     23  C   UNL     1      -0.649  -2.115  -4.526  0.00  0.00    +0.044 C 
ATOM     24  C   UNL     1      -0.666  -1.394  -3.203  0.00  0.00    -0.050 A 
ATOM     25  C   UNL     1       0.486  -0.795  -2.727  0.00  0.00    +0.003 A 
ATOM     26  C   UNL     1       0.470  -0.134  -1.513  0.00  0.00    +0.005 A 
ATOM     27  C   UNL     1      -0.697  -0.070  -0.776  0.00  0.00    -0.030 A 
ATOM     28  C   UNL     1      -1.848  -0.673  -1.249  0.00  0.00    +0.005 A 
ATOM     29  C   UNL     1      -1.833  -1.331  -2.465  0.00  0.00    +0.003 A 
ENDBRANCH  22  27
ENDBRANCH   1  22
TORSDOF 3
