REMARK  Name = ZINC39711329
REMARK  12 active torsions:
REMARK  status: ('A' for Active; 'I' for Inactive)
REMARK    1  A    between atoms: C_1  and  C_2
REMARK    2  A    between atoms: C_2  and  C_3
REMARK    3  A    between atoms: C_2  and  C_4
REMARK    4  A    between atoms: C_2  and  N_5
REMARK    5  A    between atoms: C_6  and  C_11
REMARK    6  A    between atoms: C_11  and  C_13
REMARK    7  A    between atoms: C_11  and  N_27
REMARK    8  A    between atoms: C_18  and  O_25
REMARK    9  A    between atoms: O_25  and  C_26
REMARK   10  A    between atoms: N_30  and  C_33
REMARK   11  A    between atoms: C_38  and  O_39
REMARK   12  A    between atoms: O_39  and  C_40
REMARK                            x       y       z     vdW  Elec       q    Type
REMARK                         _______ _______ _______ _____ _____    ______ ____
ROOT
ATOM      1  C   UNL     1      -0.572  -0.834  -3.318  0.00  0.00    -0.009 C 
ENDROOT
BRANCH   1   2
ATOM      2  C   UNL     1      -1.757  -1.530  -2.645  0.00  0.00    +0.088 C 
ATOM      3  C   UNL     1      -2.880  -0.519  -2.520  0.00  0.00    -0.006 C 
ATOM      4  C   UNL     1      -3.356  -0.265  -1.268  0.00  0.00    -0.004 A 
ATOM      5  C   UNL     1      -4.438   0.697  -1.058  0.00  0.00    +0.055 A 
ATOM      6  C   UNL     1      -4.881   0.920   0.210  0.00  0.00    +0.121 A 
ATOM      7  C   UNL     1      -4.322   0.248   1.304  0.00  0.00    +0.047 A 
ATOM      8  C   UNL     1      -3.316  -0.654   1.171  0.00  0.00    +0.027 A 
ATOM      9  C   UNL     1      -2.787  -0.955  -0.098  0.00  0.00    +0.041 A 
ATOM     10  N   UNL     1      -1.800  -1.844  -0.213  0.00  0.00    -0.285 N 
ATOM     11  C   UNL     1      -1.256  -2.172  -1.372  0.00  0.00    +0.223 C 
ATOM     12  O   UNL     1      -0.357  -2.991  -1.413  0.00  0.00    -0.275 OA
ATOM     13  H   UNL     1      -1.464  -2.268   0.592  0.00  0.00    +0.155 HD
BRANCH   6  14
ATOM     14  O   UNL     1      -5.887   1.811   0.418  0.00  0.00    -0.495 OA
ATOM     15  C   UNL     1      -6.312   2.006   1.768  0.00  0.00    +0.277 C 
ENDBRANCH   6  14
ENDBRANCH   1   2
BRANCH   1  16
ATOM     16  N   UNL     1      -1.014  -0.224  -4.579  0.00  0.00    +0.387 N 
ATOM     17  C   UNL     1      -1.732  -1.224  -5.379  0.00  0.00    -0.059 C 
ATOM     18  C   UNL     1      -2.292  -0.560  -6.641  0.00  0.00    +0.086 C 
ATOM     19  N   UNL     1      -1.186   0.103  -7.349  0.00  0.00    -0.331 N 
ATOM     20  C   UNL     1      -0.310   1.001  -6.580  0.00  0.00    +0.086 C 
ATOM     21  C   UNL     1       0.156   0.264  -5.321  0.00  0.00    -0.059 C 
ATOM     22  H   UNL     1      -1.630   0.550  -4.379  0.00  0.00    -0.081 HD
BRANCH  19  23
ATOM     23  C   UNL     1      -0.973  -0.113  -8.715  0.00  0.00    +0.072 A 
ATOM     24  C   UNL     1      -1.583   0.707  -9.653  0.00  0.00    +0.027 A 
ATOM     25  C   UNL     1      -1.370   0.491 -11.002  0.00  0.00    +0.002 A 
ATOM     26  C   UNL     1      -0.551  -0.541 -11.419  0.00  0.00    +0.004 A 
ATOM     27  C   UNL     1       0.060  -1.363 -10.491  0.00  0.00    +0.047 A 
ATOM     28  C   UNL     1      -0.143  -1.150  -9.137  0.00  0.00    +0.141 A 
BRANCH  28  29
ATOM     29  O   UNL     1       0.461  -1.955  -8.222  0.00  0.00    -0.493 OA
ATOM     30  C   UNL     1       1.298  -2.997  -8.727  0.00  0.00    +0.277 C 
ENDBRANCH  28  29
ENDBRANCH  19  23
ENDBRANCH   1  16
BRANCH   1  32
ATOM     31  N   UNL     1       1.222   0.822  -2.941  0.00  0.00    -0.183 NA
ATOM     32  C   UNL     1      -0.025   0.253  -2.389  0.00  0.00    +0.205 C 
ATOM     33  N   UNL     1      -0.953   1.390  -2.326  0.00  0.00    -0.152 NA
ATOM     34  N   UNL     1      -0.378   2.397  -2.745  0.00  0.00    -0.070 NA
ATOM     35  N   UNL     1       0.937   2.148  -3.137  0.00  0.00    -0.179 N 
ATOM     36  H   UNL     1       1.552   2.808  -3.493  0.00  0.00    +0.191 HD
BRANCH  31  38
ATOM     37  C   UNL     1       2.009   1.379  -0.689  0.00  0.00    +0.029 C 
ATOM     38  C   UNL     1       2.337   0.658  -1.998  0.00  0.00    +0.035 C 
ATOM     39  C   UNL     1       3.609   1.254  -2.604  0.00  0.00    +0.029 C 
ATOM     40  C   UNL     1       2.554  -0.831  -1.720  0.00  0.00    +0.029 C 
ENDBRANCH  31  38
ENDBRANCH   1  32
TORSDOF 7
