REMARK  Name = ZINC65195471
REMARK  5 active torsions:
REMARK  status: ('A' for Active; 'I' for Inactive)
REMARK    1  A    between atoms: C_1  and  C_2
REMARK    2  A    between atoms: C_7  and  N_8
REMARK    3  A    between atoms: C_9  and  C_11
REMARK    4  A    between atoms: N_16  and  C_18
REMARK    5  A    between atoms: C_27  and  C_29
REMARK                            x       y       z     vdW  Elec       q    Type
REMARK                         _______ _______ _______ _____ _____    ______ ____
ROOT
ATOM      1  C   UNL     1      -0.169   0.054   4.882  0.00  0.00    +0.102 C 
ATOM      2  C   UNL     1      -1.492   0.851   4.952  0.00  0.00    +0.110 C 
ATOM      3  C   UNL     1      -2.453  -0.086   5.651  0.00  0.00    +0.221 C 
ATOM      4  O   UNL     1      -3.660   0.036   5.658  0.00  0.00    -0.275 OA
ATOM      5  N   UNL     1      -1.774  -1.072   6.263  0.00  0.00    -0.271 N 
ATOM      6  C   UNL     1      -0.326  -0.924   6.068  0.00  0.00    +0.127 C 
ENDROOT
BRANCH   5   7
ATOM      7  C   UNL     1      -2.372  -2.108   6.992  0.00  0.00    +0.037 A 
ATOM      8  C   UNL     1      -1.585  -3.081   7.595  0.00  0.00    +0.025 A 
ATOM      9  C   UNL     1      -2.172  -4.099   8.312  0.00  0.00    +0.025 A 
ATOM     10  C   UNL     1      -3.562  -4.163   8.440  0.00  0.00    +0.040 A 
ATOM     11  C   UNL     1      -4.341  -3.189   7.835  0.00  0.00    -0.023 A 
ATOM     12  C   UNL     1      -3.753  -2.164   7.120  0.00  0.00    +0.029 A 
ATOM     13  C   UNL     1      -5.795  -3.488   8.124  0.00  0.00    +0.056 C 
ATOM     14  C   UNL     1      -5.766  -4.766   8.978  0.00  0.00    +0.118 C 
ATOM     15  N   UNL     1      -4.347  -5.104   9.117  0.00  0.00    -0.271 N 
ATOM     16  C   UNL     1      -3.868  -6.164   9.798  0.00  0.00    +0.223 C 
ATOM     17  O   UNL     1      -2.672  -6.357   9.855  0.00  0.00    -0.275 OA
BRANCH  16  18
ATOM     18  C   UNL     1      -4.818  -7.108  10.488  0.00  0.00    +0.076 C 
ATOM     19  C   UNL     1      -4.817  -7.119  12.018  0.00  0.00    +0.013 C 
ATOM     20  C   UNL     1      -4.213  -8.292  11.244  0.00  0.00    +0.013 C 
ENDBRANCH  16  18
ENDBRANCH   5   7
BRANCH   1  22
ATOM     21  N   UNL     1       0.025  -0.014   2.417  0.00  0.00    -0.285 N 
ATOM     22  C   UNL     1      -0.057  -0.693   3.578  0.00  0.00    +0.222 C 
ATOM     23  O   UNL     1      -0.040  -1.906   3.574  0.00  0.00    -0.275 OA
ATOM     24  H   UNL     1       0.077   0.955   2.425  0.00  0.00    +0.155 HD
BRANCH  21  31
ATOM     25  C   UNL     1      -1.265   1.183   0.181  0.00  0.00    +0.046 C 
ATOM     26  C   UNL     1      -0.584  -0.158   0.084  0.00  0.00    -0.028 A 
ATOM     27  C   UNL     1      -0.569  -0.841  -1.116  0.00  0.00    +0.025 A 
ATOM     28  C   UNL     1       0.056  -2.072  -1.206  0.00  0.00    +0.041 A 
ATOM     29  C   UNL     1       0.668  -2.623  -0.093  0.00  0.00    +0.022 A 
ATOM     30  C   UNL     1       0.656  -1.944   1.109  0.00  0.00    +0.025 A 
ATOM     31  C   UNL     1       0.034  -0.706   1.201  0.00  0.00    +0.036 A 
ATOM     32 CL   UNL     1       0.071  -2.928  -2.716  0.00  0.00    -0.084 Cl
ENDBRANCH  21  31
ENDBRANCH   1  22
TORSDOF 4
