REMARK  Name = ZINC35552412
REMARK  9 active torsions:
REMARK  status: ('A' for Active; 'I' for Inactive)
REMARK    1  A    between atoms: C_1  and  C_2
REMARK    2  A    between atoms: C_2  and  O_3
REMARK    3  A    between atoms: O_3  and  C_4
REMARK    4  A    between atoms: C_4  and  C_6
REMARK    5  A    between atoms: C_12  and  C_14
REMARK    6  A    between atoms: C_14  and  C_15
REMARK    7  A    between atoms: C_15  and  C_17
REMARK    8  A    between atoms: C_15  and  C_26
REMARK    9  A    between atoms: C_21  and  N_23
REMARK                            x       y       z     vdW  Elec       q    Type
REMARK                         _______ _______ _______ _____ _____    ______ ____
ROOT
ATOM      1  C   UNL     1       5.840  -6.857   3.978  0.00  0.00    +0.060 C 
ENDROOT
BRANCH   1   2
ATOM      2  C   UNL     1       5.673  -8.349   4.109  0.00  0.00    -0.015 A 
ATOM      3  C   UNL     1       5.092  -9.169   3.219  0.00  0.00    +0.087 A 
ATOM      4  N   UNL     1       5.124 -10.457   3.680  0.00  0.00    -0.360 N 
ATOM      5  H   UNL     1       4.765 -11.226   3.211  0.00  0.00    +0.165 HD
ATOM      6  C   UNL     1       5.742 -10.498   4.910  0.00  0.00    +0.047 A 
ATOM      7  C   UNL     1       6.119  -9.181   5.230  0.00  0.00    +0.003 A 
ATOM      8  C   UNL     1       6.779  -8.918   6.431  0.00  0.00    +0.010 A 
ATOM      9  C   UNL     1       7.059  -9.943   7.290  0.00  0.00    +0.001 A 
ATOM     10  C   UNL     1       6.694 -11.245   6.977  0.00  0.00    +0.002 A 
ATOM     11  C   UNL     1       6.033 -11.526   5.801  0.00  0.00    +0.026 A 
ENDBRANCH   1   2
BRANCH   1  12
ATOM     12  C   UNL     1       6.652  -6.549   2.746  0.00  0.00    -0.037 A 
ATOM     13  C   UNL     1       6.195  -6.940   1.502  0.00  0.00    +0.004 A 
ATOM     14  C   UNL     1       6.939  -6.658   0.372  0.00  0.00    +0.003 A 
ATOM     15  C   UNL     1       8.141  -5.984   0.486  0.00  0.00    +0.033 A 
ATOM     16  C   UNL     1       8.598  -5.593   1.731  0.00  0.00    +0.126 A 
ATOM     17  C   UNL     1       7.851  -5.871   2.861  0.00  0.00    +0.037 A 
BRANCH  16  18
ATOM     18  N   UNL     1       9.885  -4.872   1.854  0.00  0.00    +0.056 N 
ATOM     19  O   UNL     1      10.537  -4.625   0.866  0.00  0.00    -0.126 OA
ATOM     20  O   UNL     1      10.284  -4.529   2.942  0.00  0.00    -0.126 OA
ENDBRANCH  16  18
ENDBRANCH   1  12
BRANCH   1  21
ATOM     21  C   UNL     1       4.465  -6.198   3.860  0.00  0.00    +0.109 C 
BRANCH  21  28
ATOM     22  C   UNL     1       1.516  -2.381   2.500  0.00  0.00    +0.101 C 
ATOM     23  C   UNL     1       2.965  -1.888   2.512  0.00  0.00    +0.033 C 
ATOM     24  C   UNL     1       3.679  -2.444   3.748  0.00  0.00    +0.108 C 
ATOM     25  N   UNL     1       3.539  -3.907   3.756  0.00  0.00    -0.301 N 
ATOM     26  C   UNL     1       2.194  -4.488   3.657  0.00  0.00    +0.108 C 
ATOM     27  C   UNL     1       1.496  -3.909   2.422  0.00  0.00    +0.033 C 
ATOM     28  C   UNL     1       4.625  -4.700   3.853  0.00  0.00    +0.216 C 
ATOM     29  O   UNL     1       5.730  -4.207   3.934  0.00  0.00    -0.276 OA
BRANCH  22  30
ATOM     30  C   UNL     1       0.801  -1.808   1.304  0.00  0.00    +0.310 C 
ATOM     31  O   UNL     1       0.324  -2.546   0.475  0.00  0.00    -0.251 OA
BRANCH  30  32
ATOM     32  O   UNL     1       0.693  -0.477   1.160  0.00  0.00    -0.465 OA
BRANCH  32  34
ATOM     33  C   UNL     1      -0.019   1.526   0.010  0.00  0.00    +0.048 C 
ATOM     34  C   UNL     1       0.002  -0.004   0.002  0.00  0.00    +0.229 C 
ENDBRANCH  32  34
ENDBRANCH  30  32
ENDBRANCH  22  30
ENDBRANCH  21  28
ENDBRANCH   1  21
TORSDOF 8
