REMARK  Name = ZINC09296446
REMARK  4 active torsions:
REMARK  status: ('A' for Active; 'I' for Inactive)
REMARK    1  A    between atoms: C_4  and  N_7
REMARK    2  A    between atoms: N_14  and  N_15
REMARK    3  A    between atoms: C_16  and  C_17
REMARK    4  A    between atoms: N_27  and  C_28
REMARK                            x       y       z     vdW  Elec       q    Type
REMARK                         _______ _______ _______ _____ _____    ______ ____
ROOT
ATOM      1  N   UNL     1      -6.404   2.448   0.180  0.00  0.00    -0.283 N 
ATOM      2  C   UNL     1      -6.206   3.785   0.467  0.00  0.00    +0.225 A 
ATOM      3  N   UNL     1      -7.056   4.427   1.262  0.00  0.00    -0.181 NA
ATOM      4  C   UNL     1      -6.865   5.713   1.539  0.00  0.00    +0.225 A 
ATOM      5  N   UNL     1      -5.825   6.358   1.020  0.00  0.00    -0.179 NA
ATOM      6  C   UNL     1      -4.975   5.715   0.224  0.00  0.00    +0.241 A 
ATOM      7  N   UNL     1      -5.168   4.430  -0.057  0.00  0.00    -0.179 NA
ATOM      8  N   UNL     1      -3.894   6.385  -0.316  0.00  0.00    -0.205 N 
ATOM      9  N   UNL     1      -7.748   6.380   2.366  0.00  0.00    -0.283 N 
ATOM     10  H   UNL     1      -5.735   1.955  -0.320  0.00  0.00    +0.155 HD
ATOM     11  H   UNL     1      -3.799   7.341  -0.182  0.00  0.00    +0.177 HD
ATOM     12  H   UNL     1      -8.554   5.937   2.674  0.00  0.00    +0.155 HD
ENDROOT
BRANCH   1  16
ATOM     13  C   UNL     1      -9.876   0.535   1.460  0.00  0.00    +0.000 A 
ATOM     14  C   UNL     1      -8.682  -0.161   1.412  0.00  0.00    +0.002 A 
ATOM     15  C   UNL     1      -7.529   0.470   0.988  0.00  0.00    +0.023 A 
ATOM     16  C   UNL     1      -7.570   1.806   0.610  0.00  0.00    +0.034 A 
ATOM     17  C   UNL     1      -8.769   2.504   0.666  0.00  0.00    +0.023 A 
ATOM     18  C   UNL     1      -9.919   1.865   1.085  0.00  0.00    +0.002 A 
ENDBRANCH   1  16
BRANCH   9  19
ATOM     19  C   UNL     1      -7.480   7.695   2.759  0.00  0.00    +0.034 A 
ATOM     20  C   UNL     1      -6.172   8.100   2.989  0.00  0.00    +0.023 A 
ATOM     21  C   UNL     1      -5.910   9.401   3.372  0.00  0.00    +0.002 A 
ATOM     22  C   UNL     1      -6.950  10.297   3.538  0.00  0.00    +0.000 A 
ATOM     23  C   UNL     1      -8.255   9.896   3.315  0.00  0.00    +0.002 A 
ATOM     24  C   UNL     1      -8.523   8.598   2.926  0.00  0.00    +0.023 A 
ENDBRANCH   9  19
BRANCH   8  25
ATOM     25  N   UNL     1      -2.935   5.683  -1.058  0.00  0.00    -0.188 NA
ATOM     26  C   UNL     1      -1.868   6.293  -1.482  0.00  0.00    +0.139 C 
BRANCH  26  27
ATOM     27  C   UNL     1      -0.917   5.588  -2.355  0.00  0.00    +0.002 A 
ATOM     28  C   UNL     1       0.168   6.258  -2.909  0.00  0.00    +0.010 A 
ATOM     29  C   UNL     1       1.063   5.590  -3.733  0.00  0.00    +0.001 A 
ATOM     30  C   UNL     1       0.919   4.270  -4.030  0.00  0.00    +0.008 A 
ATOM     31  C   UNL     1      -0.154   3.530  -3.506  0.00  0.00    -0.017 A 
ATOM     32  C   UNL     1      -1.093   4.169  -2.659  0.00  0.00    -0.009 A 
ATOM     33  C   UNL     1      -2.163   3.436  -2.134  0.00  0.00    +0.009 A 
ATOM     34  C   UNL     1      -2.294   2.116  -2.449  0.00  0.00    +0.001 A 
ATOM     35  C   UNL     1      -1.369   1.482  -3.276  0.00  0.00    +0.001 A 
ATOM     36  C   UNL     1      -0.316   2.166  -3.803  0.00  0.00    +0.008 A 
ENDBRANCH  26  27
ENDBRANCH   8  25
TORSDOF 4
