REMARK  Name = ZINC33812667
REMARK  15 active torsions:
REMARK  status: ('A' for Active; 'I' for Inactive)
REMARK    1  A    between atoms: C_1  and  C_2
REMARK    2  A    between atoms: C_2  and  C_3
REMARK    3  A    between atoms: C_3  and  C_4
REMARK    4  A    between atoms: C_4  and  N_5
REMARK    5  A    between atoms: C_6  and  N_28
REMARK    6  A    between atoms: C_7  and  C_15
REMARK    7  A    between atoms: C_8  and  C_14
REMARK    8  A    between atoms: C_9  and  C_12
REMARK    9  A    between atoms: N_19  and  C_23
REMARK   10  A    between atoms: C_23  and  C_24
REMARK   11  A    between atoms: C_24  and  C_25
REMARK   12  A    between atoms: C_25  and  O_26
REMARK   13  A    between atoms: O_26  and  C_27
REMARK   14  A    between atoms: N_31  and  C_34
REMARK   15  A    between atoms: C_34  and  C_35
REMARK                            x       y       z     vdW  Elec       q    Type
REMARK                         _______ _______ _______ _____ _____    ______ ____
ROOT
ATOM      1  N   UNL     1      -3.050  -2.484  -0.357  0.00  0.00    -0.295 N 
ATOM      2  C   UNL     1      -3.520  -2.760   0.887  0.00  0.00    +0.112 A 
ATOM      3  C   UNL     1      -4.623  -3.613   1.060  0.00  0.00    +0.019 A 
ATOM      4  C   UNL     1      -5.240  -4.182  -0.067  0.00  0.00    -0.017 A 
ATOM      5  C   UNL     1      -4.739  -3.883  -1.331  0.00  0.00    +0.120 A 
ATOM      6  C   UNL     1      -3.627  -3.012  -1.452  0.00  0.00    +0.270 A 
ATOM      7  O   UNL     1      -3.187  -2.743  -2.556  0.00  0.00    -0.266 OA
ATOM      8  C   UNL     1      -6.424  -5.101   0.090  0.00  0.00    +0.046 C 
ENDROOT
BRANCH   3   9
ATOM      9  C   UNL     1      -5.124  -3.908   2.404  0.00  0.00    +0.032 C 
ATOM     10  C   UNL     1      -6.368  -3.496   2.771  0.00  0.00    +0.077 C 
ATOM     11  C   UNL     1      -7.072  -3.711   3.995  0.00  0.00    +0.258 C 
ATOM     12  O   UNL     1      -6.568  -4.344   4.905  0.00  0.00    -0.269 OA
ATOM     13  N   UNL     1      -8.286  -3.200   4.111  0.00  0.00    -0.255 N 
ATOM     14  C   UNL     1      -8.844  -2.497   3.100  0.00  0.00    +0.121 C 
ATOM     15  S   UNL     1     -10.386  -1.756   3.033  0.00  0.00    -0.027 S 
ATOM     16  S   UNL     1      -7.563  -2.531   1.856  0.00  0.00    -0.061 S 
BRANCH  13  17
ATOM     17  C   UNL     1      -9.037  -3.401   5.352  0.00  0.00    +0.117 C 
BRANCH  17  18
ATOM     18  C   UNL     1      -8.737  -2.255   6.321  0.00  0.00    +0.047 C 
BRANCH  18  19
ATOM     19  C   UNL     1      -9.522  -2.464   7.617  0.00  0.00    +0.161 C 
BRANCH  19  20
ATOM     20  O   UNL     1      -9.242  -1.394   8.522  0.00  0.00    -0.383 OA
ATOM     21  C   UNL     1      -9.929  -1.494   9.771  0.00  0.00    +0.193 C 
ENDBRANCH  19  20
ENDBRANCH  18  19
ENDBRANCH  17  18
ENDBRANCH  13  17
ENDBRANCH   3   9
BRANCH   2  22
ATOM     22  N   UNL     1      -2.917  -2.205   1.977  0.00  0.00    -0.320 N 
ATOM     23  C   UNL     1      -3.408  -0.944   2.553  0.00  0.00    +0.088 C 
ATOM     24  C   UNL     1      -3.594  -1.139   4.062  0.00  0.00    -0.060 C 
ATOM     25  N   UNL     1      -2.340  -1.626   4.650  0.00  0.00    +0.382 N 
ATOM     26  C   UNL     1      -2.020  -2.956   4.116  0.00  0.00    -0.060 C 
ATOM     27  C   UNL     1      -1.760  -2.853   2.613  0.00  0.00    +0.088 C 
ATOM     28  H   UNL     1      -1.593  -0.986   4.424  0.00  0.00    -0.082 HD
BRANCH  25  29
ATOM     29  C   UNL     1      -2.484  -1.708   6.109  0.00  0.00    -0.082 C 
ATOM     30  C   UNL     1      -1.142  -2.095   6.734  0.00  0.00    -0.017 C 
ENDBRANCH  25  29
ENDBRANCH   2  22
BRANCH   5  31
ATOM     31  C   UNL     1      -5.345  -4.447  -2.500  0.00  0.00    +0.105 C 
ATOM     32  N   UNL     1      -5.826  -4.894  -3.427  0.00  0.00    -0.191 NA
ENDBRANCH   5  31
BRANCH   1  33
ATOM     33  C   UNL     1      -1.898  -1.592  -0.509  0.00  0.00    +0.126 C 
BRANCH  33  34
ATOM     34  C   UNL     1      -2.389  -0.167  -0.775  0.00  0.00    +0.021 C 
BRANCH  34  36
ATOM     35  C   UNL     1      -1.677   2.190  -1.199  0.00  0.00    +0.004 C 
ATOM     36  C   UNL     1      -1.186   0.765  -0.934  0.00  0.00    -0.002 C 
ENDBRANCH  34  36
ENDBRANCH  33  34
ENDBRANCH   1  33
TORSDOF 11
