REMARK  Name = ZINC28051767
REMARK  4 active torsions:
REMARK  status: ('A' for Active; 'I' for Inactive)
REMARK    1  A    between atoms: C_1  and  C_2
REMARK    2  A    between atoms: C_5  and  C_8
REMARK    3  A    between atoms: C_13  and  C_22
REMARK    4  A    between atoms: C_16  and  C_21
REMARK                            x       y       z     vdW  Elec       q    Type
REMARK                         _______ _______ _______ _____ _____    ______ ____
ROOT
ATOM      1  C   UNL     1       4.992   1.466  -3.489  0.00  0.00    +0.032 C 
ATOM      2  C   UNL     1       5.086   2.611  -2.479  0.00  0.00    +0.059 C 
ATOM      3  C   UNL     1       4.352   2.233  -1.212  0.00  0.00    +0.019 C 
ATOM      4  C   UNL     1       3.269   1.429  -1.258  0.00  0.00    +0.024 C 
ATOM      5  C   UNL     1       2.490   1.046  -0.016  0.00  0.00    +0.091 C 
ATOM      6  C   UNL     1       3.282   1.412   1.199  0.00  0.00    +0.049 A 
ATOM      7  C   UNL     1       3.143   1.081   2.544  0.00  0.00    +0.087 A 
ATOM      8  N   UNL     1       4.122   1.687   3.170  0.00  0.00    -0.081 NA
ATOM      9  O   UNL     1       4.821   2.327   2.408  0.00  0.00    -0.339 OA
ATOM     10  C   UNL     1       4.387   2.222   1.156  0.00  0.00    +0.226 A 
ATOM     11  N   UNL     1       4.840   2.749  -0.035  0.00  0.00    -0.286 N 
ATOM     12  C   UNL     1       2.083   0.204   3.157  0.00  0.00    +0.069 C 
ATOM     13  C   UNL     1       2.810   0.902  -2.479  0.00  0.00    +0.162 C 
ATOM     14  O   UNL     1       1.823   0.193  -2.486  0.00  0.00    -0.292 OA
ATOM     15  C   UNL     1       3.511   1.197  -3.776  0.00  0.00    +0.088 C 
ATOM     16  H   UNL     1       5.576   3.567  -0.057  0.00  0.00    +0.155 HD
ENDROOT
BRANCH   1  21
ATOM     17  C   UNL     1       7.683   2.960  -8.380  0.00  0.00    +0.044 C 
ATOM     18  C   UNL     1       6.981   2.571  -7.105  0.00  0.00    -0.050 A 
ATOM     19  C   UNL     1       7.406   1.465  -6.392  0.00  0.00    +0.003 A 
ATOM     20  C   UNL     1       6.762   1.108  -5.222  0.00  0.00    +0.004 A 
ATOM     21  C   UNL     1       5.694   1.856  -4.765  0.00  0.00    -0.043 A 
ATOM     22  C   UNL     1       5.266   2.959  -5.480  0.00  0.00    +0.004 A 
ATOM     23  C   UNL     1       5.913   3.319  -6.647  0.00  0.00    +0.003 A 
ENDBRANCH   1  21
BRANCH   5  24
ATOM     24  C   UNL     1       1.176   1.783   0.000  0.00  0.00    -0.033 A 
ATOM     25  C   UNL     1      -0.013   1.076   0.008  0.00  0.00    +0.005 A 
ATOM     26  C   UNL     1      -1.219   1.750   0.017  0.00  0.00    +0.003 A 
ATOM     27  C   UNL     1      -1.239   3.132   0.031  0.00  0.00    +0.038 A 
ATOM     28  C   UNL     1      -0.050   3.841   0.023  0.00  0.00    +0.124 A 
ATOM     29  C   UNL     1       1.158   3.164   0.008  0.00  0.00    +0.043 A 
ATOM     30  F   UNL     1      -0.068   5.192   0.030  0.00  0.00    -0.205 F 
ENDBRANCH   5  24
TORSDOF 2
