REMARK  Name = ZINC54111731
REMARK  6 active torsions:
REMARK  status: ('A' for Active; 'I' for Inactive)
REMARK    1  A    between atoms: C_5  and  S_8
REMARK    2  A    between atoms: C_6  and  N_7
REMARK    3  A    between atoms: S_8  and  N_11
REMARK    4  A    between atoms: N_11  and  C_12
REMARK    5  A    between atoms: C_12  and  C_13
REMARK    6  A    between atoms: C_13  and  N_14
REMARK                            x       y       z     vdW  Elec       q    Type
REMARK                         _______ _______ _______ _____ _____    ______ ____
ROOT
ATOM      1  S   UNL     1       1.026  -2.306  -0.904  0.00  0.00    +0.061 S 
ATOM      2  O   UNL     1      -0.338  -2.565  -1.206  0.00  0.00    -0.153 OA
ATOM      3  O   UNL     1       2.067  -2.506  -1.851  0.00  0.00    -0.153 OA
ENDROOT
BRANCH   1   8
ATOM      4  C   UNL     1       0.058   1.364   0.444  0.00  0.00    +0.040 A 
ATOM      5  C   UNL     1       1.268   2.031   0.389  0.00  0.00    +0.021 A 
ATOM      6  C   UNL     1       2.400   1.376  -0.060  0.00  0.00    +0.032 A 
ATOM      7  C   UNL     1       2.326   0.052  -0.455  0.00  0.00    +0.047 A 
ATOM      8  C   UNL     1       1.120  -0.620  -0.401  0.00  0.00    +0.140 A 
ATOM      9  C   UNL     1      -0.019   0.035   0.049  0.00  0.00    +0.053 A 
ATOM     10 BR   UNL     1       3.877  -0.839  -1.069  0.00  0.00    -0.048 Br
ATOM     11 BR   UNL     1       1.374   3.841   0.927  0.00  0.00    -0.050 Br
BRANCH   9  12
ATOM     12  N   UNL     1      -1.240  -0.641   0.104  0.00  0.00    -0.356 N 
ATOM     13  H   UNL     1      -2.072  -0.145   0.060  0.00  0.00    +0.142 HD
ATOM     14  H   UNL     1      -1.256  -1.608   0.188  0.00  0.00    +0.142 HD
ENDBRANCH   9  12
ENDBRANCH   1   8
BRANCH   1  15
ATOM     15  N   UNL     1       1.403  -3.233   0.416  0.00  0.00    -0.192 NA
ATOM     16  H   UNL     1       2.204  -3.780   0.411  0.00  0.00    +0.148 HD
BRANCH  15  17
ATOM     17  C   UNL     1       0.527  -3.225   1.590  0.00  0.00    +0.087 C 
BRANCH  17  18
ATOM     18  C   UNL     1       0.875  -4.411   2.493  0.00  0.00    -0.062 C 
BRANCH  18  19
ATOM     19  N   UNL     1      -0.004  -4.404   3.670  0.00  0.00    +0.381 N 
ATOM     20  C   UNL     1      -1.399  -4.719   3.270  0.00  0.00    -0.079 C 
ATOM     21  C   UNL     1      -2.041  -5.221   4.588  0.00  0.00    -0.020 C 
ATOM     22  C   UNL     1      -0.893  -6.020   5.249  0.00  0.00    -0.020 C 
ATOM     23  C   UNL     1       0.397  -5.472   4.612  0.00  0.00    -0.079 C 
ATOM     24  H   UNL     1       0.034  -3.505   4.127  0.00  0.00    -0.082 HD
ENDBRANCH  18  19
ENDBRANCH  17  18
ENDBRANCH  15  17
ENDBRANCH   1  15
TORSDOF 6
