REMARK  Name = ZINC04652614
REMARK  7 active torsions:
REMARK  status: ('A' for Active; 'I' for Inactive)
REMARK    1  A    between atoms: C_1  and  C_2
REMARK    2  A    between atoms: C_2  and  C_3
REMARK    3  A    between atoms: C_3  and  C_5
REMARK    4  A    between atoms: C_3  and  N_15
REMARK    5  A    between atoms: N_15  and  S_16
REMARK    6  A    between atoms: S_16  and  C_19
REMARK    7  A    between atoms: C_22  and  N_25
REMARK                            x       y       z     vdW  Elec       q    Type
REMARK                         _______ _______ _______ _____ _____    ______ ____
ROOT
ATOM      1  N   UNL     1      -2.084   1.555   1.533  0.00  0.00    -0.186 NA
ATOM      2  H   UNL     1      -2.781   1.752   0.887  0.00  0.00    +0.148 HD
ENDROOT
BRANCH   1   3
ATOM      3  S   UNL     1      -2.398   0.546   2.808  0.00  0.00    +0.059 S 
ATOM      4  O   UNL     1      -3.760   0.159   2.693  0.00  0.00    -0.153 OA
ATOM      5  O   UNL     1      -1.338  -0.398   2.850  0.00  0.00    -0.153 OA
BRANCH   3   6
ATOM      6  C   UNL     1      -2.272   1.510   4.278  0.00  0.00    +0.105 A 
ATOM      7  C   UNL     1      -1.086   1.534   4.989  0.00  0.00    +0.031 A 
ATOM      8  C   UNL     1      -0.986   2.294   6.139  0.00  0.00    +0.034 A 
ATOM      9  C   UNL     1      -2.074   3.022   6.584  0.00  0.00    +0.126 A 
ATOM     10  C   UNL     1      -3.260   2.994   5.876  0.00  0.00    +0.034 A 
ATOM     11  C   UNL     1      -3.360   2.238   4.723  0.00  0.00    +0.031 A 
BRANCH   9  12
ATOM     12  N   UNL     1      -1.967   3.832   7.819  0.00  0.00    +0.056 N 
ATOM     13  O   UNL     1      -2.925   4.473   8.210  0.00  0.00    -0.126 OA
ATOM     14  O   UNL     1      -0.922   3.856   8.443  0.00  0.00    -0.126 OA
ENDBRANCH   9  12
ENDBRANCH   3   6
ENDBRANCH   1   3
BRANCH   1  15
ATOM     15  C   UNL     1      -0.754   2.149   1.379  0.00  0.00    +0.082 C 
BRANCH  15  16
ATOM     16  C   UNL     1      -0.092   1.599   0.115  0.00  0.00    -0.012 C 
ATOM     17  C   UNL     1      -0.950   1.948  -1.103  0.00  0.00    +0.012 C 
ATOM     18  C   UNL     1      -0.288   1.397  -2.368  0.00  0.00    -0.010 C 
ATOM     19  C   UNL     1      -0.157  -0.123  -2.255  0.00  0.00    +0.007 C 
ATOM     20  C   UNL     1       0.701  -0.472  -1.037  0.00  0.00    -0.010 C 
ATOM     21  C   UNL     1       0.039   0.079   0.228  0.00  0.00    +0.012 C 
ATOM     22  C   UNL     1       2.090   0.149  -1.197  0.00  0.00    +0.007 C 
ATOM     23  C   UNL     1       1.959   1.669  -1.310  0.00  0.00    -0.010 C 
ATOM     24  C   UNL     1       1.101   2.018  -2.528  0.00  0.00    +0.007 C 
ATOM     25  C   UNL     1       1.297   2.220  -0.045  0.00  0.00    +0.012 C 
ENDBRANCH  15  16
BRANCH  15  27
ATOM     26  C   UNL     1      -1.471   4.229   2.564  0.00  0.00    +0.005 C 
ATOM     27  C   UNL     1      -0.884   3.670   1.266  0.00  0.00    +0.017 C 
ENDBRANCH  15  27
ENDBRANCH   1  15
TORSDOF 6
