REMARK  Name = ZINC47936836
REMARK  8 active torsions:
REMARK  status: ('A' for Active; 'I' for Inactive)
REMARK    1  A    between atoms: C_5  and  C_7
REMARK    2  A    between atoms: C_7  and  C_8
REMARK    3  A    between atoms: C_8  and  N_9
REMARK    4  A    between atoms: C_10  and  C_12
REMARK    5  A    between atoms: N_15  and  C_18
REMARK    6  A    between atoms: C_18  and  C_19
REMARK    7  A    between atoms: N_21  and  C_22
REMARK    8  A    between atoms: C_22  and  C_27
REMARK                            x       y       z     vdW  Elec       q    Type
REMARK                         _______ _______ _______ _____ _____    ______ ____
ROOT
ATOM      1  C   UNL     1       1.536  -6.353   2.551  0.00  0.00    +0.071 C 
ATOM      2  C   UNL     1       0.225  -6.880   1.960  0.00  0.00    -0.006 C 
ATOM      3  C   UNL     1       0.219  -8.408   2.027  0.00  0.00    -0.077 C 
ATOM      4  N   UNL     1       0.336  -8.841   3.425  0.00  0.00    +0.385 N 
ATOM      5  C   UNL     1       1.623  -8.401   3.977  0.00  0.00    -0.077 C 
ATOM      6  C   UNL     1       1.683  -6.872   3.985  0.00  0.00    -0.006 C 
ATOM      7  H   UNL     1      -0.416  -8.438   3.964  0.00  0.00    -0.081 HD
ENDROOT
BRANCH   1   9
ATOM      8  N   UNL     1       1.394  -4.168   1.402  0.00  0.00    -0.315 N 
ATOM      9  C   UNL     1       1.516  -4.847   2.560  0.00  0.00    +0.216 C 
ATOM     10  O   UNL     1       1.610  -4.245   3.609  0.00  0.00    -0.276 OA
ATOM     11  H   UNL     1       1.319  -4.649   0.563  0.00  0.00    +0.149 HD
BRANCH   8  12
ATOM     12  C   UNL     1       1.375  -2.703   1.411  0.00  0.00    +0.109 C 
BRANCH  12  13
ATOM     13  C   UNL     1       1.228  -2.186  -0.022  0.00  0.00    +0.056 C 
BRANCH  13  18
ATOM     14  C   UNL     1      -0.017   1.378   0.010  0.00  0.00    +0.000 A 
ATOM     15  C   UNL     1       1.171   2.087   0.002  0.00  0.00    +0.003 A 
ATOM     16  C   UNL     1       2.377   1.414  -0.013  0.00  0.00    +0.038 A 
ATOM     17  C   UNL     1       2.397   0.029  -0.021  0.00  0.00    +0.127 A 
ATOM     18  C   UNL     1       1.208  -0.679  -0.013  0.00  0.00    -0.011 A 
ATOM     19  C   UNL     1       0.002  -0.004   0.002  0.00  0.00    +0.006 A 
ATOM     20  F   UNL     1       3.577  -0.630  -0.036  0.00  0.00    -0.205 F 
ENDBRANCH  13  18
ENDBRANCH  12  13
ENDBRANCH   8  12
ENDBRANCH   1   9
BRANCH   4  21
ATOM     21  C   UNL     1       0.251 -10.306   3.491  0.00  0.00    +0.019 C 
BRANCH  21  22
ATOM     22  C   UNL     1       0.247 -10.744   4.933  0.00  0.00    +0.198 C 
ATOM     23  O   UNL     1       0.309  -9.917   5.819  0.00  0.00    -0.278 OA
ATOM     24  N   UNL     1       0.175 -12.055   5.239  0.00  0.00    -0.299 N 
ATOM     25  H   UNL     1       0.126 -12.716   4.531  0.00  0.00    +0.150 HD
BRANCH  24  26
ATOM     26  C   UNL     1       0.171 -12.480   6.641  0.00  0.00    +0.121 C 
ATOM     27  C   UNL     1       1.497 -12.077   7.319  0.00  0.00    +0.041 C 
ATOM     28  C   UNL     1       1.809 -13.256   8.274  0.00  0.00    +0.003 C 
ATOM     29  C   UNL     1       1.358 -14.490   7.453  0.00  0.00    +0.003 C 
ATOM     30  C   UNL     1       0.083 -14.014   6.726  0.00  0.00    +0.041 C 
BRANCH  26  31
ATOM     31  C   UNL     1      -0.965 -11.870   7.350  0.00  0.00    +0.088 C 
ATOM     32  N   UNL     1      -1.842 -11.399   7.897  0.00  0.00    -0.194 NA
ENDBRANCH  26  31
ENDBRANCH  24  26
ENDBRANCH  21  22
ENDBRANCH   4  21
TORSDOF 8
