REMARK  Name = ZINC22864287
REMARK  9 active torsions:
REMARK  status: ('A' for Active; 'I' for Inactive)
REMARK    1  A    between atoms: C_1  and  C_2
REMARK    2  A    between atoms: C_2  and  O_3
REMARK    3  A    between atoms: O_3  and  C_4
REMARK    4  A    between atoms: C_4  and  C_6
REMARK    5  A    between atoms: C_7  and  C_14
REMARK    6  A    between atoms: C_8  and  C_12
REMARK    7  A    between atoms: C_9  and  N_11
REMARK    8  A    between atoms: C_14  and  S_15
REMARK    9  A    between atoms: S_15  and  C_16
REMARK                            x       y       z     vdW  Elec       q    Type
REMARK                         _______ _______ _______ _____ _____    ______ ____
ROOT
ATOM      1  S   UNL     1      -2.974   0.222  -1.668  0.00  0.00    -0.081 S 
ENDROOT
BRANCH   1   2
ATOM      2  C   UNL     1      -4.671   0.566  -1.345  0.00  0.00    +0.191 A 
ATOM      3  N   UNL     1      -5.082   0.697  -0.089  0.00  0.00    -0.207 NA
ATOM      4  C   UNL     1      -6.342   0.961   0.214  0.00  0.00    +0.129 A 
ATOM      5  C   UNL     1      -7.295   1.099  -0.833  0.00  0.00    +0.051 A 
ATOM      6  C   UNL     1      -8.729   1.383  -0.734  0.00  0.00    -0.025 A 
ATOM      7  C   UNL     1      -9.418   1.465  -1.889  0.00  0.00    -0.004 A 
ATOM      8  S   UNL     1      -8.220   1.174  -3.164  0.00  0.00    -0.073 S 
ATOM      9  C   UNL     1      -6.790   0.942  -2.139  0.00  0.00    +0.115 A 
ATOM     10  N   UNL     1      -5.516   0.685  -2.361  0.00  0.00    -0.215 NA
ATOM     11  C   UNL     1     -10.881   1.742  -2.056  0.00  0.00    +0.043 C 
ATOM     12  C   UNL     1     -11.568   1.555  -0.696  0.00  0.00    +0.005 C 
ATOM     13  C   UNL     1     -10.758   2.299   0.370  0.00  0.00    +0.005 C 
ATOM     14  C   UNL     1      -9.430   1.579   0.608  0.00  0.00    +0.037 C 
ATOM     15  N   UNL     1      -6.730   1.094   1.535  0.00  0.00    -0.343 N 
ATOM     16  H   UNL     1      -7.779   1.314   1.780  0.00  0.00    +0.144 HD
ATOM     17  H   UNL     1      -5.989   0.981   2.340  0.00  0.00    +0.144 HD
ENDBRANCH   1   2
BRANCH   1  18
ATOM     18  C   UNL     1      -2.336   0.174   0.025  0.00  0.00    +0.115 C 
BRANCH  18  20
ATOM     19  C   UNL     1       0.072   0.905  -0.070  0.00  0.00    +0.103 A 
ATOM     20  C   UNL     1      -0.857  -0.115  -0.004  0.00  0.00    +0.003 A 
ATOM     21  C   UNL     1      -0.376  -1.413   0.031  0.00  0.00    +0.084 A 
ATOM     22  C   UNL     1       1.011  -1.598   0.009  0.00  0.00    +0.082 A 
ATOM     23  S   UNL     1       1.621   0.022  -0.068  0.00  0.00    -0.066 S 
BRANCH  22  24
ATOM     24  N   UNL     1       1.718  -2.779   0.039  0.00  0.00    -0.352 N 
ATOM     25  H   UNL     1       2.817  -2.762   0.015  0.00  0.00    +0.143 HD
ATOM     26  H   UNL     1       1.183  -3.739   0.087  0.00  0.00    +0.143 HD
ENDBRANCH  22  24
BRANCH  19  27
ATOM     27  C   UNL     1      -0.150   2.304  -0.119  0.00  0.00    +0.346 C 
ATOM     28  O   UNL     1      -1.287   2.740  -0.117  0.00  0.00    -0.244 OA
BRANCH  27  29
ATOM     29  O   UNL     1       0.898   3.152  -0.175  0.00  0.00    -0.461 OA
BRANCH  29  31
ATOM     30  C   UNL     1       1.904   5.347  -0.283  0.00  0.00    +0.048 C 
ATOM     31  C   UNL     1       0.600   4.549  -0.224  0.00  0.00    +0.229 C 
ENDBRANCH  29  31
ENDBRANCH  27  29
ENDBRANCH  19  27
BRANCH  21  32
ATOM     32  C   UNL     1      -1.270  -2.530   0.093  0.00  0.00    +0.102 C 
ATOM     33  N   UNL     1      -1.979  -3.417   0.143  0.00  0.00    -0.191 NA
ENDBRANCH  21  32
ENDBRANCH  18  20
ENDBRANCH   1  18
TORSDOF 8
