REMARK  Name = ZINC13568681
REMARK  6 active torsions:
REMARK  status: ('A' for Active; 'I' for Inactive)
REMARK    1  A    between atoms: C_1  and  C_2
REMARK    2  A    between atoms: C_2  and  C_3
REMARK    3  A    between atoms: C_2  and  O_4
REMARK    4  A    between atoms: O_4  and  C_5
REMARK    5  A    between atoms: C_8  and  C_11
REMARK    6  A    between atoms: C_16  and  C_21
REMARK                            x       y       z     vdW  Elec       q    Type
REMARK                         _______ _______ _______ _____ _____    ______ ____
ROOT
ATOM      1  C   UNL     1      -0.101  -1.409   5.943  0.00  0.00    +0.136 C 
ATOM      2  C   UNL     1       1.127  -0.913   6.668  0.00  0.00    +0.036 C 
ATOM      3  C   UNL     1       2.281  -1.584   6.816  0.00  0.00    +0.017 C 
ATOM      4  C   UNL     1       3.451  -0.951   7.551  0.00  0.00    +0.060 C 
ATOM      5  C   UNL     1       2.936  -0.034   8.658  0.00  0.00    +0.039 C 
ATOM      6  C   UNL     1       2.072   1.049   8.002  0.00  0.00    +0.088 C 
ATOM      7  C   UNL     1       0.979   0.381   7.222  0.00  0.00    +0.163 C 
ATOM      8  O   UNL     1      -0.070   0.972   7.060  0.00  0.00    -0.292 OA
ATOM      9  N   UNL     1       2.518  -2.835   6.345  0.00  0.00    -0.316 N 
ATOM     10  C   UNL     1       2.211  -3.270   5.061  0.00  0.00    +0.052 A 
ATOM     11  C   UNL     1       3.187  -3.648   4.155  0.00  0.00    +0.025 A 
ATOM     12  C   UNL     1       2.810  -4.116   2.908  0.00  0.00    +0.002 A 
ATOM     13  C   UNL     1       1.471  -4.207   2.572  0.00  0.00    +0.002 A 
ATOM     14  C   UNL     1       0.495  -3.813   3.471  0.00  0.00    +0.025 A 
ATOM     15  C   UNL     1       0.870  -3.325   4.712  0.00  0.00    +0.049 A 
ATOM     16  N   UNL     1      -0.066  -2.817   5.607  0.00  0.00    -0.331 N 
ATOM     17  H   UNL     1       2.931  -3.471   6.949  0.00  0.00    +0.152 HD
ATOM     18  H   UNL     1      -0.710  -3.420   6.013  0.00  0.00    +0.147 HD
ENDROOT
BRANCH   1  22
ATOM     19  C   UNL     1      -0.541   0.833   2.332  0.00  0.00    +0.121 A 
ATOM     20  C   UNL     1      -1.509   0.915   3.323  0.00  0.00    +0.046 A 
ATOM     21  C   UNL     1      -1.367   0.184   4.487  0.00  0.00    +0.009 A 
ATOM     22  C   UNL     1      -0.256  -0.618   4.670  0.00  0.00    -0.023 A 
ATOM     23  C   UNL     1       0.712  -0.697   3.686  0.00  0.00    +0.009 A 
ATOM     24  C   UNL     1       0.572   0.027   2.518  0.00  0.00    +0.046 A 
BRANCH  19  25
ATOM     25  O   UNL     1      -0.682   1.547   1.184  0.00  0.00    -0.489 OA
BRANCH  25  27
ATOM     26  C   UNL     1      -3.034   1.676   0.644  0.00  0.00    +0.051 C 
ATOM     27  C   UNL     1      -1.793   2.442   1.107  0.00  0.00    +0.167 C 
ATOM     28  C   UNL     1      -1.480   3.559   0.110  0.00  0.00    +0.051 C 
ENDBRANCH  25  27
ENDBRANCH  19  25
ENDBRANCH   1  22
BRANCH   5  29
ATOM     29  C   UNL     1       4.098   0.605   9.375  0.00  0.00    -0.006 A 
ATOM     30  C   UNL     1       4.424   0.550  10.690  0.00  0.00    +0.011 A 
ATOM     31  C   UNL     1       5.550   1.221  11.129  0.00  0.00    +0.008 A 
ATOM     32  C   UNL     1       6.295   1.913  10.232  0.00  0.00    +0.045 A 
ATOM     33  S   UNL     1       5.407   1.622   8.711  0.00  0.00    -0.101 S 
ENDBRANCH   5  29
TORSDOF 4
