REMARK  Name = ZINC20678415
REMARK  4 active torsions:
REMARK  status: ('A' for Active; 'I' for Inactive)
REMARK    1  A    between atoms: C_1  and  O_2
REMARK    2  A    between atoms: O_2  and  C_3
REMARK    3  A    between atoms: C_6  and  C_9
REMARK    4  A    between atoms: C_19  and  N_26
REMARK                            x       y       z     vdW  Elec       q    Type
REMARK                         _______ _______ _______ _____ _____    ______ ____
ROOT
ATOM      1  C   UNL     1      -4.798  -2.485   0.104  0.00  0.00    +0.105 C 
ATOM      2  C   UNL     1      -5.412  -2.438  -1.280  0.00  0.00    +0.029 C 
ATOM      3  C   UNL     1      -4.567  -2.933  -2.459  0.00  0.00    +0.033 C 
ATOM      4  C   UNL     1      -5.116  -2.081  -3.606  0.00  0.00    -0.030 C 
ATOM      5  C   UNL     1      -5.616  -0.946  -3.128  0.00  0.00    -0.023 C 
ATOM      6  C   UNL     1      -5.415  -0.924  -1.658  0.00  0.00    +0.051 C 
ATOM      7  C   UNL     1      -6.357  -0.257  -0.734  0.00  0.00    +0.014 A 
ATOM      8  C   UNL     1      -7.111   0.830  -1.127  0.00  0.00    +0.132 A 
ATOM      9  C   UNL     1      -7.974   1.444  -0.239  0.00  0.00    +0.036 A 
ATOM     10  C   UNL     1      -8.079   0.965   1.054  0.00  0.00    +0.042 A 
ATOM     11  C   UNL     1      -7.333  -0.123   1.454  0.00  0.00    +0.145 A 
ATOM     12  C   UNL     1      -6.462  -0.759   0.564  0.00  0.00    +0.069 A 
ATOM     13  N   UNL     1      -5.768  -1.877   1.029  0.00  0.00    -0.334 N 
ATOM     14  F   UNL     1      -7.445  -0.580   2.721  0.00  0.00    -0.204 F 
ATOM     15  H   UNL     1      -5.917  -2.306   2.031  0.00  0.00    +0.147 HD
ENDROOT
BRANCH   1  19
ATOM     16  C   UNL     1      -1.149  -0.262   0.153  0.00  0.00    +0.120 A 
ATOM     17  C   UNL     1      -2.336   0.343   0.541  0.00  0.00    +0.046 A 
ATOM     18  C   UNL     1      -3.515  -0.377   0.519  0.00  0.00    +0.009 A 
ATOM     19  C   UNL     1      -3.511  -1.701   0.121  0.00  0.00    -0.027 A 
ATOM     20  C   UNL     1      -2.328  -2.308  -0.260  0.00  0.00    +0.009 A 
ATOM     21  C   UNL     1      -1.147  -1.591  -0.245  0.00  0.00    +0.046 A 
BRANCH  16  23
ATOM     22  C   UNL     1      -0.064   1.808   0.590  0.00  0.00    +0.277 C 
ATOM     23  O   UNL     1       0.012   0.445   0.169  0.00  0.00    -0.495 OA
ENDBRANCH  16  23
ENDBRANCH   1  19
BRANCH   8  24
ATOM     24  N   UNL     1      -6.996   1.342  -2.511  0.00  0.00    +0.057 N 
ATOM     25  O   UNL     1      -5.899   1.589  -2.979  0.00  0.00    -0.126 OA
ATOM     26  O   UNL     1      -7.997   1.517  -3.181  0.00  0.00    -0.126 OA
ENDBRANCH   8  24
TORSDOF 3
