REMARK  Name = ZINC11620742
REMARK  6 active torsions:
REMARK  status: ('A' for Active; 'I' for Inactive)
REMARK    1  A    between atoms: C_3  and  N_9
REMARK    2  A    between atoms: C_6  and  C_7
REMARK    3  A    between atoms: C_10  and  C_12
REMARK    4  A    between atoms: C_12  and  N_13
REMARK    5  A    between atoms: N_13  and  C_14
REMARK    6  A    between atoms: C_19  and  N_20
REMARK                            x       y       z     vdW  Elec       q    Type
REMARK                         _______ _______ _______ _____ _____    ______ ____
ROOT
ATOM      1  N   UNL     1       2.522   1.776  -0.550  0.00  0.00    -0.334 N 
ATOM      2  H   UNL     1       2.308   0.835  -0.650  0.00  0.00    +0.147 HD
ENDROOT
BRANCH   1   3
ATOM      3  C   UNL     1       3.850   2.176  -0.358  0.00  0.00    +0.050 A 
ATOM      4  C   UNL     1       4.154   3.519  -0.197  0.00  0.00    +0.044 A 
ATOM      5  C   UNL     1       5.467   3.913  -0.008  0.00  0.00    +0.043 A 
ATOM      6  C   UNL     1       6.479   2.969   0.021  0.00  0.00    +0.022 A 
ATOM      7  C   UNL     1       6.182   1.628  -0.139  0.00  0.00    +0.026 A 
ATOM      8  C   UNL     1       4.869   1.225  -0.324  0.00  0.00    +0.051 A 
ATOM      9 CL   UNL     1       5.847   5.595   0.194  0.00  0.00    -0.083 Cl
BRANCH   8  10
ATOM     10  N   UNL     1       4.566  -0.134  -0.481  0.00  0.00    -0.328 N 
ATOM     11  C   UNL     1       5.801  -0.960  -0.461  0.00  0.00    +0.105 C 
ATOM     12  C   UNL     1       5.275  -2.376  -0.115  0.00  0.00    +0.020 C 
ATOM     13  C   UNL     1       4.146  -2.086   0.901  0.00  0.00    +0.020 C 
ATOM     14  C   UNL     1       3.735  -0.625   0.640  0.00  0.00    +0.105 C 
ENDBRANCH   8  10
ENDBRANCH   1   3
BRANCH   1  15
ATOM     15  C   UNL     1       1.454   2.778  -0.599  0.00  0.00    +0.198 C 
BRANCH  15  17
ATOM     16  N   UNL     1      -1.001   2.820  -0.896  0.00  0.00    -0.284 N 
ATOM     17  C   UNL     1       0.130   2.091  -0.812  0.00  0.00    +0.234 C 
ATOM     18  O   UNL     1       0.082   0.884  -0.914  0.00  0.00    -0.274 OA
ATOM     19  H   UNL     1      -0.974   3.777  -0.742  0.00  0.00    +0.155 HD
BRANCH  16  22
ATOM     20  C   UNL     1      -4.594   2.071  -0.973  0.00  0.00    +0.020 A 
ATOM     21  C   UNL     1      -3.399   2.683  -0.670  0.00  0.00    +0.024 A 
ATOM     22  C   UNL     1      -2.211   2.197  -1.206  0.00  0.00    +0.034 A 
ATOM     23  C   UNL     1      -2.227   1.094  -2.054  0.00  0.00    +0.024 A 
ATOM     24  C   UNL     1      -3.418   0.473  -2.357  0.00  0.00    +0.020 A 
ATOM     25  C   UNL     1      -4.613   0.959  -1.820  0.00  0.00    +0.052 A 
BRANCH  25  26
ATOM     26  C   UNL     1      -5.855   0.319  -2.136  0.00  0.00    +0.099 C 
ATOM     27  N   UNL     1      -6.839  -0.188  -2.388  0.00  0.00    -0.191 NA
ENDBRANCH  25  26
ENDBRANCH  16  22
ENDBRANCH  15  17
ENDBRANCH   1  15
TORSDOF 6
