REMARK  Name = ZINC01228699
REMARK  3 active torsions:
REMARK  status: ('A' for Active; 'I' for Inactive)
REMARK    1  A    between atoms: C_3  and  N_19
REMARK    2  A    between atoms: C_6  and  C_7
REMARK    3  A    between atoms: C_12  and  C_15
REMARK                            x       y       z     vdW  Elec       q    Type
REMARK                         _______ _______ _______ _____ _____    ______ ____
ROOT
ATOM      1  C   UNL     1      -0.687   1.555   1.254  0.00  0.00    +0.052 C 
ATOM      2  N   UNL     1      -1.905   1.924   1.403  0.00  0.00    -0.227 NA
ATOM      3  C   UNL     1      -2.829   1.989   0.407  0.00  0.00    +0.182 C 
ATOM      4  N   UNL     1      -3.941   2.658   0.566  0.00  0.00    -0.276 NA
ATOM      5  S   UNL     1      -2.487   1.145  -1.110  0.00  0.00    -0.079 S 
ATOM      6  C   UNL     1      -0.729   1.581  -1.250  0.00  0.00    +0.111 C 
ATOM      7  C   UNL     1      -0.013   1.086   0.008  0.00  0.00    +0.075 C 
ATOM      8  H   UNL     1      -4.115   3.117   1.403  0.00  0.00    +0.189 HD
ENDROOT
BRANCH   1  14
ATOM      9  C   UNL     1       1.492   1.210   2.403  0.00  0.00    +0.012 A 
ATOM     10  C   UNL     1       2.271   1.259   3.539  0.00  0.00    +0.033 A 
ATOM     11  C   UNL     1       1.726   1.683   4.739  0.00  0.00    +0.126 A 
ATOM     12  C   UNL     1       0.397   2.065   4.807  0.00  0.00    +0.033 A 
ATOM     13  C   UNL     1      -0.394   2.026   3.679  0.00  0.00    +0.012 A 
ATOM     14  C   UNL     1       0.150   1.600   2.462  0.00  0.00    -0.004 A 
BRANCH  11  15
ATOM     15  N   UNL     1       2.568   1.726   5.956  0.00  0.00    +0.056 N 
ATOM     16  O   UNL     1       2.091   2.098   7.013  0.00  0.00    -0.126 OA
ATOM     17  O   UNL     1       3.737   1.391   5.899  0.00  0.00    -0.126 OA
ENDBRANCH  11  15
ENDBRANCH   1  14
BRANCH   6  18
ATOM     18  C   UNL     1      -0.127   0.907  -2.485  0.00  0.00    +0.203 C 
ATOM     19 CL   UNL     1      -0.323  -0.880  -2.350  0.00  0.00    -0.082 Cl
ATOM     20 CL   UNL     1      -0.975   1.495  -3.963  0.00  0.00    -0.082 Cl
ATOM     21 CL   UNL     1       1.626   1.313  -2.597  0.00  0.00    -0.082 Cl
ENDBRANCH   6  18
TORSDOF 3
