REMARK  Name = ZINC20901814
REMARK  7 active torsions:
REMARK  status: ('A' for Active; 'I' for Inactive)
REMARK    1  A    between atoms: C_1  and  C_2
REMARK    2  A    between atoms: C_2  and  C_3
REMARK    3  A    between atoms: C_2  and  C_4
REMARK    4  A    between atoms: C_4  and  C_6
REMARK    5  A    between atoms: C_4  and  N_17
REMARK    6  A    between atoms: C_11  and  C_14
REMARK    7  A    between atoms: C_18  and  C_20
REMARK                            x       y       z     vdW  Elec       q    Type
REMARK                         _______ _______ _______ _____ _____    ______ ____
ROOT
ATOM      1  C   UNL     1      -1.504  -0.581   0.073  0.00  0.00    +0.162 C 
ENDROOT
BRANCH   1   2
ATOM      2  C   UNL     1      -1.493  -2.073   0.279  0.00  0.00    +0.236 C 
ATOM      3  O   UNL     1      -0.894  -2.788  -0.496  0.00  0.00    -0.274 OA
ATOM      4  N   UNL     1      -2.150  -2.614   1.324  0.00  0.00    -0.300 N 
ATOM      5  C   UNL     1      -2.788  -1.756   2.332  0.00  0.00    +0.108 C 
ATOM      6  C   UNL     1      -2.281  -2.164   3.719  0.00  0.00    +0.032 C 
ATOM      7  C   UNL     1      -2.521  -3.661   3.926  0.00  0.00    +0.078 C 
ATOM      8  C   UNL     1      -1.741  -4.454   2.874  0.00  0.00    +0.032 C 
ATOM      9  C   UNL     1      -2.247  -4.072   1.474  0.00  0.00    +0.108 C 
BRANCH   7  10
ATOM     10  C   UNL     1      -2.054  -4.059   5.302  0.00  0.00    +0.214 C 
ATOM     11  O   UNL     1      -1.577  -3.228   6.045  0.00  0.00    -0.276 OA
ATOM     12  N   UNL     1      -2.167  -5.340   5.708  0.00  0.00    -0.329 N 
ATOM     13  H   UNL     1      -2.549  -6.005   5.114  0.00  0.00    +0.145 HD
ATOM     14  H   UNL     1      -1.867  -5.596   6.594  0.00  0.00    +0.145 HD
ENDBRANCH   7  10
ENDBRANCH   1   2
BRANCH   1  15
ATOM     15  N   UNL     1      -1.579  -0.286  -1.360  0.00  0.00    -0.303 N 
ATOM     16  C   UNL     1      -2.095   0.886  -1.780  0.00  0.00    +0.220 C 
ATOM     17  O   UNL     1      -2.497   1.697  -0.973  0.00  0.00    -0.275 OA
ATOM     18  H   UNL     1      -1.258  -0.934  -2.006  0.00  0.00    +0.149 HD
BRANCH  16  19
ATOM     19  C   UNL     1      -2.173   1.190  -3.255  0.00  0.00    +0.048 C 
ATOM     20  C   UNL     1      -3.038   0.135  -3.947  0.00  0.00    +0.019 C 
ATOM     21  C   UNL     1      -3.118   0.443  -5.444  0.00  0.00    -0.009 C 
ATOM     22  C   UNL     1      -3.738   1.826  -5.648  0.00  0.00    +0.007 C 
ATOM     23  C   UNL     1      -2.873   2.881  -4.955  0.00  0.00    -0.009 C 
ATOM     24  C   UNL     1      -2.794   2.573  -3.459  0.00  0.00    +0.019 C 
ATOM     25  C   UNL     1      -1.465   2.860  -5.555  0.00  0.00    +0.007 C 
ATOM     26  C   UNL     1      -0.845   1.476  -5.351  0.00  0.00    -0.009 C 
ATOM     27  C   UNL     1      -1.710   0.422  -6.044  0.00  0.00    +0.007 C 
ATOM     28  C   UNL     1      -0.766   1.169  -3.854  0.00  0.00    +0.019 C 
ENDBRANCH  16  19
ENDBRANCH   1  15
BRANCH   1  30
ATOM     29  C   UNL     1      -0.280   1.548   0.538  0.00  0.00    +0.009 C 
ATOM     30  C   UNL     1      -0.222   0.023   0.651  0.00  0.00    +0.012 C 
ATOM     31  C   UNL     1      -0.090  -0.374   2.123  0.00  0.00    +0.009 C 
ENDBRANCH   1  30
TORSDOF 5
