REMARK  Name = ZINC17305523
REMARK  4 active torsions:
REMARK  status: ('A' for Active; 'I' for Inactive)
REMARK    1  A    between atoms: C_4  and  C_7
REMARK    2  A    between atoms: N_9  and  C_10
REMARK    3  A    between atoms: C_10  and  C_11
REMARK    4  A    between atoms: N_13  and  C_14
REMARK                            x       y       z     vdW  Elec       q    Type
REMARK                         _______ _______ _______ _____ _____    ______ ____
ROOT
ATOM      1  C   UNL     1       3.704  -3.755  -3.943  0.00  0.00    +0.231 C 
ATOM      2  O   UNL     1       3.196  -4.374  -3.032  0.00  0.00    -0.274 OA
ATOM      3  N   UNL     1       4.287  -4.416  -4.963  0.00  0.00    -0.308 N 
ATOM      4  H   UNL     1       4.694  -3.921  -5.692  0.00  0.00    +0.149 HD
ENDROOT
BRANCH   3   5
ATOM      5  C   UNL     1       4.307  -5.881  -4.971  0.00  0.00    +0.035 C 
ATOM      6  C   UNL     1       5.047  -6.387  -3.731  0.00  0.00    +0.029 C 
ATOM      7  C   UNL     1       5.068  -7.917  -3.740  0.00  0.00    -0.008 C 
ATOM      8  C   UNL     1       5.784  -8.411  -4.999  0.00  0.00    +0.007 C 
ATOM      9  C   UNL     1       5.044  -7.904  -6.238  0.00  0.00    -0.008 C 
ATOM     10  C   UNL     1       5.023  -6.374  -6.230  0.00  0.00    +0.029 C 
ATOM     11  C   UNL     1       3.608  -8.433  -6.227  0.00  0.00    +0.007 C 
ATOM     12  C   UNL     1       2.892  -7.940  -4.968  0.00  0.00    -0.008 C 
ATOM     13  C   UNL     1       3.632  -8.447  -3.729  0.00  0.00    +0.007 C 
ATOM     14  C   UNL     1       2.872  -6.410  -4.960  0.00  0.00    +0.029 C 
ENDBRANCH   3   5
BRANCH   1  15
ATOM     15  C   UNL     1       3.684  -2.248  -3.935  0.00  0.00    +0.200 C 
BRANCH  15  18
ATOM     16  C   UNL     1       2.859  -0.454  -2.507  0.00  0.00    +0.217 C 
ATOM     17  O   UNL     1       3.301   0.345  -3.306  0.00  0.00    -0.276 OA
ATOM     18  N   UNL     1       2.998  -1.776  -2.729  0.00  0.00    -0.306 N 
ATOM     19  H   UNL     1       2.644  -2.415  -2.091  0.00  0.00    +0.149 HD
BRANCH  16  23
ATOM     20  C   UNL     1      -0.019   1.526   0.010  0.00  0.00    +0.000 C 
ATOM     21  C   UNL     1       1.417   2.055  -0.000  0.00  0.00    +0.001 C 
ATOM     22  C   UNL     1       2.133   1.562  -1.259  0.00  0.00    +0.013 C 
ATOM     23  C   UNL     1       2.154   0.032  -1.268  0.00  0.00    +0.075 C 
ATOM     24  C   UNL     1       0.718  -0.497  -1.257  0.00  0.00    +0.013 C 
ATOM     25  C   UNL     1       0.002  -0.004   0.002  0.00  0.00    +0.001 C 
ENDBRANCH  16  23
ENDBRANCH  15  18
ENDBRANCH   1  15
TORSDOF 4
