REMARK  Name = ZINC43285952
REMARK  9 active torsions:
REMARK  status: ('A' for Active; 'I' for Inactive)
REMARK    1  A    between atoms: C_1  and  C_2
REMARK    2  A    between atoms: C_2  and  C_3
REMARK    3  A    between atoms: C_3  and  C_5
REMARK    4  A    between atoms: C_3  and  N_22
REMARK    5  A    between atoms: C_5  and  C_7
REMARK    6  A    between atoms: C_5  and  N_13
REMARK    7  A    between atoms: C_16  and  N_19
REMARK    8  A    between atoms: N_19  and  C_20
REMARK    9  A    between atoms: N_19  and  C_21
REMARK                            x       y       z     vdW  Elec       q    Type
REMARK                         _______ _______ _______ _____ _____    ______ ____
ROOT
ATOM      1  C   UNL     1       0.638  -2.036   1.174  0.00  0.00    +0.079 C 
ENDROOT
BRANCH   1   2
ATOM      2  C   UNL     1       1.286  -2.645   2.391  0.00  0.00    +0.006 A 
ATOM      3  C   UNL     1       2.521  -3.189   2.518  0.00  0.00    +0.028 A 
ATOM      4  C   UNL     1       2.907  -3.694   3.746  0.00  0.00    +0.025 A 
ATOM      5  C   UNL     1       2.039  -3.630   4.786  0.00  0.00    +0.060 A 
ATOM      6  S   UNL     1       0.628  -2.830   4.040  0.00  0.00    -0.099 S 
ATOM      7 BR   UNL     1       4.620  -4.463   3.972  0.00  0.00    -0.050 Br
ENDBRANCH   1   2
BRANCH   1   8
ATOM      8  N   UNL     1      -0.777  -2.428   1.124  0.00  0.00    -0.297 NA
ATOM      9  C   UNL     1      -1.435  -1.874  -0.066  0.00  0.00    +0.083 C 
ATOM     10  C   UNL     1      -2.933  -2.179  -0.011  0.00  0.00    +0.000 C 
ATOM     11  C   UNL     1      -3.139  -3.695   0.049  0.00  0.00    -0.067 C 
ATOM     12  C   UNL     1      -2.403  -4.254   1.270  0.00  0.00    +0.000 C 
ATOM     13  C   UNL     1      -0.920  -3.889   1.178  0.00  0.00    +0.083 C 
BRANCH  11  14
ATOM     14  N   UNL     1      -4.573  -3.993   0.161  0.00  0.00    +0.378 N 
ATOM     15  C   UNL     1      -5.278  -3.450  -1.007  0.00  0.00    -0.096 C 
ATOM     16  C   UNL     1      -4.768  -5.447   0.218  0.00  0.00    -0.096 C 
ATOM     17  H   UNL     1      -4.939  -3.571   1.001  0.00  0.00    -0.082 HD
ENDBRANCH  11  14
ENDBRANCH   1   8
BRANCH   1  18
ATOM     18  C   UNL     1       0.742  -0.511   1.250  0.00  0.00    -0.053 C 
BRANCH  18  19
ATOM     19  N   UNL     1       0.122  -0.040   2.496  0.00  0.00    +0.381 N 
ATOM     20  H   UNL     1       0.191   0.965   2.547  0.00  0.00    -0.090 HD
ATOM     21  H   UNL     1      -0.849  -0.312   2.513  0.00  0.00    -0.090 HD
ATOM     22  H   UNL     1       0.600  -0.450   3.285  0.00  0.00    -0.090 HD
ENDBRANCH  18  19
BRANCH  18  24
ATOM     23  C   UNL     1       2.316   1.426   1.153  0.00  0.00    +0.002 C 
ATOM     24  C   UNL     1       2.215  -0.099   1.225  0.00  0.00    -0.018 C 
ENDBRANCH  18  24
ENDBRANCH   1  18
TORSDOF 6
