REMARK  Name = ZINC65525690
REMARK  8 active torsions:
REMARK  status: ('A' for Active; 'I' for Inactive)
REMARK    1  A    between atoms: C_1  and  C_2
REMARK    2  A    between atoms: C_2  and  C_3
REMARK    3  A    between atoms: C_5  and  C_29
REMARK    4  A    between atoms: C_7  and  C_9
REMARK    5  A    between atoms: C_9  and  N_10
REMARK    6  A    between atoms: C_13  and  C_16
REMARK    7  A    between atoms: C_20  and  C_22
REMARK    8  A    between atoms: C_26  and  O_28
REMARK                            x       y       z     vdW  Elec       q    Type
REMARK                         _______ _______ _______ _____ _____    ______ ____
ROOT
ATOM      1  N   UNL     1       1.416  -0.525   5.569  0.00  0.00    -0.296 NA
ATOM      2  C   UNL     1       0.396   0.554   5.560  0.00  0.00    +0.085 C 
ATOM      3  C   UNL     1       0.687   1.329   6.869  0.00  0.00    +0.025 C 
ATOM      4  C   UNL     1       1.070   0.204   7.858  0.00  0.00    +0.034 C 
ATOM      5  C   UNL     1       1.515  -0.976   6.974  0.00  0.00    +0.093 C 
ENDROOT
BRANCH   4   6
ATOM      6  C   UNL     1       2.203   0.651   8.746  0.00  0.00    -0.040 A 
ATOM      7  C   UNL     1       3.414   1.055   8.201  0.00  0.00    +0.023 A 
ATOM      8  C   UNL     1       4.434   1.460   9.042  0.00  0.00    +0.111 A 
ATOM      9  N   UNL     1       4.271   1.467  10.349  0.00  0.00    -0.255 NA
ATOM     10  C   UNL     1       3.129   1.089  10.909  0.00  0.00    +0.071 A 
ATOM     11  C   UNL     1       2.057   0.674  10.122  0.00  0.00    +0.032 A 
BRANCH  10  12
ATOM     12  C   UNL     1       2.991   1.114  12.386  0.00  0.00    +0.004 A 
ATOM     13  C   UNL     1       1.797   0.713  12.983  0.00  0.00    +0.010 A 
ATOM     14  C   UNL     1       1.671   0.737  14.357  0.00  0.00    +0.004 A 
ATOM     15  C   UNL     1       2.726   1.158  15.145  0.00  0.00    +0.045 A 
ATOM     16  C   UNL     1       3.918   1.559  14.559  0.00  0.00    +0.117 A 
ATOM     17  C   UNL     1       4.055   1.533  13.180  0.00  0.00    +0.055 A 
BRANCH  16  18
ATOM     18  O   UNL     1       4.953   1.973  15.337  0.00  0.00    -0.507 OA
ATOM     19  H   UNL     1       5.552   1.263  15.604  0.00  0.00    +0.292 HD
ENDBRANCH  16  18
ENDBRANCH  10  12
ENDBRANCH   4   6
BRANCH   1  20
ATOM     20  C   UNL     1       1.020  -1.632   4.688  0.00  0.00    +0.139 C 
BRANCH  20  25
ATOM     21  C   UNL     1       0.731  -0.503   1.223  0.00  0.00    +0.084 A 
ATOM     22  N   UNL     1       2.013  -0.735   1.302  0.00  0.00    -0.347 N 
ATOM     23  C   UNL     1       2.309  -1.168   2.536  0.00  0.00    +0.035 A 
ATOM     24  H   UNL     1      -0.773  -0.695   2.645  0.00  0.00    +0.167 HD
ATOM     25  C   UNL     1       1.167  -1.206   3.249  0.00  0.00    +0.050 A 
ATOM     26  N   UNL     1       0.167  -0.780   2.418  0.00  0.00    -0.346 N 
ATOM     27  C   UNL     1       3.679  -1.545   3.037  0.00  0.00    +0.065 C 
ATOM     28  H   UNL     1       2.651  -0.612   0.582  0.00  0.00    +0.167 HD
BRANCH  21  30
ATOM     29  C   UNL     1      -0.019   1.526   0.010  0.00  0.00    +0.012 C 
ATOM     30  C   UNL     1       0.002  -0.004   0.002  0.00  0.00    +0.069 C 
ENDBRANCH  21  30
ENDBRANCH  20  25
ENDBRANCH   1  20
TORSDOF 6
