REMARK  Name = ZINC56923444
REMARK  7 active torsions:
REMARK  status: ('A' for Active; 'I' for Inactive)
REMARK    1  A    between atoms: C_4  and  C_7
REMARK    2  A    between atoms: C_7  and  O_8
REMARK    3  A    between atoms: O_8  and  C_9
REMARK    4  A    between atoms: C_9  and  C_10
REMARK    5  A    between atoms: N_19  and  C_20
REMARK    6  A    between atoms: C_20  and  C_21
REMARK    7  A    between atoms: C_20  and  C_27
REMARK                            x       y       z     vdW  Elec       q    Type
REMARK                         _______ _______ _______ _____ _____    ______ ____
ROOT
ATOM      1  C   UNL     1       5.740  -1.845   2.871  0.00  0.00    +0.032 C 
ATOM      2  C   UNL     1       7.131  -2.474   2.977  0.00  0.00    +0.009 C 
ATOM      3  C   UNL     1       7.507  -2.640   4.451  0.00  0.00    +0.019 C 
ATOM      4  C   UNL     1       6.500  -3.575   5.129  0.00  0.00    +0.109 C 
ATOM      5  N   UNL     1       5.145  -3.052   4.907  0.00  0.00    -0.285 N 
ATOM      6  C   UNL     1       4.713  -2.770   3.531  0.00  0.00    +0.115 C 
ATOM      7  C   UNL     1       4.314  -2.834   5.945  0.00  0.00    +0.303 C 
ATOM      8  O   UNL     1       3.232  -2.312   5.759  0.00  0.00    -0.253 OA
ATOM      9  N   UNL     1       4.683  -3.194   7.190  0.00  0.00    -0.288 N 
ATOM     10  H   UNL     1       5.574  -3.544   7.350  0.00  0.00    +0.151 HD
ENDROOT
BRANCH   1  11
ATOM     11  C   UNL     1       5.379  -1.650   1.397  0.00  0.00    +0.165 C 
BRANCH  11  12
ATOM     12  O   UNL     1       4.132  -0.958   1.300  0.00  0.00    -0.375 OA
BRANCH  12  13
ATOM     13  C   UNL     1       3.701  -0.724  -0.042  0.00  0.00    +0.195 C 
BRANCH  13  17
ATOM     14  C   UNL     1      -0.034   1.349   0.002  0.00  0.00    +0.000 A 
ATOM     15  C   UNL     1       1.151   2.061  -0.008  0.00  0.00    +0.000 A 
ATOM     16  C   UNL     1       2.360   1.390  -0.022  0.00  0.00    +0.006 A 
ATOM     17  C   UNL     1       2.383   0.008  -0.026  0.00  0.00    -0.022 A 
ATOM     18  C   UNL     1       1.198  -0.703  -0.015  0.00  0.00    +0.006 A 
ATOM     19  C   UNL     1      -0.011  -0.033  -0.002  0.00  0.00    +0.000 A 
ENDBRANCH  13  17
ENDBRANCH  12  13
ENDBRANCH  11  12
ENDBRANCH   1  11
BRANCH   9  20
ATOM     20  C   UNL     1       3.739  -3.059   8.302  0.00  0.00    +0.135 C 
BRANCH  20  21
ATOM     21  C   UNL     1       2.859  -4.280   8.365  0.00  0.00    -0.023 A 
ATOM     22  C   UNL     1       3.399  -5.534   8.146  0.00  0.00    +0.006 A 
ATOM     23  C   UNL     1       2.591  -6.654   8.204  0.00  0.00    +0.000 A 
ATOM     24  C   UNL     1       1.244  -6.521   8.482  0.00  0.00    +0.000 A 
ATOM     25  C   UNL     1       0.704  -5.268   8.702  0.00  0.00    +0.000 A 
ATOM     26  C   UNL     1       1.512  -4.148   8.648  0.00  0.00    +0.006 A 
ENDBRANCH  20  21
BRANCH  20  27
ATOM     27  C   UNL     1       4.501  -2.922   9.595  0.00  0.00    -0.023 A 
ATOM     28  C   UNL     1       5.637  -3.680   9.811  0.00  0.00    +0.006 A 
ATOM     29  C   UNL     1       6.336  -3.554  10.997  0.00  0.00    +0.000 A 
ATOM     30  C   UNL     1       5.900  -2.670  11.966  0.00  0.00    +0.000 A 
ATOM     31  C   UNL     1       4.766  -1.911  11.749  0.00  0.00    +0.000 A 
ATOM     32  C   UNL     1       4.069  -2.034  10.562  0.00  0.00    +0.006 A 
ENDBRANCH  20  27
ENDBRANCH   9  20
TORSDOF 7
