REMARK  Name = ZINC50362443
REMARK  5 active torsions:
REMARK  status: ('A' for Active; 'I' for Inactive)
REMARK    1  A    between atoms: C_5  and  C_6
REMARK    2  A    between atoms: C_6  and  C_8
REMARK    3  A    between atoms: C_6  and  N_10
REMARK    4  A    between atoms: C_8  and  N_9
REMARK    5  A    between atoms: C_14  and  C_16
REMARK                            x       y       z     vdW  Elec       q    Type
REMARK                         _______ _______ _______ _____ _____    ______ ____
ROOT
ATOM      1  C   UNL     1      -1.121  -0.651   0.175  0.00  0.00    -0.018 C 
ENDROOT
BRANCH   1   6
ATOM      2  C   UNL     1      -0.792  -0.154   2.644  0.00  0.00    +0.059 A 
ATOM      3  C   UNL     1      -1.028  -0.846   3.855  0.00  0.00    +0.070 A 
ATOM      4  C   UNL     1      -1.551  -2.042   3.525  0.00  0.00    +0.184 A 
ATOM      5  O   UNL     1      -1.643  -2.110   2.186  0.00  0.00    -0.454 OA
ATOM      6  C   UNL     1      -1.185  -0.967   1.647  0.00  0.00    +0.092 A 
ATOM      7 BR   UNL     1      -2.067  -3.397   4.739  0.00  0.00    -0.007 Br
ATOM      8 BR   UNL     1      -0.675  -0.213   5.602  0.00  0.00    -0.046 Br
ENDBRANCH   1   6
BRANCH   1   9
ATOM      9  N   UNL     1      -0.570  -1.804  -0.550  0.00  0.00    +0.387 N 
ATOM     10  C   UNL     1      -1.551  -2.910  -0.545  0.00  0.00    -0.078 C 
ATOM     11  C   UNL     1      -2.307  -2.773  -1.890  0.00  0.00    -0.020 C 
ATOM     12  C   UNL     1      -1.169  -2.327  -2.845  0.00  0.00    -0.017 C 
ATOM     13  C   UNL     1      -0.296  -1.425  -1.948  0.00  0.00    -0.065 C 
ATOM     14  H   UNL     1       0.284  -2.108  -0.107  0.00  0.00    -0.080 HD
BRANCH  13  15
ATOM     15  C   UNL     1       1.184  -1.650  -2.268  0.00  0.00    -0.025 C 
ATOM     16  C   UNL     1       2.057  -0.702  -1.421  0.00  0.00    +0.002 C 
ATOM     17  C   UNL     1       3.211  -0.298  -2.372  0.00  0.00    +0.000 C 
ATOM     18  C   UNL     1       2.496  -0.161  -3.739  0.00  0.00    +0.000 C 
ATOM     19  C   UNL     1       1.463  -1.306  -3.741  0.00  0.00    +0.002 C 
ENDBRANCH  13  15
ENDBRANCH   1   9
BRANCH   1  20
ATOM     20  C   UNL     1      -2.528  -0.348  -0.343  0.00  0.00    -0.094 C 
BRANCH  20  21
ATOM     21  N   UNL     1      -2.449   0.111  -1.736  0.00  0.00    +0.377 N 
ATOM     22  H   UNL     1      -3.326   0.533  -2.002  0.00  0.00    -0.090 HD
ATOM     23  H   UNL     1      -1.708   0.790  -1.825  0.00  0.00    -0.090 HD
ATOM     24  H   UNL     1      -2.258  -0.676  -2.338  0.00  0.00    -0.090 HD
ENDBRANCH  20  21
ENDBRANCH   1  20
TORSDOF 5
