REMARK  Name = ZINC36203145
REMARK  17 active torsions:
REMARK  status: ('A' for Active; 'I' for Inactive)
REMARK    1  A    between atoms: C_1  and  C_2
REMARK    2  A    between atoms: C_7  and  C_8
REMARK    3  A    between atoms: C_8  and  N_9
REMARK    4  A    between atoms: N_9  and  C_10
REMARK    5  A    between atoms: N_9  and  C_14
REMARK    6  A    between atoms: C_10  and  C_11
REMARK    7  A    between atoms: C_11  and  O_12
REMARK    8  A    between atoms: O_12  and  C_13
REMARK    9  A    between atoms: C_14  and  C_15
REMARK   10  A    between atoms: C_18  and  C_20
REMARK   11  A    between atoms: C_20  and  C_21
REMARK   12  A    between atoms: C_20  and  C_29
REMARK   13  A    between atoms: C_20  and  O_37
REMARK   14  A    between atoms: C_24  and  O_27
REMARK   15  A    between atoms: O_27  and  C_28
REMARK   16  A    between atoms: C_32  and  O_35
REMARK   17  A    between atoms: O_35  and  C_36
REMARK                            x       y       z     vdW  Elec       q    Type
REMARK                         _______ _______ _______ _____ _____    ______ ____
ROOT
ATOM      1  C   UNL     1      -3.928   1.442   5.232  0.00  0.00    +0.089 A 
ATOM      2  C   UNL     1      -4.955   1.044   6.004  0.00  0.00    +0.043 A 
ATOM      3  C   UNL     1      -6.040   1.905   5.718  0.00  0.00    +0.048 A 
ATOM      4  C   UNL     1      -5.610   2.777   4.788  0.00  0.00    +0.146 A 
ATOM      5  O   UNL     1      -4.328   2.495   4.502  0.00  0.00    -0.463 OA
ENDROOT
BRANCH   1   6
ATOM      6  C   UNL     1      -2.558   0.815   5.198  0.00  0.00    -0.003 C 
BRANCH   6   7
ATOM      7  N   UNL     1      -2.568  -0.336   4.285  0.00  0.00    +0.389 N 
ATOM      8  H   UNL     1      -3.303  -0.973   4.555  0.00  0.00    -0.081 HD
BRANCH   7   9
ATOM      9  C   UNL     1      -2.805   0.130   2.912  0.00  0.00    -0.042 C 
BRANCH   9  16
ATOM     10  C   UNL     1      -5.303  -1.316   2.775  0.00  0.00    +0.044 C 
ATOM     11  C   UNL     1      -4.133  -1.749   1.929  0.00  0.00    -0.049 A 
ATOM     12  C   UNL     1      -4.258  -2.836   1.082  0.00  0.00    +0.003 A 
ATOM     13  C   UNL     1      -3.185  -3.233   0.306  0.00  0.00    +0.000 A 
ATOM     14  C   UNL     1      -1.988  -2.544   0.376  0.00  0.00    +0.000 A 
ATOM     15  C   UNL     1      -1.865  -1.458   1.221  0.00  0.00    +0.002 A 
ATOM     16  C   UNL     1      -2.939  -1.058   1.994  0.00  0.00    -0.061 A 
ENDBRANCH   9  16
ENDBRANCH   7   9
BRANCH   7  17
ATOM     17  C   UNL     1      -1.273  -1.026   4.351  0.00  0.00    -0.049 C 
BRANCH  17  18
ATOM     18  C   UNL     1      -1.097  -1.648   5.738  0.00  0.00    +0.141 C 
BRANCH  18  19
ATOM     19  O   UNL     1      -2.105  -2.640   5.946  0.00  0.00    -0.385 OA
ATOM     20  C   UNL     1      -2.030  -3.286   7.218  0.00  0.00    +0.193 C 
ENDBRANCH  18  19
ENDBRANCH  17  18
ENDBRANCH   7  17
ENDBRANCH   6   7
ENDBRANCH   1   6
BRANCH   4  21
ATOM     21  C   UNL     1      -6.426   3.886   4.176  0.00  0.00    +0.174 C 
BRANCH  21  22
ATOM     22  C   UNL     1      -5.519   5.028   3.797  0.00  0.00    -0.004 A 
ATOM     23  C   UNL     1      -5.643   6.248   4.434  0.00  0.00    +0.011 A 
ATOM     24  C   UNL     1      -4.812   7.297   4.089  0.00  0.00    +0.046 A 
ATOM     25  C   UNL     1      -3.853   7.124   3.102  0.00  0.00    +0.120 A 
ATOM     26  C   UNL     1      -3.730   5.898   2.464  0.00  0.00    +0.046 A 
ATOM     27  C   UNL     1      -4.560   4.851   2.817  0.00  0.00    +0.011 A 
BRANCH  25  28
ATOM     28  O   UNL     1      -3.035   8.154   2.760  0.00  0.00    -0.495 OA
ATOM     29  C   UNL     1      -2.071   7.904   1.735  0.00  0.00    +0.277 C 
ENDBRANCH  25  28
ENDBRANCH  21  22
BRANCH  21  30
ATOM     30  C   UNL     1      -7.128   3.372   2.945  0.00  0.00    -0.004 A 
ATOM     31  C   UNL     1      -6.459   2.539   2.066  0.00  0.00    +0.011 A 
ATOM     32  C   UNL     1      -7.099   2.067   0.937  0.00  0.00    +0.046 A 
ATOM     33  C   UNL     1      -8.414   2.429   0.684  0.00  0.00    +0.120 A 
ATOM     34  C   UNL     1      -9.083   3.264   1.567  0.00  0.00    +0.046 A 
ATOM     35  C   UNL     1      -8.440   3.729   2.698  0.00  0.00    +0.011 A 
BRANCH  33  36
ATOM     36  O   UNL     1      -9.046   1.966  -0.426  0.00  0.00    -0.495 OA
ATOM     37  C   UNL     1     -10.400   2.380  -0.622  0.00  0.00    +0.277 C 
ENDBRANCH  33  36
ENDBRANCH  21  30
BRANCH  21  38
ATOM     38  O   UNL     1      -7.396   4.341   5.121  0.00  0.00    -0.372 OA
ATOM     39  H   UNL     1      -7.015   4.686   5.940  0.00  0.00    +0.212 HD
ENDBRANCH  21  38
ENDBRANCH   4  21
TORSDOF 13
