REMARK  Name = ZINC32685789
REMARK  9 active torsions:
REMARK  status: ('A' for Active; 'I' for Inactive)
REMARK    1  A    between atoms: C_1  and  C_2
REMARK    2  A    between atoms: C_2  and  C_3
REMARK    3  A    between atoms: C_7  and  C_32
REMARK    4  A    between atoms: C_8  and  N_9
REMARK    5  A    between atoms: C_10  and  C_12
REMARK    6  A    between atoms: C_12  and  S_13
REMARK    7  A    between atoms: S_13  and  C_14
REMARK    8  A    between atoms: C_17  and  C_25
REMARK    9  A    between atoms: N_18  and  C_19
REMARK                            x       y       z     vdW  Elec       q    Type
REMARK                         _______ _______ _______ _____ _____    ______ ____
ROOT
ATOM      1  C   UNL     1       1.654   4.917   1.498  0.00  0.00    +0.197 A 
ATOM      2  N   UNL     1       1.249   5.969   0.823  0.00  0.00    -0.122 NA
ATOM      3  N   UNL     1       1.907   6.070  -0.276  0.00  0.00    -0.128 NA
ATOM      4  C   UNL     1       2.779   5.093  -0.369  0.00  0.00    +0.170 A 
ATOM      5  N   UNL     1       2.640   4.319   0.762  0.00  0.00    -0.270 N 
ENDROOT
BRANCH   4   6
ATOM      6  C   UNL     1       3.726   4.864  -1.480  0.00  0.00    +0.034 A 
ATOM      7  C   UNL     1       3.849   3.594  -2.046  0.00  0.00    +0.013 A 
ATOM      8  C   UNL     1       4.735   3.387  -3.083  0.00  0.00    +0.001 A 
ATOM      9  C   UNL     1       5.501   4.435  -3.563  0.00  0.00    +0.001 A 
ATOM     10  C   UNL     1       5.385   5.696  -3.007  0.00  0.00    +0.016 A 
ATOM     11  C   UNL     1       4.498   5.918  -1.972  0.00  0.00    +0.029 A 
ATOM     12 BR   UNL     1       4.335   7.645  -1.218  0.00  0.00    -0.050 Br
ENDBRANCH   4   6
BRANCH   5  13
ATOM     13  C   UNL     1       3.362   3.164   1.092  0.00  0.00    +0.051 A 
ATOM     14  C   UNL     1       2.717   1.936   1.162  0.00  0.00    +0.026 A 
ATOM     15  C   UNL     1       3.432   0.800   1.487  0.00  0.00    +0.002 A 
ATOM     16  C   UNL     1       4.788   0.883   1.743  0.00  0.00    +0.000 A 
ATOM     17  C   UNL     1       5.433   2.105   1.674  0.00  0.00    +0.002 A 
ATOM     18  C   UNL     1       4.724   3.245   1.350  0.00  0.00    +0.026 A 
ENDBRANCH   5  13
BRANCH   1  19
ATOM     19  S   UNL     1       1.043   4.378   3.060  0.00  0.00    -0.076 S 
BRANCH  19  20
ATOM     20  C   UNL     1      -0.206   5.652   3.366  0.00  0.00    +0.173 C 
BRANCH  20  22
ATOM     21  N   UNL     1      -1.851   6.213   5.126  0.00  0.00    -0.284 N 
ATOM     22  C   UNL     1      -0.880   5.388   4.688  0.00  0.00    +0.228 C 
ATOM     23  O   UNL     1      -0.549   4.431   5.357  0.00  0.00    -0.275 OA
ATOM     24  H   UNL     1      -2.215   7.026   4.480  0.00  0.00    +0.155 HD
BRANCH  21  30
ATOM     25  C   UNL     1      -2.380   7.082   7.316  0.00  0.00    -0.026 A 
ATOM     26  C   UNL     1      -2.918   6.905   8.576  0.00  0.00    +0.005 A 
ATOM     27  C   UNL     1      -3.473   5.688   8.927  0.00  0.00    +0.001 A 
ATOM     28  C   UNL     1      -3.491   4.645   8.019  0.00  0.00    +0.005 A 
ATOM     29  C   UNL     1      -2.960   4.818   6.756  0.00  0.00    -0.029 A 
ATOM     30  C   UNL     1      -2.396   6.037   6.402  0.00  0.00    +0.040 A 
ATOM     31  C   UNL     1      -2.986   3.683   5.765  0.00  0.00    +0.045 C 
BRANCH  25  33
ATOM     32  C   UNL     1      -2.820   9.256   6.207  0.00  0.00    +0.009 C 
ATOM     33  C   UNL     1      -1.774   8.408   6.935  0.00  0.00    +0.033 C 
ENDBRANCH  25  33
ENDBRANCH  21  30
ENDBRANCH  20  22
ENDBRANCH  19  20
ENDBRANCH   1  19
TORSDOF 7
