REMARK  Name = ZINC21250591
REMARK  11 active torsions:
REMARK  status: ('A' for Active; 'I' for Inactive)
REMARK    1  A    between atoms: C_1  and  C_2
REMARK    2  A    between atoms: C_2  and  C_3
REMARK    3  A    between atoms: C_2  and  O_4
REMARK    4  A    between atoms: O_4  and  C_5
REMARK    5  A    between atoms: C_8  and  C_11
REMARK    6  A    between atoms: C_16  and  C_26
REMARK    7  A    between atoms: C_29  and  O_34
REMARK    8  A    between atoms: C_30  and  O_32
REMARK    9  A    between atoms: O_32  and  C_33
REMARK   10  A    between atoms: O_34  and  C_35
REMARK   11  A    between atoms: C_35  and  C_37
REMARK                            x       y       z     vdW  Elec       q    Type
REMARK                         _______ _______ _______ _____ _____    ______ ____
ROOT
ATOM      1  C   UNL     1      -1.125   1.713  -0.578  0.00  0.00    +0.032 C 
ATOM      2  C   UNL     1      -2.548   1.166  -0.487  0.00  0.00    +0.059 C 
ATOM      3  C   UNL     1      -3.205   1.642   0.798  0.00  0.00    +0.017 C 
ATOM      4  C   UNL     1      -2.470   1.838   1.907  0.00  0.00    +0.036 C 
ATOM      5  C   UNL     1      -2.993   2.302   3.245  0.00  0.00    +0.136 C 
ATOM      6  N   UNL     1      -4.436   2.290   3.364  0.00  0.00    -0.331 N 
ATOM      7  C   UNL     1      -5.228   3.126   2.579  0.00  0.00    +0.049 A 
ATOM      8  C   UNL     1      -5.994   4.135   3.140  0.00  0.00    +0.025 A 
ATOM      9  C   UNL     1      -6.727   4.970   2.315  0.00  0.00    +0.002 A 
ATOM     10  C   UNL     1      -6.696   4.803   0.942  0.00  0.00    +0.002 A 
ATOM     11  C   UNL     1      -5.946   3.784   0.380  0.00  0.00    +0.025 A 
ATOM     12  C   UNL     1      -5.229   2.935   1.205  0.00  0.00    +0.052 A 
ATOM     13  N   UNL     1      -4.547   1.825   0.717  0.00  0.00    -0.316 N 
ATOM     14  C   UNL     1      -1.069   1.621   1.884  0.00  0.00    +0.163 C 
ATOM     15  O   UNL     1      -0.429   1.783   2.905  0.00  0.00    -0.292 OA
ATOM     16  C   UNL     1      -0.348   1.198   0.640  0.00  0.00    +0.088 C 
ATOM     17  H   UNL     1      -4.922   1.614   4.082  0.00  0.00    +0.147 HD
ATOM     18  H   UNL     1      -5.179   1.063   0.237  0.00  0.00    +0.152 HD
ENDROOT
BRANCH   1  22
ATOM     19  C   UNL     1       0.734   0.336  -4.171  0.00  0.00    +0.121 A 
ATOM     20  C   UNL     1       0.610   1.696  -3.930  0.00  0.00    +0.046 A 
ATOM     21  C   UNL     1       0.009   2.139  -2.768  0.00  0.00    +0.007 A 
ATOM     22  C   UNL     1      -0.469   1.228  -1.845  0.00  0.00    -0.043 A 
ATOM     23  C   UNL     1      -0.342  -0.129  -2.080  0.00  0.00    +0.007 A 
ATOM     24  C   UNL     1       0.254  -0.577  -3.243  0.00  0.00    +0.046 A 
BRANCH  19  25
ATOM     25  O   UNL     1       1.325  -0.103  -5.314  0.00  0.00    -0.489 OA
BRANCH  25  27
ATOM     26  C   UNL     1       2.872   0.328  -7.120  0.00  0.00    +0.051 C 
ATOM     27  C   UNL     1       1.749   0.892  -6.247  0.00  0.00    +0.167 C 
ATOM     28  C   UNL     1       0.569   1.297  -7.133  0.00  0.00    +0.051 C 
ENDBRANCH  25  27
ENDBRANCH  19  25
ENDBRANCH   1  22
BRANCH   5  29
ATOM     29  C   UNL     1      -2.506   3.708   3.486  0.00  0.00    -0.019 A 
ATOM     30  C   UNL     1      -2.895   4.728   2.638  0.00  0.00    +0.009 A 
ATOM     31  C   UNL     1      -2.455   6.019   2.858  0.00  0.00    +0.050 A 
ATOM     32  C   UNL     1      -1.614   6.293   3.925  0.00  0.00    +0.173 A 
ATOM     33  C   UNL     1      -1.218   5.265   4.775  0.00  0.00    +0.163 A 
ATOM     34  C   UNL     1      -1.667   3.973   4.552  0.00  0.00    +0.055 A 
BRANCH  33  35
ATOM     35  O   UNL     1      -0.392   5.528   5.823  0.00  0.00    -0.491 OA
ATOM     36  C   UNL     1      -0.027   4.424   6.654  0.00  0.00    +0.277 C 
ENDBRANCH  33  35
BRANCH  32  37
ATOM     37  O   UNL     1      -1.176   7.562   4.139  0.00  0.00    -0.422 OA
BRANCH  37  38
ATOM     38  C   UNL     1       0.051   7.868   3.689  0.00  0.00    +0.309 C 
ATOM     39  O   UNL     1       0.675   7.061   3.041  0.00  0.00    -0.251 OA
ATOM     40  C   UNL     1       0.650   9.217   3.990  0.00  0.00    +0.136 C 
ENDBRANCH  37  38
ENDBRANCH  32  37
ENDBRANCH   5  29
TORSDOF 7
