REMARK  Name = ZINC46085405
REMARK  4 active torsions:
REMARK  status: ('A' for Active; 'I' for Inactive)
REMARK    1  A    between atoms: C_1  and  C_2
REMARK    2  A    between atoms: C_4  and  C_31
REMARK    3  A    between atoms: N_9  and  N_10
REMARK    4  A    between atoms: C_19  and  C_21
REMARK                            x       y       z     vdW  Elec       q    Type
REMARK                         _______ _______ _______ _____ _____    ______ ____
ROOT
ATOM      1  N   UNL     1      -0.309  -3.911   4.382  0.00  0.00    -0.204 N 
ATOM      2  C   UNL     1      -0.109  -3.707   5.739  0.00  0.00    +0.236 A 
ATOM      3  N   UNL     1       0.049  -2.472   6.175  0.00  0.00    -0.213 NA
ATOM      4  C   UNL     1       0.244  -2.232   7.478  0.00  0.00    +0.077 A 
ATOM      5  C   UNL     1       0.415  -0.931   7.976  0.00  0.00    +0.029 A 
ATOM      6  C   UNL     1       0.610  -0.742   9.311  0.00  0.00    +0.017 A 
ATOM      7  C   UNL     1       0.644  -1.821  10.192  0.00  0.00    +0.019 A 
ATOM      8  C   UNL     1       0.482  -3.099   9.741  0.00  0.00    +0.027 A 
ATOM      9  C   UNL     1       0.279  -3.328   8.376  0.00  0.00    +0.028 A 
ATOM     10  C   UNL     1       0.103  -4.633   7.850  0.00  0.00    +0.084 A 
ATOM     11  N   UNL     1      -0.089  -4.763   6.545  0.00  0.00    -0.213 NA
ATOM     12 BR   UNL     1       0.919  -1.511  12.037  0.00  0.00    -0.050 Br
ATOM     13  H   UNL     1      -0.431  -4.810   4.039  0.00  0.00    +0.177 HD
ENDROOT
BRANCH   1  22
ATOM     14  C   UNL     1      -0.440   1.513   0.036  0.00  0.00    +0.044 C 
ATOM     15  C   UNL     1      -0.566   0.011   0.039  0.00  0.00    -0.049 A 
ATOM     16  C   UNL     1      -0.784  -0.667  -1.149  0.00  0.00    +0.008 A 
ATOM     17  C   UNL     1      -0.901  -2.042  -1.162  0.00  0.00    -0.028 A 
ATOM     18  C   UNL     1      -0.802  -2.762   0.024  0.00  0.00    +0.046 A 
ATOM     19  C   UNL     1      -0.581  -2.072   1.223  0.00  0.00    +0.029 A 
ATOM     20  C   UNL     1      -0.458  -0.687   1.225  0.00  0.00    +0.015 A 
ATOM     21  C   UNL     1      -0.523  -3.098   2.290  0.00  0.00    +0.153 C 
ATOM     22  N   UNL     1      -0.334  -2.905   3.575  0.00  0.00    -0.174 NA
ATOM     23  C   UNL     1      -0.726  -4.382   1.596  0.00  0.00    +0.269 C 
ATOM     24  O   UNL     1      -0.749  -5.482   2.117  0.00  0.00    -0.268 OA
ATOM     25  N   UNL     1      -0.881  -4.125   0.286  0.00  0.00    -0.279 N 
ATOM     26  C   UNL     1      -1.138  -2.764  -2.463  0.00  0.00    +0.046 C 
ATOM     27  H   UNL     1      -1.031  -4.804  -0.390  0.00  0.00    +0.155 HD
ENDBRANCH   1  22
BRANCH  10  28
ATOM     28  C   UNL     1       0.129  -5.819   8.736  0.00  0.00    +0.001 A 
ATOM     29  C   UNL     1      -0.563  -5.803   9.948  0.00  0.00    +0.010 A 
ATOM     30  C   UNL     1      -0.535  -6.911  10.769  0.00  0.00    +0.001 A 
ATOM     31  C   UNL     1       0.177  -8.036  10.394  0.00  0.00    +0.000 A 
ATOM     32  C   UNL     1       0.865  -8.058   9.194  0.00  0.00    +0.001 A 
ATOM     33  C   UNL     1       0.840  -6.959   8.361  0.00  0.00    +0.010 A 
ENDBRANCH  10  28
TORSDOF 2
