REMARK  Name = ZINC07334979
REMARK  6 active torsions:
REMARK  status: ('A' for Active; 'I' for Inactive)
REMARK    1  A    between atoms: C_1  and  C_2
REMARK    2  A    between atoms: C_2  and  C_3
REMARK    3  A    between atoms: C_2  and  C_4
REMARK    4  A    between atoms: C_7  and  N_10
REMARK    5  A    between atoms: C_14  and  C_15
REMARK    6  A    between atoms: C_18  and  C_21
REMARK                            x       y       z     vdW  Elec       q    Type
REMARK                         _______ _______ _______ _____ _____    ______ ____
ROOT
ATOM      1  N   UNL     1       4.526   4.754   0.219  0.00  0.00    -0.217 N 
ATOM      2  C   UNL     1       3.699   3.691   0.157  0.00  0.00    +0.271 C 
ATOM      3  O   UNL     1       4.019   2.517   0.127  0.00  0.00    -0.268 OA
ATOM      4  C   UNL     1       2.330   4.237   0.130  0.00  0.00    +0.097 C 
ATOM      5  C   UNL     1       1.167   3.543   0.066  0.00  0.00    +0.036 C 
ATOM      6  N   UNL     1       2.489   5.625   0.191  0.00  0.00    -0.292 N 
ATOM      7  C   UNL     1       3.807   5.887   0.242  0.00  0.00    +0.148 C 
ATOM      8  S   UNL     1       4.479   7.459   0.326  0.00  0.00    -0.018 S 
ATOM      9  H   UNL     1       1.775   6.282   0.195  0.00  0.00    +0.154 HD
ENDROOT
BRANCH   1  13
ATOM     10  C   UNL     1       8.687   4.553   0.342  0.00  0.00    -0.045 A 
ATOM     11  C   UNL     1       8.011   4.171  -0.803  0.00  0.00    +0.006 A 
ATOM     12  C   UNL     1       6.632   4.237  -0.846  0.00  0.00    +0.024 A 
ATOM     13  C   UNL     1       5.925   4.687   0.260  0.00  0.00    +0.043 A 
ATOM     14  C   UNL     1       6.606   5.075   1.406  0.00  0.00    +0.024 A 
ATOM     15  C   UNL     1       7.985   5.002   1.445  0.00  0.00    +0.006 A 
BRANCH  10  17
ATOM     16  C   UNL     1      10.762   5.877   0.645  0.00  0.00    +0.012 C 
ATOM     17  C   UNL     1      10.192   4.481   0.386  0.00  0.00    +0.013 C 
ATOM     18  C   UNL     1      10.624   3.536   1.509  0.00  0.00    +0.012 C 
ENDBRANCH  10  17
ENDBRANCH   1  13
BRANCH   5  19
ATOM     19  C   UNL     1       1.189   2.094  -0.171  0.00  0.00    -0.023 A 
ATOM     20  C   UNL     1       0.322   1.254   0.541  0.00  0.00    +0.009 A 
ATOM     21  C   UNL     1       0.343  -0.094   0.319  0.00  0.00    +0.019 A 
ATOM     22  C   UNL     1       1.229  -0.635  -0.618  0.00  0.00    +0.052 A 
ATOM     23  C   UNL     1       2.094   0.202  -1.329  0.00  0.00    +0.019 A 
ATOM     24  C   UNL     1       2.075   1.550  -1.109  0.00  0.00    +0.009 A 
BRANCH  22  25
ATOM     25  C   UNL     1       1.250  -2.048  -0.850  0.00  0.00    +0.099 C 
ATOM     26  N   UNL     1       1.266  -3.169  -1.033  0.00  0.00    -0.191 NA
ENDBRANCH  22  25
ENDBRANCH   5  19
TORSDOF 4
