REMARK  Name = ZINC66199747
REMARK  14 active torsions:
REMARK  status: ('A' for Active; 'I' for Inactive)
REMARK    1  A    between atoms: C_1  and  C_2
REMARK    2  A    between atoms: C_2  and  C_4
REMARK    3  A    between atoms: C_2  and  C_14
REMARK    4  A    between atoms: C_7  and  C_10
REMARK    5  A    between atoms: C_10  and  C_11
REMARK    6  A    between atoms: C_11  and  C_12
REMARK    7  A    between atoms: C_11  and  C_13
REMARK    8  A    between atoms: N_16  and  C_17
REMARK    9  A    between atoms: C_17  and  N_19
REMARK   10  A    between atoms: N_19  and  C_20
REMARK   11  A    between atoms: C_25  and  C_26
REMARK   12  A    between atoms: N_28  and  C_29
REMARK   13  A    between atoms: C_29  and  C_30
REMARK   14  A    between atoms: C_29  and  C_31
REMARK                            x       y       z     vdW  Elec       q    Type
REMARK                         _______ _______ _______ _____ _____    ______ ____
ROOT
ATOM      1  C   UNL     1       2.629  -0.391   2.605  0.00  0.00    +0.141 C 
ATOM      2  S   UNL     1       1.728  -1.113   3.869  0.00  0.00    -0.018 S 
ENDROOT
BRANCH   1   5
ATOM      3  C   UNL     1       0.662  -0.063   1.391  0.00  0.00    +0.226 C 
ATOM      4  O   UNL     1       0.024  -0.574   2.286  0.00  0.00    -0.275 OA
ATOM      5  N   UNL     1       2.000   0.057   1.500  0.00  0.00    -0.267 N 
ATOM      6  H   UNL     1       2.510   0.466   0.784  0.00  0.00    +0.157 HD
BRANCH   3   8
ATOM      7  C   UNL     1       0.209   1.939  -0.001  0.00  0.00    +0.022 C 
ATOM      8  C   UNL     1      -0.041   0.437   0.155  0.00  0.00    +0.102 C 
BRANCH   8   9
ATOM      9  C   UNL     1      -1.521   0.185   0.283  0.00  0.00    -0.036 A 
ATOM     10  C   UNL     1      -2.233   0.757   1.321  0.00  0.00    +0.004 A 
ATOM     11  C   UNL     1      -3.590   0.526   1.438  0.00  0.00    +0.004 A 
ATOM     12  C   UNL     1      -4.237  -0.276   0.517  0.00  0.00    -0.047 A 
ATOM     13  C   UNL     1      -3.526  -0.847  -0.522  0.00  0.00    +0.004 A 
ATOM     14  C   UNL     1      -2.169  -0.613  -0.641  0.00  0.00    +0.004 A 
BRANCH  12  15
ATOM     15  C   UNL     1      -5.717  -0.529   0.645  0.00  0.00    +0.038 C 
BRANCH  15  16
ATOM     16  C   UNL     1      -6.486   0.542  -0.131  0.00  0.00    -0.013 C 
ATOM     17  C   UNL     1      -7.981   0.216  -0.105  0.00  0.00    +0.007 C 
ATOM     18  C   UNL     1      -6.251   1.908   0.517  0.00  0.00    +0.007 C 
ENDBRANCH  15  16
ENDBRANCH  12  15
ENDBRANCH   8   9
ENDBRANCH   3   8
ENDBRANCH   1   5
BRANCH   1  19
ATOM     19  N   UNL     1       3.967  -0.271   2.714  0.00  0.00    -0.296 N 
ATOM     20  H   UNL     1       4.485   0.074   1.970  0.00  0.00    +0.154 HD
BRANCH  19  21
ATOM     21  C   UNL     1       4.605  -0.642   3.894  0.00  0.00    +0.045 A 
ATOM     22  C   UNL     1       4.306  -1.857   4.497  0.00  0.00    +0.024 A 
ATOM     23  C   UNL     1       4.940  -2.223   5.667  0.00  0.00    +0.002 A 
ATOM     24  C   UNL     1       5.877  -1.384   6.249  0.00  0.00    +0.001 A 
ATOM     25  C   UNL     1       6.186  -0.175   5.666  0.00  0.00    +0.015 A 
ATOM     26  C   UNL     1       5.557   0.207   4.478  0.00  0.00    +0.058 A 
BRANCH  26  27
ATOM     27  C   UNL     1       5.887   1.498   3.845  0.00  0.00    +0.246 C 
ATOM     28  O   UNL     1       5.267   1.872   2.869  0.00  0.00    -0.270 OA
ATOM     29  N   UNL     1       6.877   2.262   4.349  0.00  0.00    -0.309 N 
ATOM     30  H   UNL     1       7.372   1.963   5.128  0.00  0.00    +0.149 HD
BRANCH  29  31
ATOM     31  C   UNL     1       7.205   3.543   3.720  0.00  0.00    +0.067 C 
ATOM     32  C   UNL     1       7.857   4.466   4.753  0.00  0.00    +0.027 C 
ATOM     33  C   UNL     1       8.175   3.309   2.561  0.00  0.00    +0.027 C 
ENDBRANCH  29  31
ENDBRANCH  26  27
ENDBRANCH  19  21
ENDBRANCH   1  19
TORSDOF 9
