REMARK  Name = ZINC58949375
REMARK  10 active torsions:
REMARK  status: ('A' for Active; 'I' for Inactive)
REMARK    1  A    between atoms: C_1  and  C_2
REMARK    2  A    between atoms: C_2  and  N_3
REMARK    3  A    between atoms: C_14  and  C_16
REMARK    4  A    between atoms: C_18  and  C_30
REMARK    5  A    between atoms: C_19  and  C_29
REMARK    6  A    between atoms: C_21  and  N_28
REMARK    7  A    between atoms: C_22  and  C_23
REMARK    8  A    between atoms: C_23  and  O_25
REMARK    9  A    between atoms: O_25  and  C_26
REMARK   10  A    between atoms: C_26  and  C_27
REMARK                            x       y       z     vdW  Elec       q    Type
REMARK                         _______ _______ _______ _____ _____    ______ ____
ROOT
ATOM      1  C   UNL     1      -0.968  -1.963   6.256  0.00  0.00    +0.099 C 
ATOM      2  C   UNL     1      -1.410  -0.653   6.847  0.00  0.00    +0.064 C 
ATOM      3  C   UNL     1      -2.678  -0.457   7.225  0.00  0.00    +0.113 C 
ATOM      4  O   UNL     1      -3.615  -1.410   7.098  0.00  0.00    -0.446 OA
ATOM      5  C   UNL     1      -3.247  -2.694   6.941  0.00  0.00    +0.195 C 
ATOM      6  C   UNL     1      -1.994  -3.026   6.540  0.00  0.00    +0.105 C 
ATOM      7  C   UNL     1      -3.067   0.876   7.812  0.00  0.00    +0.087 C 
ENDROOT
BRANCH   1  19
ATOM      8  N   UNL     1      -0.114  -1.451   0.696  0.00  0.00    -0.340 N 
ATOM      9  C   UNL     1       1.230  -1.762   0.599  0.00  0.00    +0.050 A 
ATOM     10  C   UNL     1       2.101  -1.827  -0.485  0.00  0.00    +0.026 A 
ATOM     11  C   UNL     1       3.421  -2.171  -0.290  0.00  0.00    +0.002 A 
ATOM     12  C   UNL     1       3.896  -2.455   0.982  0.00  0.00    +0.001 A 
ATOM     13  C   UNL     1       3.049  -2.396   2.068  0.00  0.00    +0.010 A 
ATOM     14  C   UNL     1       1.712  -2.050   1.884  0.00  0.00    +0.008 A 
ATOM     15  C   UNL     1       0.569  -1.897   2.803  0.00  0.00    +0.008 A 
ATOM     16  C   UNL     1      -0.528  -1.521   2.014  0.00  0.00    +0.050 A 
ATOM     17  C   UNL     1      -1.760  -1.298   2.622  0.00  0.00    +0.027 A 
ATOM     18  C   UNL     1      -1.892  -1.442   3.987  0.00  0.00    +0.006 A 
ATOM     19  C   UNL     1      -0.805  -1.810   4.765  0.00  0.00    -0.034 A 
ATOM     20  C   UNL     1       0.420  -2.045   4.180  0.00  0.00    +0.015 A 
BRANCH   8  22
ATOM     21  C   UNL     1      -0.932   0.423  -0.646  0.00  0.00    +0.027 C 
ATOM     22  C   UNL     1      -0.974  -1.092  -0.434  0.00  0.00    +0.119 C 
ENDBRANCH   8  22
ENDBRANCH   1  19
BRANCH   2  23
ATOM     23  C   UNL     1      -0.437   0.425   7.012  0.00  0.00    +0.242 C 
ATOM     24  O   UNL     1       0.389   0.367   7.904  0.00  0.00    -0.271 OA
ATOM     25  N   UNL     1      -0.454   1.482   6.177  0.00  0.00    -0.325 N 
ATOM     26  H   UNL     1      -1.113   1.528   5.466  0.00  0.00    +0.145 HD
ATOM     27  H   UNL     1       0.192   2.197   6.286  0.00  0.00    +0.145 HD
ENDBRANCH   2  23
BRANCH   5  28
ATOM     28  N   UNL     1      -4.155  -3.687   7.192  0.00  0.00    -0.329 N 
ATOM     29  H   UNL     1      -5.079  -3.462   7.383  0.00  0.00    +0.145 HD
ATOM     30  H   UNL     1      -3.875  -4.616   7.179  0.00  0.00    +0.145 HD
ENDBRANCH   5  28
BRANCH   6  31
ATOM     31  C   UNL     1      -1.653  -4.379   6.389  0.00  0.00    +0.341 C 
ATOM     32  O   UNL     1      -1.017  -4.947   7.260  0.00  0.00    -0.245 OA
BRANCH  31  33
ATOM     33  O   UNL     1      -2.029  -5.051   5.280  0.00  0.00    -0.462 OA
BRANCH  33  34
ATOM     34  C   UNL     1      -1.647  -6.425   5.193  0.00  0.00    +0.229 C 
ATOM     35  C   UNL     1      -2.158  -7.014   3.877  0.00  0.00    +0.048 C 
ENDBRANCH  33  34
ENDBRANCH  31  33
ENDBRANCH   6  31
TORSDOF 7
