REMARK  Name = ZINC52595497
REMARK  9 active torsions:
REMARK  status: ('A' for Active; 'I' for Inactive)
REMARK    1  A    between atoms: C_1  and  C_2
REMARK    2  A    between atoms: C_2  and  C_3
REMARK    3  A    between atoms: C_3  and  C_4
REMARK    4  A    between atoms: C_8  and  C_37
REMARK    5  A    between atoms: C_10  and  C_36
REMARK    6  A    between atoms: N_13  and  C_14
REMARK    7  A    between atoms: C_14  and  C_15
REMARK    8  A    between atoms: C_18  and  C_21
REMARK    9  A    between atoms: C_30  and  C_31
REMARK                            x       y       z     vdW  Elec       q    Type
REMARK                         _______ _______ _______ _____ _____    ______ ____
ROOT
ATOM      1  C   UNL     1      -0.041  -3.418   4.219  0.00  0.00    -0.030 A 
ATOM      2  C   UNL     1      -1.394  -3.275   3.967  0.00  0.00    +0.006 A 
ATOM      3  C   UNL     1      -2.275  -4.277   4.321  0.00  0.00    +0.009 A 
ATOM      4  C   UNL     1      -1.797  -5.437   4.933  0.00  0.00    -0.017 A 
ATOM      5  C   UNL     1      -0.431  -5.575   5.183  0.00  0.00    +0.009 A 
ATOM      6  C   UNL     1       0.439  -4.568   4.820  0.00  0.00    +0.006 A 
ENDROOT
BRANCH   4   7
ATOM      7  C   UNL     1      -2.735  -6.515   5.315  0.00  0.00    +0.004 A 
ATOM      8  C   UNL     1      -2.946  -6.854   6.674  0.00  0.00    +0.009 A 
ATOM      9  C   UNL     1      -2.274  -6.182   7.704  0.00  0.00    +0.010 A 
ATOM     10  C   UNL     1      -2.502  -6.535   9.001  0.00  0.00    +0.001 A 
ATOM     11  C   UNL     1      -3.394  -7.557   9.315  0.00  0.00    +0.002 A 
ATOM     12  C   UNL     1      -4.063  -8.230   8.338  0.00  0.00    +0.028 A 
ATOM     13  C   UNL     1      -3.854  -7.894   6.990  0.00  0.00    +0.072 A 
ATOM     14  N   UNL     1      -4.502  -8.542   6.014  0.00  0.00    -0.254 NA
ATOM     15  C   UNL     1      -4.326  -8.249   4.751  0.00  0.00    +0.123 A 
ATOM     16  C   UNL     1      -3.450  -7.231   4.346  0.00  0.00    +0.049 A 
BRANCH  16  17
ATOM     17  C   UNL     1      -3.279  -6.920   2.911  0.00  0.00    +0.209 A 
ATOM     18  N   UNL     1      -2.477  -5.991   2.385  0.00  0.00    -0.106 NA
ATOM     19  N   UNL     1      -2.619  -6.039   1.104  0.00  0.00    -0.021 NA
ATOM     20  N   UNL     1      -3.472  -6.955   0.804  0.00  0.00    -0.021 NA
ATOM     21  N   UNL     1      -3.891  -7.517   1.886  0.00  0.00    -0.106 NA
ENDBRANCH  16  17
ENDBRANCH   4   7
BRANCH   1  22
ATOM     22  C   UNL     1       0.914  -2.320   3.830  0.00  0.00    +0.143 C 
BRANCH  22  31
ATOM     23  C   UNL     1       0.763  -2.041   1.233  0.00  0.00    +0.160 C 
ATOM     24  N   UNL     1       1.598  -2.530   0.129  0.00  0.00    -0.323 N 
ATOM     25  C   UNL     1       2.640  -3.272   0.698  0.00  0.00    +0.070 A 
ATOM     26  C   UNL     1       3.702  -3.949   0.109  0.00  0.00    -0.025 A 
ATOM     27  C   UNL     1       4.602  -4.612   0.930  0.00  0.00    +0.026 A 
ATOM     28  C   UNL     1       4.417  -4.579   2.298  0.00  0.00    +0.015 A 
ATOM     29  N   UNL     1       3.401  -3.929   2.831  0.00  0.00    -0.346 N 
ATOM     30  C   UNL     1       2.515  -3.280   2.086  0.00  0.00    +0.122 A 
ATOM     31  N   UNL     1       1.387  -2.546   2.462  0.00  0.00    -0.292 N 
ATOM     32  C   UNL     1       5.392  -5.298   3.195  0.00  0.00    +0.063 C 
ATOM     33  C   UNL     1       3.870  -3.963  -1.389  0.00  0.00    +0.046 C 
ATOM     34  H   UNL     1       1.454  -2.370  -0.817  0.00  0.00    +0.148 HD
ATOM     35  H   UNL     1       3.299  -3.926   3.796  0.00  0.00    +0.167 HD
BRANCH  23  36
ATOM     36  C   UNL     1       0.742  -0.511   1.242  0.00  0.00    +0.042 C 
BRANCH  36  38
ATOM     37  C   UNL     1      -0.019   1.526   0.010  0.00  0.00    +0.004 C 
ATOM     38  C   UNL     1       0.002  -0.004   0.002  0.00  0.00    +0.000 C 
ENDBRANCH  36  38
ENDBRANCH  23  36
ENDBRANCH  22  31
ENDBRANCH   1  22
TORSDOF 6
