REMARK  Name = ZINC12833172
REMARK  14 active torsions:
REMARK  status: ('A' for Active; 'I' for Inactive)
REMARK    1  A    between atoms: C_1  and  C_2
REMARK    2  A    between atoms: C_6  and  C_15
REMARK    3  A    between atoms: C_13  and  C_14
REMARK    4  A    between atoms: C_15  and  N_74
REMARK    5  A    between atoms: C_16  and  C_17
REMARK    6  A    between atoms: C_16  and  N_74
REMARK    7  A    between atoms: C_17  and  C_18
REMARK    8  A    between atoms: C_21  and  O_26
REMARK    9  A    between atoms: C_22  and  O_24
REMARK   10  A    between atoms: O_24  and  C_25
REMARK   11  A    between atoms: O_26  and  C_27
REMARK   12  A    between atoms: C_28  and  C_29
REMARK   13  A    between atoms: C_28  and  N_74
REMARK   14  A    between atoms: N_33  and  C_34
REMARK                            x       y       z     vdW  Elec       q    Type
REMARK                         _______ _______ _______ _____ _____    ______ ____
ROOT
ATOM      1  N   UNL     1      -0.836   1.558  -0.989  0.00  0.00    +0.387 N 
ATOM      2  H   UNL     1      -1.849   1.400  -0.931  0.00  0.00    -0.081 HD
ENDROOT
BRANCH   1   3
ATOM      3  C   UNL     1      -0.278   0.709  -2.063  0.00  0.00    -0.037 C 
BRANCH   3   9
ATOM      4  C   UNL     1      -5.529  -4.203  -4.041  0.00  0.00    +0.044 C 
ATOM      5  C   UNL     1      -4.301  -3.841  -3.247  0.00  0.00    -0.047 A 
ATOM      6  C   UNL     1      -3.765  -2.589  -3.361  0.00  0.00    +0.013 A 
ATOM      7  C   UNL     1      -2.625  -2.253  -2.624  0.00  0.00    -0.001 A 
ATOM      8  C   UNL     1      -2.026  -0.921  -2.723  0.00  0.00    +0.017 A 
ATOM      9  C   UNL     1      -0.920  -0.652  -1.985  0.00  0.00    +0.001 A 
ATOM     10  C   UNL     1      -0.365  -1.645  -1.148  0.00  0.00    +0.251 A 
ATOM     11  O   UNL     1       0.632  -1.383  -0.497  0.00  0.00    -0.268 OA
ATOM     12  N   UNL     1      -0.911  -2.869  -1.048  0.00  0.00    -0.322 N 
ATOM     13  H   UNL     1      -0.507  -3.526  -0.460  0.00  0.00    +0.169 HD
ATOM     14  C   UNL     1      -2.036  -3.205  -1.771  0.00  0.00    +0.049 A 
ATOM     15  C   UNL     1      -2.598  -4.473  -1.672  0.00  0.00    +0.030 A 
ATOM     16  C   UNL     1      -3.722  -4.783  -2.407  0.00  0.00    -0.046 A 
ATOM     17  C   UNL     1      -4.330  -6.157  -2.297  0.00  0.00    +0.044 C 
ENDBRANCH   3   9
ENDBRANCH   1   3
BRANCH   1  18
ATOM     18  C   UNL     1      -0.220   1.202   0.307  0.00  0.00    -0.073 C 
BRANCH  18  19
ATOM     19  C   UNL     1      -0.968   1.931   1.425  0.00  0.00    +0.017 C 
BRANCH  19  20
ATOM     20  C   UNL     1      -0.366   1.562   2.756  0.00  0.00    -0.045 A 
ATOM     21  C   UNL     1      -0.856   0.476   3.458  0.00  0.00    +0.007 A 
ATOM     22  C   UNL     1      -0.303   0.130   4.677  0.00  0.00    +0.049 A 
ATOM     23  C   UNL     1       0.737   0.878   5.203  0.00  0.00    +0.161 A 
ATOM     24  C   UNL     1       1.227   1.974   4.500  0.00  0.00    +0.162 A 
ATOM     25  C   UNL     1       0.672   2.313   3.276  0.00  0.00    +0.053 A 
BRANCH  24  26
ATOM     26  O   UNL     1       2.248   2.712   5.012  0.00  0.00    -0.491 OA
ATOM     27  C   UNL     1       2.700   3.822   4.234  0.00  0.00    +0.277 C 
ENDBRANCH  24  26
BRANCH  23  28
ATOM     28  O   UNL     1       1.279   0.542   6.404  0.00  0.00    -0.491 OA
ATOM     29  C   UNL     1       0.725  -0.595   7.070  0.00  0.00    +0.277 C 
ENDBRANCH  23  28
ENDBRANCH  19  20
ENDBRANCH  18  19
ENDBRANCH   1  18
BRANCH   1  30
ATOM     30  C   UNL     1      -0.588   2.983  -1.292  0.00  0.00    +0.001 C 
BRANCH  30  31
ATOM     31  C   UNL     1      -1.491   3.402  -2.422  0.00  0.00    +0.135 A 
ATOM     32  N   UNL     1      -1.191   3.424  -3.698  0.00  0.00    -0.115 NA
ATOM     33  N   UNL     1      -2.225   3.838  -4.344  0.00  0.00    -0.023 NA
ATOM     34  N   UNL     1      -3.176   4.090  -3.513  0.00  0.00    -0.044 NA
ATOM     35  N   UNL     1      -2.762   3.834  -2.318  0.00  0.00    -0.228 N 
BRANCH  35  36
ATOM     36  C   UNL     1      -3.531   3.983  -1.080  0.00  0.00    +0.111 C 
ATOM     37  C   UNL     1      -4.815   3.130  -1.149  0.00  0.00    +0.027 C 
ATOM     38  C   UNL     1      -5.883   3.994  -0.431  0.00  0.00    +0.002 C 
ATOM     39  C   UNL     1      -5.524   5.430  -0.887  0.00  0.00    +0.002 C 
ATOM     40  C   UNL     1      -3.982   5.445  -0.913  0.00  0.00    +0.027 C 
ENDBRANCH  35  36
ENDBRANCH  30  31
ENDBRANCH   1  30
TORSDOF 10
