REMARK  Name = ZINC58846738
REMARK  7 active torsions:
REMARK  status: ('A' for Active; 'I' for Inactive)
REMARK    1  A    between atoms: C_1  and  C_2
REMARK    2  A    between atoms: C_4  and  C_37
REMARK    3  A    between atoms: C_6  and  N_8
REMARK    4  A    between atoms: N_8  and  S_9
REMARK    5  A    between atoms: S_9  and  C_12
REMARK    6  A    between atoms: C_25  and  C_28
REMARK    7  A    between atoms: C_33  and  C_34
REMARK                            x       y       z     vdW  Elec       q    Type
REMARK                         _______ _______ _______ _____ _____    ______ ____
ROOT
ATOM      1  C   UNL     1       0.728  -0.044   3.579  0.00  0.00    +0.109 A 
ATOM      2  C   UNL     1       0.931   1.192   2.991  0.00  0.00    +0.030 A 
ATOM      3  C   UNL     1       0.320   2.310   3.519  0.00  0.00    +0.025 A 
ATOM      4  C   UNL     1      -0.500   2.196   4.637  0.00  0.00    +0.031 A 
ATOM      5  C   UNL     1      -0.714   0.956   5.220  0.00  0.00    -0.018 A 
ATOM      6  C   UNL     1      -0.092  -0.161   4.682  0.00  0.00    +0.034 A 
ATOM      7  C   UNL     1      -1.617   0.788   6.395  0.00  0.00    +0.049 C 
ATOM      8  C   UNL     1      -0.850   0.600   7.678  0.00  0.00    -0.023 C 
ATOM      9  C   UNL     1      -1.472   1.188   8.669  0.00  0.00    -0.030 C 
ATOM     10  C   UNL     1      -2.741   1.857   8.188  0.00  0.00    +0.033 C 
ATOM     11  C   UNL     1      -2.541   1.975   6.660  0.00  0.00    +0.029 C 
ATOM     12  C   UNL     1      -1.906   3.319   6.369  0.00  0.00    +0.106 C 
ATOM     13  N   UNL     1      -1.093   3.334   5.170  0.00  0.00    -0.336 N 
ATOM     14  H   UNL     1      -0.937   4.184   4.729  0.00  0.00    +0.147 HD
ENDROOT
BRANCH  12  15
ATOM     15  C   UNL     1      -1.066   3.719   7.555  0.00  0.00    -0.013 A 
ATOM     16  C   UNL     1       0.248   3.310   7.641  0.00  0.00    +0.006 A 
ATOM     17  C   UNL     1       1.020   3.676   8.729  0.00  0.00    +0.000 A 
ATOM     18  C   UNL     1       0.481   4.454   9.738  0.00  0.00    +0.001 A 
ATOM     19  C   UNL     1      -0.832   4.869   9.666  0.00  0.00    +0.015 A 
ATOM     20  C   UNL     1      -1.616   4.509   8.567  0.00  0.00    +0.068 A 
BRANCH  20  21
ATOM     21  C   UNL     1      -3.020   4.955   8.480  0.00  0.00    +0.387 C 
ATOM     22  O   UNL     1      -3.461   5.750   9.298  0.00  0.00    -0.241 OA
ATOM     23  O   UNL     1      -3.742   4.531   7.588  0.00  0.00    -0.241 OA
ENDBRANCH  20  21
ENDBRANCH  12  15
BRANCH   1  24
ATOM     24  S   UNL     1       1.514  -1.473   2.912  0.00  0.00    +0.072 S 
ATOM     25  O   UNL     1       1.486  -2.464   3.930  0.00  0.00    -0.150 OA
ATOM     26  O   UNL     1       2.725  -1.030   2.315  0.00  0.00    -0.150 OA
BRANCH  24  27
ATOM     27  N   UNL     1       0.556  -2.030   1.682  0.00  0.00    -0.216 N 
ATOM     28  H   UNL     1       0.902  -2.069   0.777  0.00  0.00    +0.174 HD
BRANCH  27  34
ATOM     29  C   UNL     1      -2.589  -4.579   4.469  0.00  0.00    +0.044 C 
ATOM     30  C   UNL     1      -2.306  -3.681   3.292  0.00  0.00    -0.048 A 
ATOM     31  C   UNL     1      -3.341  -3.265   2.475  0.00  0.00    +0.006 A 
ATOM     32  C   UNL     1      -3.085  -2.441   1.395  0.00  0.00    -0.048 A 
ATOM     33  C   UNL     1      -1.794  -2.030   1.129  0.00  0.00    +0.028 A 
ATOM     34  C   UNL     1      -0.751  -2.445   1.948  0.00  0.00    +0.049 A 
ATOM     35  C   UNL     1      -1.013  -3.268   3.036  0.00  0.00    +0.028 A 
ATOM     36  C   UNL     1      -4.216  -1.992   0.506  0.00  0.00    +0.044 C 
ENDBRANCH  27  34
ENDBRANCH  24  27
ENDBRANCH   1  24
TORSDOF 5
