REMARK  Name = ZINC25011558
REMARK  9 active torsions:
REMARK  status: ('A' for Active; 'I' for Inactive)
REMARK    1  A    between atoms: C_1  and  C_2
REMARK    2  A    between atoms: N_5  and  C_8
REMARK    3  A    between atoms: C_8  and  C_9
REMARK    4  A    between atoms: C_15  and  C_17
REMARK    5  A    between atoms: C_17  and  C_19
REMARK    6  A    between atoms: C_17  and  N_22
REMARK    7  A    between atoms: C_19  and  C_20
REMARK    8  A    between atoms: C_19  and  C_21
REMARK    9  A    between atoms: C_23  and  C_25
REMARK                            x       y       z     vdW  Elec       q    Type
REMARK                         _______ _______ _______ _____ _____    ______ ____
ROOT
ATOM      1  C   UNL     1      -1.953  11.728  -5.263  0.00  0.00    +0.034 A 
ATOM      2  C   UNL     1      -1.787  10.764  -6.200  0.00  0.00    +0.070 A 
ATOM      3  S   UNL     1      -1.888   9.295  -5.187  0.00  0.00    -0.060 S 
ATOM      4  C   UNL     1      -2.135  10.089  -3.662  0.00  0.00    +0.165 A 
ATOM      5  N   UNL     1      -2.131  11.362  -4.008  0.00  0.00    -0.231 NA
ATOM      6  N   UNL     1      -2.301   9.528  -2.402  0.00  0.00    -0.263 N 
ATOM      7  C   UNL     1      -2.281   8.188  -2.253  0.00  0.00    +0.239 C 
ATOM      8  O   UNL     1      -2.212   7.471  -3.228  0.00  0.00    -0.273 OA
ATOM      9  H   UNL     1      -2.450  10.176  -1.526  0.00  0.00    +0.157 HD
ENDROOT
BRANCH   1  10
ATOM     10  C   UNL     1      -1.943  13.186  -5.646  0.00  0.00    -0.022 C 
BRANCH  10  15
ATOM     11  C   UNL     1      -7.189  15.454  -5.635  0.00  0.00    +0.007 C 
ATOM     12  C   UNL     1      -5.756  15.080  -5.252  0.00  0.00    -0.018 C 
ATOM     13  C   UNL     1      -4.796  15.538  -6.354  0.00  0.00    -0.016 C 
ATOM     14  C   UNL     1      -3.372  15.108  -5.995  0.00  0.00    -0.078 C 
ATOM     15  N   UNL     1      -3.322  13.647  -5.854  0.00  0.00    +0.383 N 
ATOM     16  C   UNL     1      -4.200  13.188  -4.770  0.00  0.00    -0.078 C 
ATOM     17  C   UNL     1      -5.649  13.561  -5.092  0.00  0.00    -0.016 C 
ATOM     18  H   UNL     1      -3.689  13.207  -6.792  0.00  0.00    -0.081 HD
ENDBRANCH  10  15
ENDBRANCH   1  10
BRANCH   7  19
ATOM     19  C   UNL     1      -2.344   7.582  -0.874  0.00  0.00    +0.162 C 
BRANCH  19  20
ATOM     20  N   UNL     1      -1.816   6.217  -0.917  0.00  0.00    -0.303 N 
ATOM     21  C   UNL     1      -1.302   5.658   0.197  0.00  0.00    +0.220 C 
ATOM     22  O   UNL     1      -1.277   6.286   1.234  0.00  0.00    -0.275 OA
ATOM     23  H   UNL     1      -1.838   5.647  -1.858  0.00  0.00    +0.149 HD
BRANCH  21  24
ATOM     24  C   UNL     1      -0.759   4.253   0.153  0.00  0.00    +0.048 C 
ATOM     25  C   UNL     1       0.387   4.180  -0.858  0.00  0.00    +0.019 C 
ATOM     26  C   UNL     1       0.938   2.754  -0.902  0.00  0.00    -0.009 C 
ATOM     27  C   UNL     1       1.456   2.364   0.483  0.00  0.00    +0.007 C 
ATOM     28  C   UNL     1       0.311   2.437   1.495  0.00  0.00    -0.009 C 
ATOM     29  C   UNL     1      -0.240   3.863   1.539  0.00  0.00    +0.019 C 
ATOM     30  C   UNL     1      -0.801   1.473   1.077  0.00  0.00    +0.007 C 
ATOM     31  C   UNL     1      -1.319   1.862  -0.309  0.00  0.00    -0.009 C 
ATOM     32  C   UNL     1      -0.174   1.790  -1.321  0.00  0.00    +0.007 C 
ATOM     33  C   UNL     1      -1.871   3.289  -0.265  0.00  0.00    +0.019 C 
ENDBRANCH  21  24
ENDBRANCH  19  20
BRANCH  19  34
ATOM     34  C   UNL     1      -3.797   7.553  -0.396  0.00  0.00    +0.012 C 
ATOM     35  C   UNL     1      -4.605   6.599  -1.279  0.00  0.00    +0.009 C 
ATOM     36  C   UNL     1      -3.846   7.070   1.055  0.00  0.00    +0.009 C 
ENDBRANCH  19  34
ENDBRANCH   7  19
TORSDOF 6
