REMARK  Name = ZINC05228203
REMARK  7 active torsions:
REMARK  status: ('A' for Active; 'I' for Inactive)
REMARK    1  A    between atoms: C_1  and  C_2
REMARK    2  A    between atoms: C_2  and  O_4
REMARK    3  A    between atoms: O_4  and  C_5
REMARK    4  A    between atoms: C_9  and  C_31
REMARK    5  A    between atoms: C_21  and  C_30
REMARK    6  A    between atoms: C_26  and  C_27
REMARK    7  A    between atoms: C_26  and  O_29
REMARK                            x       y       z     vdW  Elec       q    Type
REMARK                         _______ _______ _______ _____ _____    ______ ____
ROOT
ATOM      1  C   UNL     1       4.232   1.530  -2.619  0.00  0.00    +0.177 C 
ATOM      2  C   UNL     1       4.206   0.005  -2.730  0.00  0.00    +0.045 C 
ATOM      3  C   UNL     1       2.774  -0.513  -2.627  0.00  0.00    +0.011 C 
ATOM      4  C   UNL     1       2.136  -0.078  -1.302  0.00  0.00    -0.026 C 
ATOM      5  C   UNL     1       2.167   1.455  -1.231  0.00  0.00    -0.001 C 
ATOM      6  C   UNL     1       3.604   1.963  -1.291  0.00  0.00    +0.048 C 
ATOM      7  C   UNL     1       1.446   1.990  -0.001  0.00  0.00    +0.004 C 
ATOM      8  C   UNL     1      -0.018   1.515   0.010  0.00  0.00    +0.004 C 
ATOM      9  C   UNL     1       0.002  -0.004   0.002  0.00  0.00    -0.004 C 
ATOM     10  C   UNL     1       0.667  -0.485  -1.294  0.00  0.00    -0.001 C 
ATOM     11  C   UNL     1       0.393  -1.968  -1.473  0.00  0.00    +0.005 C 
ATOM     12  C   UNL     1      -1.083  -2.133  -1.892  0.00  0.00    +0.011 C 
ATOM     13  C   UNL     1      -1.951  -1.160  -1.132  0.00  0.00    +0.011 C 
ATOM     14  C   UNL     1      -1.299  -0.715   0.191  0.00  0.00    +0.002 C 
ATOM     15  C   UNL     1      -2.436   0.065   0.867  0.00  0.00    +0.008 C 
ATOM     16  C   UNL     1      -3.696  -0.776   0.521  0.00  0.00    +0.049 C 
ATOM     17  C   UNL     1      -3.283  -1.742  -0.617  0.00  0.00    +0.132 C 
ATOM     18  C   UNL     1      -2.303   0.039  -2.018  0.00  0.00    +0.015 C 
ATOM     19  C   UNL     1       2.889  -0.714  -0.140  0.00  0.00    +0.012 C 
ENDROOT
BRANCH  17  20
ATOM     20  C   UNL     1      -4.285  -1.732  -1.690  0.00  0.00    -0.070 C 
ATOM     21  C   UNL     1      -5.086  -1.723  -2.549  0.00  0.00    +0.007 C 
ENDBRANCH  17  20
BRANCH  17  22
ATOM     22  O   UNL     1      -3.088  -3.058  -0.109  0.00  0.00    -0.376 OA
ATOM     23  H   UNL     1      -3.894  -3.473   0.228  0.00  0.00    +0.211 HD
ENDBRANCH  17  22
BRANCH   1  24
ATOM     24  O   UNL     1       5.606   1.997  -2.678  0.00  0.00    -0.462 OA
BRANCH  24  26
ATOM     25  C   UNL     1       7.519   2.772  -4.032  0.00  0.00    +0.136 C 
ATOM     26  C   UNL     1       6.101   2.281  -3.893  0.00  0.00    +0.304 C 
ATOM     27  O   UNL     1       5.410   2.144  -4.874  0.00  0.00    -0.251 OA
ENDBRANCH  24  26
ENDBRANCH   1  24
TORSDOF 4
