REMARK  Name = ZINC08971012
REMARK  11 active torsions:
REMARK  status: ('A' for Active; 'I' for Inactive)
REMARK    1  A    between atoms: C_1  and  C_2
REMARK    2  A    between atoms: C_12  and  C_21
REMARK    3  A    between atoms: C_15  and  C_17
REMARK    4  A    between atoms: C_17  and  C_18
REMARK    5  A    between atoms: C_18  and  C_19
REMARK    6  A    between atoms: C_18  and  C_20
REMARK    7  A    between atoms: N_23  and  C_24
REMARK    8  A    between atoms: C_26  and  O_32
REMARK    9  A    between atoms: C_29  and  O_30
REMARK   10  A    between atoms: O_30  and  C_31
REMARK   11  A    between atoms: O_32  and  C_33
REMARK                            x       y       z     vdW  Elec       q    Type
REMARK                         _______ _______ _______ _____ _____    ______ ____
ROOT
ATOM      1  C   UNL     1      -4.045  -1.578   0.119  0.00  0.00    +0.046 C 
ATOM      2  C   UNL     1      -2.949  -0.742   0.729  0.00  0.00    -0.028 A 
ATOM      3  C   UNL     1      -2.997  -0.418   2.070  0.00  0.00    +0.025 A 
ATOM      4  C   UNL     1      -1.995   0.349   2.639  0.00  0.00    +0.042 A 
ATOM      5  C   UNL     1      -0.940   0.792   1.859  0.00  0.00    +0.024 A 
ATOM      6  C   UNL     1      -0.889   0.470   0.522  0.00  0.00    -0.026 A 
ATOM      7  C   UNL     1      -1.892  -0.299  -0.062  0.00  0.00    +0.039 A 
ATOM      8  N   UNL     1      -1.624  -0.491  -1.419  0.00  0.00    -0.286 N 
ATOM      9  C   UNL     1      -0.483   0.111  -1.802  0.00  0.00    +0.211 C 
ATOM     10  O   UNL     1      -0.006   0.114  -2.917  0.00  0.00    -0.277 OA
ATOM     11  C   UNL     1       0.089   0.779  -0.579  0.00  0.00    +0.049 C 
ATOM     12  C   UNL     1       0.220   2.292  -0.790  0.00  0.00    +0.076 C 
ATOM     13  C   UNL     1       1.718   2.599  -0.551  0.00  0.00    -0.004 C 
ATOM     14  C   UNL     1       2.185   1.396   0.307  0.00  0.00    -0.069 C 
ATOM     15 CL   UNL     1      -2.062   0.755   4.325  0.00  0.00    -0.084 Cl
ATOM     16  H   UNL     1      -2.196  -0.999  -2.017  0.00  0.00    +0.155 HD
ATOM     17  N   UNL     1       1.418   0.276  -0.260  0.00  0.00    +0.394 N 
ATOM     18  H   UNL     1       1.876  -0.068  -1.112  0.00  0.00    -0.083 HD
ATOM     19  H   UNL     1       1.350  -0.486   0.424  0.00  0.00    -0.083 HD
ENDROOT
BRANCH  12  20
ATOM     20  C   UNL     1      -0.633   3.036   0.204  0.00  0.00    +0.220 C 
ATOM     21  O   UNL     1      -0.136   3.482   1.216  0.00  0.00    -0.275 OA
ATOM     22  N   UNL     1      -1.950   3.207  -0.031  0.00  0.00    -0.282 N 
ATOM     23  H   UNL     1      -2.363   2.784  -0.800  0.00  0.00    +0.155 HD
BRANCH  22  24
ATOM     24  C   UNL     1      -2.720   3.993   0.835  0.00  0.00    +0.079 A 
ATOM     25  C   UNL     1      -2.106   4.923   1.661  0.00  0.00    +0.072 A 
ATOM     26  C   UNL     1      -2.871   5.704   2.513  0.00  0.00    +0.122 A 
ATOM     27  C   UNL     1      -4.249   5.548   2.549  0.00  0.00    +0.049 A 
ATOM     28  C   UNL     1      -4.863   4.618   1.731  0.00  0.00    +0.051 A 
ATOM     29  C   UNL     1      -4.104   3.839   0.873  0.00  0.00    +0.141 A 
BRANCH  29  30
ATOM     30  O   UNL     1      -4.709   2.924   0.069  0.00  0.00    -0.493 OA
ATOM     31  C   UNL     1      -6.131   2.820   0.160  0.00  0.00    +0.277 C 
ENDBRANCH  29  30
BRANCH  26  32
ATOM     32  O   UNL     1      -2.270   6.620   3.318  0.00  0.00    -0.495 OA
ATOM     33  C   UNL     1      -3.119   7.387   4.175  0.00  0.00    +0.277 C 
ENDBRANCH  26  32
ENDBRANCH  22  24
ENDBRANCH  12  20
BRANCH  14  34
ATOM     34  C   UNL     1       3.691   1.173   0.156  0.00  0.00    -0.013 C 
BRANCH  34  35
ATOM     35  C   UNL     1       4.115  -0.036   0.992  0.00  0.00    -0.019 C 
ATOM     36  C   UNL     1       5.588  -0.349   0.725  0.00  0.00    +0.007 C 
ATOM     37  C   UNL     1       3.921   0.277   2.477  0.00  0.00    +0.007 C 
ENDBRANCH  34  35
ENDBRANCH  14  34
TORSDOF 6
