REMARK  Name = ZINC21808720
REMARK  10 active torsions:
REMARK  status: ('A' for Active; 'I' for Inactive)
REMARK    1  A    between atoms: C_1  and  C_2
REMARK    2  A    between atoms: C_5  and  C_37
REMARK    3  A    between atoms: N_8  and  C_10
REMARK    4  A    between atoms: C_10  and  C_11
REMARK    5  A    between atoms: C_11  and  C_12
REMARK    6  A    between atoms: C_12  and  N_13
REMARK    7  A    between atoms: C_22  and  C_23
REMARK    8  A    between atoms: C_22  and  C_24
REMARK    9  A    between atoms: N_26  and  C_27
REMARK   10  A    between atoms: C_30  and  C_33
REMARK                            x       y       z     vdW  Elec       q    Type
REMARK                         _______ _______ _______ _____ _____    ______ ____
ROOT
ATOM      1  N   UNL     1       5.240  -2.019   3.551  0.00  0.00    -0.281 N 
ATOM      2  C   UNL     1       6.226  -2.714   2.937  0.00  0.00    +0.264 C 
ATOM      3  O   UNL     1       6.012  -3.774   2.377  0.00  0.00    -0.268 OA
ATOM      4  C   UNL     1       7.568  -2.119   2.982  0.00  0.00    +0.106 A 
ATOM      5  C   UNL     1       8.714  -2.466   2.331  0.00  0.00    +0.048 A 
ATOM      6  C   UNL     1       9.696  -1.562   2.721  0.00  0.00    +0.038 A 
ATOM      7  C   UNL     1       9.152  -0.643   3.631  0.00  0.00    +0.057 A 
ATOM      8  N   UNL     1       7.829  -1.015   3.786  0.00  0.00    -0.333 N 
ATOM      9  C   UNL     1       6.800  -0.417   4.640  0.00  0.00    +0.157 C 
ATOM     10  C   UNL     1       5.427  -0.644   3.999  0.00  0.00    +0.128 C 
ATOM     11  C   UNL     1       5.276   0.292   2.798  0.00  0.00    +0.043 C 
ATOM     12  C   UNL     1      10.038   0.335   4.106  0.00  0.00    +0.034 A 
ATOM     13  C   UNL     1      11.321   0.349   3.689  0.00  0.00    +0.048 A 
ATOM     14  S   UNL     1      11.385  -1.040   2.572  0.00  0.00    -0.095 S 
ENDROOT
BRANCH  10  15
ATOM     15  C   UNL     1       4.358  -0.311   5.008  0.00  0.00    +0.238 C 
ATOM     16  O   UNL     1       3.740   0.728   4.917  0.00  0.00    -0.273 OA
ATOM     17  N   UNL     1       4.088  -1.169   6.012  0.00  0.00    -0.311 N 
ATOM     18  H   UNL     1       4.633  -1.964   6.130  0.00  0.00    +0.149 HD
BRANCH  17  19
ATOM     19  C   UNL     1       2.974  -0.902   6.925  0.00  0.00    +0.073 C 
ATOM     20  C   UNL     1       3.422   0.091   7.999  0.00  0.00    +0.022 C 
ATOM     21  C   UNL     1       4.594  -0.501   8.784  0.00  0.00    +0.005 C 
ATOM     22  C   UNL     1       4.155  -1.807   9.449  0.00  0.00    -0.014 C 
ATOM     23  C   UNL     1       3.708  -2.800   8.375  0.00  0.00    +0.005 C 
ATOM     24  C   UNL     1       2.535  -2.209   7.590  0.00  0.00    +0.022 C 
ATOM     25  C   UNL     1       5.327  -2.398  10.234  0.00  0.00    +0.007 C 
ENDBRANCH  17  19
ENDBRANCH  10  15
BRANCH   1  26
ATOM     26  C   UNL     1       3.944  -2.666   3.767  0.00  0.00    +0.107 C 
BRANCH  26  27
ATOM     27  C   UNL     1       3.093  -2.538   2.503  0.00  0.00    +0.000 C 
BRANCH  27  28
ATOM     28  C   UNL     1       1.697  -3.107   2.767  0.00  0.00    -0.077 C 
BRANCH  28  34
ATOM     29  C   UNL     1      -0.350   0.232  -0.169  0.00  0.00    +0.005 C 
ATOM     30  C   UNL     1      -0.147  -1.266   0.067  0.00  0.00    -0.031 C 
ATOM     31  C   UNL     1      -1.509  -1.950   0.210  0.00  0.00    +0.003 C 
ATOM     32  C   UNL     1      -1.294  -3.433   0.524  0.00  0.00    -0.031 C 
ATOM     33  C   UNL     1      -0.443  -3.563   1.789  0.00  0.00    -0.076 C 
ATOM     34  N   UNL     1       0.856  -2.912   1.579  0.00  0.00    +0.380 N 
ATOM     35  C   UNL     1       0.662  -1.476   1.348  0.00  0.00    -0.076 C 
ATOM     36  C   UNL     1      -2.647  -4.111   0.746  0.00  0.00    +0.005 C 
ATOM     37  H   UNL     1       1.310  -3.322   0.777  0.00  0.00    -0.082 HD
ENDBRANCH  28  34
ENDBRANCH  27  28
ENDBRANCH  26  27
ENDBRANCH   1  26
TORSDOF 6
