REMARK  Name = ZINC39653036
REMARK  9 active torsions:
REMARK  status: ('A' for Active; 'I' for Inactive)
REMARK    1  A    between atoms: C_1  and  O_2
REMARK    2  A    between atoms: O_2  and  C_3
REMARK    3  A    between atoms: C_5  and  C_11
REMARK    4  A    between atoms: C_7  and  O_9
REMARK    5  A    between atoms: O_9  and  C_10
REMARK    6  A    between atoms: C_11  and  C_12
REMARK    7  A    between atoms: C_12  and  N_13
REMARK    8  A    between atoms: C_14  and  C_16
REMARK    9  A    between atoms: C_27  and  C_29
REMARK                            x       y       z     vdW  Elec       q    Type
REMARK                         _______ _______ _______ _____ _____    ______ ____
ROOT
ATOM      1  C   UNL     1      -0.640  -7.887  -4.351  0.00  0.00    +0.100 C 
ATOM      2  C   UNL     1       0.550  -8.603  -5.028  0.00  0.00    +0.121 C 
ATOM      3  N   UNL     1      -0.048  -9.798  -5.670  0.00  0.00    -0.296 N 
ATOM      4  C   UNL     1      -1.342  -9.318  -6.210  0.00  0.00    +0.115 C 
ATOM      5  C   UNL     1      -1.880  -8.359  -5.130  0.00  0.00    -0.004 C 
ATOM      6  C   UNL     1      -2.840  -9.095  -4.201  0.00  0.00    -0.010 C 
ATOM      7  C   UNL     1      -4.089  -9.504  -4.986  0.00  0.00    -0.082 C 
ATOM      8  N   UNL     1      -4.734  -8.308  -5.540  0.00  0.00    +0.379 N 
ATOM      9  C   UNL     1      -3.839  -7.657  -6.503  0.00  0.00    -0.082 C 
ATOM     10  C   UNL     1      -2.578  -7.170  -5.783  0.00  0.00    -0.010 C 
ATOM     11  C   UNL     1       0.469 -11.041  -5.744  0.00  0.00    +0.247 C 
ATOM     12  O   UNL     1       1.487 -11.313  -5.138  0.00  0.00    -0.270 OA
ATOM     13  H   UNL     1      -5.590  -8.573  -6.004  0.00  0.00    -0.086 HD
ATOM     14  H   UNL     1      -4.947  -7.665  -4.792  0.00  0.00    -0.086 HD
ENDROOT
BRANCH  11  15
ATOM     15  C   UNL     1      -0.203 -12.073  -6.563  0.00  0.00    +0.040 A 
ATOM     16  C   UNL     1      -1.085 -11.698  -7.577  0.00  0.00    +0.033 A 
ATOM     17  C   UNL     1      -1.709 -12.666  -8.338  0.00  0.00    +0.043 A 
ATOM     18  C   UNL     1      -1.462 -14.007  -8.096  0.00  0.00    +0.040 A 
ATOM     19  C   UNL     1      -0.589 -14.385  -7.091  0.00  0.00    +0.043 A 
ATOM     20  C   UNL     1       0.047 -13.426  -6.327  0.00  0.00    +0.033 A 
ATOM     21 CL   UNL     1      -0.286 -16.068  -6.794  0.00  0.00    -0.083 Cl
ATOM     22 CL   UNL     1      -2.807 -12.202  -9.601  0.00  0.00    -0.083 Cl
ENDBRANCH  11  15
BRANCH   1  24
ATOM     23  N   UNL     1      -0.994  -5.588  -3.509  0.00  0.00    -0.315 N 
ATOM     24  C   UNL     1      -0.487  -6.392  -4.465  0.00  0.00    +0.218 C 
ATOM     25  O   UNL     1       0.094  -5.913  -5.415  0.00  0.00    -0.275 OA
ATOM     26  H   UNL     1      -1.459  -5.972  -2.749  0.00  0.00    +0.149 HD
BRANCH  23  27
ATOM     27  C   UNL     1      -0.845  -4.135  -3.619  0.00  0.00    +0.109 C 
BRANCH  27  28
ATOM     28  C   UNL     1      -1.505  -3.462  -2.415  0.00  0.00    +0.054 C 
BRANCH  28  31
ATOM     29  C   UNL     1      -2.176   0.155  -3.286  0.00  0.00    +0.124 A 
ATOM     30  C   UNL     1      -2.315  -1.222  -3.180  0.00  0.00    +0.049 A 
ATOM     31  C   UNL     1      -1.352  -1.967  -2.528  0.00  0.00    -0.039 A 
ATOM     32  C   UNL     1      -0.248  -1.344  -1.979  0.00  0.00    +0.049 A 
ATOM     33  C   UNL     1      -0.104   0.033  -2.082  0.00  0.00    +0.124 A 
ATOM     34  C   UNL     1      -1.067   0.782  -2.741  0.00  0.00    +0.091 A 
BRANCH  29  36
ATOM     35  C   UNL     1      -2.913   2.298  -4.003  0.00  0.00    +0.277 C 
ATOM     36  O   UNL     1      -3.125   0.887  -3.927  0.00  0.00    -0.495 OA
ENDBRANCH  29  36
BRANCH  33  37
ATOM     37  O   UNL     1       0.982   0.645  -1.541  0.00  0.00    -0.495 OA
ATOM     38  C   UNL     1       1.065   2.065  -1.685  0.00  0.00    +0.277 C 
ENDBRANCH  33  37
ENDBRANCH  28  31
ENDBRANCH  27  28
ENDBRANCH  23  27
ENDBRANCH   1  24
TORSDOF 7
