REMARK  Name = ZINC20765025
REMARK  6 active torsions:
REMARK  status: ('A' for Active; 'I' for Inactive)
REMARK    1  A    between atoms: C_1  and  C_2
REMARK    2  A    between atoms: C_2  and  C_3
REMARK    3  A    between atoms: C_6  and  C_9
REMARK    4  A    between atoms: C_11  and  C_25
REMARK    5  A    between atoms: C_14  and  C_17
REMARK    6  A    between atoms: C_22  and  O_23
REMARK                            x       y       z     vdW  Elec       q    Type
REMARK                         _______ _______ _______ _____ _____    ______ ____
ROOT
ATOM      1  C   UNL     1       3.694  -0.683  -0.036  0.00  0.00    +0.040 C 
ATOM      2  N   UNL     1       3.680  -1.963  -0.042  0.00  0.00    -0.299 NA
ATOM      3  C   UNL     1       4.877  -2.794  -0.067  0.00  0.00    +0.081 C 
ATOM      4  N   UNL     1       6.056  -2.017   0.335  0.00  0.00    +0.401 N 
ATOM      5  C   UNL     1       6.136  -0.772  -0.449  0.00  0.00    -0.028 C 
ATOM      6  C   UNL     1       4.962   0.124  -0.050  0.00  0.00    +0.044 C 
ATOM      7  H   UNL     1       5.983  -1.766   1.403  0.00  0.00    -0.081 HD
ATOM      8  H   UNL     1       6.964  -2.612   0.159  0.00  0.00    -0.081 HD
ENDROOT
BRANCH   5   9
ATOM      9  C   UNL     1       7.437  -0.070  -0.156  0.00  0.00    -0.018 A 
ATOM     10  C   UNL     1       8.137  -0.365   0.997  0.00  0.00    +0.025 A 
ATOM     11  C   UNL     1       9.332   0.280   1.266  0.00  0.00    +0.041 A 
ATOM     12  C   UNL     1       9.827   1.221   0.381  0.00  0.00    +0.023 A 
ATOM     13  C   UNL     1       9.129   1.518  -0.773  0.00  0.00    +0.047 A 
ATOM     14  C   UNL     1       7.934   0.869  -1.048  0.00  0.00    +0.119 A 
ATOM     15 CL   UNL     1      10.210  -0.093   2.716  0.00  0.00    -0.084 Cl
BRANCH  14  16
ATOM     16  O   UNL     1       7.250   1.156  -2.186  0.00  0.00    -0.507 OA
ATOM     17  H   UNL     1       7.645   1.901  -2.893  0.00  0.00    +0.292 HD
ENDBRANCH  14  16
ENDBRANCH   5   9
BRANCH   3  18
ATOM     18  C   UNL     1       4.698  -3.951   0.882  0.00  0.00    -0.039 A 
ATOM     19  C   UNL     1       5.798  -4.507   1.509  0.00  0.00    +0.004 A 
ATOM     20  C   UNL     1       5.634  -5.565   2.383  0.00  0.00    +0.002 A 
ATOM     21  C   UNL     1       4.372  -6.075   2.623  0.00  0.00    +0.020 A 
ATOM     22  C   UNL     1       3.272  -5.522   1.992  0.00  0.00    +0.041 A 
ATOM     23  C   UNL     1       3.436  -4.460   1.121  0.00  0.00    +0.023 A 
ATOM     24 CL   UNL     1       1.686  -6.162   2.292  0.00  0.00    -0.084 Cl
ENDBRANCH   3  18
BRANCH   1  28
ATOM     25  C   UNL     1      -0.017   1.379   0.010  0.00  0.00    -0.048 A 
ATOM     26  C   UNL     1       1.168   2.094   0.002  0.00  0.00    +0.004 A 
ATOM     27  C   UNL     1       2.377   1.430  -0.013  0.00  0.00    +0.010 A 
ATOM     28  C   UNL     1       2.404   0.034  -0.020  0.00  0.00    -0.004 A 
ATOM     29  C   UNL     1       1.204  -0.681  -0.013  0.00  0.00    +0.010 A 
ATOM     30  C   UNL     1       0.002  -0.004   0.002  0.00  0.00    +0.004 A 
BRANCH  25  32
ATOM     31  C   UNL     1      -1.773   2.352   1.466  0.00  0.00    +0.009 C 
ATOM     32  C   UNL     1      -1.334   2.112   0.020  0.00  0.00    +0.032 C 
ENDBRANCH  25  32
ENDBRANCH   1  28
TORSDOF 5
