REMARK  Name = ZINC59421044
REMARK  8 active torsions:
REMARK  status: ('A' for Active; 'I' for Inactive)
REMARK    1  A    between atoms: C_1  and  C_2
REMARK    2  A    between atoms: C_2  and  C_3
REMARK    3  A    between atoms: N_12  and  C_13
REMARK    4  A    between atoms: C_13  and  C_14
REMARK    5  A    between atoms: C_17  and  O_20
REMARK    6  A    between atoms: O_20  and  C_21
REMARK    7  A    between atoms: C_21  and  C_22
REMARK    8  A    between atoms: N_26  and  C_27
REMARK                            x       y       z     vdW  Elec       q    Type
REMARK                         _______ _______ _______ _____ _____    ______ ____
ROOT
ATOM      1  C   UNL     1      -2.620   1.788  -2.820  0.00  0.00    -0.064 A 
ATOM      2  C   UNL     1      -1.795   1.918  -3.922  0.00  0.00    +0.005 A 
ATOM      3  C   UNL     1      -2.327   2.274  -5.146  0.00  0.00    +0.046 A 
ATOM      4  C   UNL     1      -3.691   2.499  -5.269  0.00  0.00    +0.121 A 
ATOM      5  C   UNL     1      -4.516   2.367  -4.162  0.00  0.00    +0.046 A 
ATOM      6  C   UNL     1      -3.979   2.006  -2.941  0.00  0.00    +0.005 A 
ENDROOT
BRANCH   1   7
ATOM      7  C   UNL     1      -2.036   1.400  -1.486  0.00  0.00    -0.042 C 
BRANCH   7  16
ATOM      8  C   UNL     1      -1.345  -0.439  -0.119  0.00  0.00    -0.037 C 
ATOM      9  C   UNL     1      -1.437  -1.952   0.058  0.00  0.00    -0.051 A 
ATOM     10  C   UNL     1      -0.594  -2.693   0.881  0.00  0.00    +0.010 A 
ATOM     11  C   UNL     1      -0.747  -4.035   0.975  0.00  0.00    +0.045 A 
ATOM     12  S   UNL     1      -2.128  -4.326  -0.122  0.00  0.00    -0.101 S 
ATOM     13  C   UNL     1      -2.394  -2.648  -0.618  0.00  0.00    -0.010 A 
ATOM     14  C   UNL     1      -3.413  -2.079  -1.551  0.00  0.00    +0.024 C 
ATOM     15  C   UNL     1      -3.420  -0.553  -1.354  0.00  0.00    -0.072 C 
ATOM     16  N   UNL     1      -2.034  -0.063  -1.359  0.00  0.00    +0.387 N 
ATOM     17  H   UNL     1      -1.545  -0.464  -2.145  0.00  0.00    -0.080 HD
BRANCH   8  19
ATOM     18  C   UNL     1       0.785  -0.713  -1.397  0.00  0.00    +0.002 C 
ATOM     19  C   UNL     1       0.125  -0.022  -0.202  0.00  0.00    -0.014 C 
ENDBRANCH   8  19
ENDBRANCH   7  16
ENDBRANCH   1   7
BRANCH   4  20
ATOM     20  O   UNL     1      -4.217   2.849  -6.473  0.00  0.00    -0.484 OA
BRANCH  20  21
ATOM     21  C   UNL     1      -5.628   3.066  -6.525  0.00  0.00    +0.303 C 
BRANCH  21  22
ATOM     22  C   UNL     1      -6.027   3.443  -7.929  0.00  0.00    +0.147 A 
ATOM     23  N   UNL     1      -6.074   4.657  -8.405  0.00  0.00    -0.237 NA
ATOM     24  C   UNL     1      -6.469   4.614  -9.687  0.00  0.00    +0.130 A 
ATOM     25  C   UNL     1      -6.674   3.325 -10.016  0.00  0.00    +0.107 A 
ATOM     26  N   UNL     1      -6.388   2.581  -8.903  0.00  0.00    -0.335 N 
ATOM     27  C   UNL     1      -6.464   1.122  -8.789  0.00  0.00    +0.150 C 
ENDBRANCH  21  22
ENDBRANCH  20  21
ENDBRANCH   4  20
TORSDOF 6
