REMARK  Name = ZINC25511581
REMARK  11 active torsions:
REMARK  status: ('A' for Active; 'I' for Inactive)
REMARK    1  A    between atoms: C_1  and  C_2
REMARK    2  A    between atoms: C_2  and  C_3
REMARK    3  A    between atoms: C_8  and  N_9
REMARK    4  A    between atoms: C_10  and  C_12
REMARK    5  A    between atoms: C_12  and  N_13
REMARK    6  A    between atoms: C_19  and  C_21
REMARK    7  A    between atoms: C_21  and  S_22
REMARK    8  A    between atoms: S_22  and  C_23
REMARK    9  A    between atoms: C_26  and  C_29
REMARK   10  A    between atoms: C_29  and  C_30
REMARK   11  A    between atoms: C_30  and  C_31
REMARK                            x       y       z     vdW  Elec       q    Type
REMARK                         _______ _______ _______ _____ _____    ______ ____
ROOT
ATOM      1  N   UNL     1       0.002  -0.004   0.019  0.00  0.00    +0.387 N 
ATOM      2  C   UNL     1       0.551  -0.517  -1.243  0.00  0.00    -0.059 C 
ATOM      3  C   UNL     1       0.723  -2.037  -1.140  0.00  0.00    +0.089 C 
ATOM      4  N   UNL     1      -0.562  -2.626  -0.736  0.00  0.00    -0.304 N 
ATOM      5  C   UNL     1      -1.243  -2.070   0.443  0.00  0.00    +0.089 C 
ATOM      6  C   UNL     1      -1.337  -0.549   0.278  0.00  0.00    -0.059 C 
ATOM      7  C   UNL     1      -1.102  -3.649  -1.428  0.00  0.00    +0.226 C 
ATOM      8  O   UNL     1      -2.163  -4.124  -1.080  0.00  0.00    -0.275 OA
ATOM      9  H   UNL     1       0.662  -0.338   0.832  0.00  0.00    -0.081 HD
ENDROOT
BRANCH   1  10
ATOM     10  C   UNL     1      -0.018   1.465   0.025  0.00  0.00    +0.019 C 
BRANCH  10  12
ATOM     11  N   UNL     1       1.624   3.315   0.004  0.00  0.00    -0.287 N 
ATOM     12  C   UNL     1       1.396   1.986   0.003  0.00  0.00    +0.201 C 
ATOM     13  O   UNL     1       2.328   1.211  -0.017  0.00  0.00    -0.278 OA
ATOM     14  H   UNL     1       0.781   4.018  -0.070  0.00  0.00    +0.155 HD
BRANCH  11  20
ATOM     15  C   UNL     1       3.247   5.059  -0.392  0.00  0.00    -0.026 A 
ATOM     16  C   UNL     1       4.540   5.535  -0.296  0.00  0.00    +0.005 A 
ATOM     17  C   UNL     1       5.522   4.758   0.290  0.00  0.00    +0.000 A 
ATOM     18  C   UNL     1       5.213   3.502   0.781  0.00  0.00    +0.002 A 
ATOM     19  C   UNL     1       3.921   3.023   0.693  0.00  0.00    +0.023 A 
ATOM     20  C   UNL     1       2.933   3.799   0.100  0.00  0.00    +0.036 A 
BRANCH  15  22
ATOM     21  C   UNL     1       1.424   6.680   0.056  0.00  0.00    +0.009 C 
ATOM     22  C   UNL     1       2.177   5.907  -1.030  0.00  0.00    +0.033 C 
ENDBRANCH  15  22
ENDBRANCH  11  20
ENDBRANCH  10  12
ENDBRANCH   1  10
BRANCH   7  23
ATOM     23  C   UNL     1      -0.388  -4.204  -2.633  0.00  0.00    +0.173 C 
BRANCH  23  24
ATOM     24  S   UNL     1      -1.358  -5.559  -3.339  0.00  0.00    -0.077 S 
BRANCH  24  25
ATOM     25  C   UNL     1      -0.321  -6.006  -4.691  0.00  0.00    +0.185 A 
ATOM     26  N   UNL     1      -0.554  -6.998  -5.600  0.00  0.00    -0.206 NA
ATOM     27  H   UNL     1       1.364  -4.615  -4.544  0.00  0.00    +0.191 HD
ATOM     28  C   UNL     1       0.512  -6.975  -6.455  0.00  0.00    +0.152 A 
ATOM     29  N   UNL     1       1.313  -6.030  -6.051  0.00  0.00    -0.157 NA
ATOM     30  N   UNL     1       0.823  -5.449  -5.015  0.00  0.00    -0.254 N 
BRANCH  28  31
ATOM     31  C   UNL     1       0.722  -7.876  -7.645  0.00  0.00    +0.078 C 
BRANCH  31  32
ATOM     32  C   UNL     1       0.929  -7.024  -8.899  0.00  0.00    +0.011 C 
BRANCH  32  33
ATOM     33  C   UNL     1       1.143  -7.939 -10.107  0.00  0.00    -0.011 C 
ATOM     34  C   UNL     1       2.488  -8.682  -9.976  0.00  0.00    +0.003 C 
ATOM     35  C   UNL     1       3.032  -8.741 -11.425  0.00  0.00    +0.000 C 
ATOM     36  C   UNL     1       2.621  -7.363 -12.001  0.00  0.00    +0.000 C 
ATOM     37  C   UNL     1       1.228  -7.100 -11.395  0.00  0.00    +0.003 C 
ENDBRANCH  32  33
ENDBRANCH  31  32
ENDBRANCH  28  31
ENDBRANCH  24  25
ENDBRANCH  23  24
ENDBRANCH   7  23
TORSDOF 10
