REMARK  Name = ZINC12112362
REMARK  5 active torsions:
REMARK  status: ('A' for Active; 'I' for Inactive)
REMARK    1  A    between atoms: C_11  and  C_23
REMARK    2  A    between atoms: C_15  and  C_16
REMARK    3  A    between atoms: C_15  and  N_49
REMARK    4  A    between atoms: C_19  and  C_21
REMARK    5  A    between atoms: C_21  and  O_22
REMARK                            x       y       z     vdW  Elec       q    Type
REMARK                         _______ _______ _______ _____ _____    ______ ____
ROOT
ATOM      1  C   UNL     1      -3.216  -9.452   2.797  0.00  0.00    +0.001 A 
ATOM      2  C   UNL     1      -3.731  -9.841   1.571  0.00  0.00    +0.002 A 
ATOM      3  C   UNL     1      -4.184  -8.925   0.637  0.00  0.00    +0.026 A 
ATOM      4  C   UNL     1      -4.101  -7.578   0.982  0.00  0.00    +0.047 A 
ATOM      5  C   UNL     1      -3.572  -7.185   2.239  0.00  0.00    +0.003 A 
ATOM      6  C   UNL     1      -3.122  -8.133   3.164  0.00  0.00    +0.010 A 
ATOM      7  C   UNL     1      -3.633  -5.741   2.261  0.00  0.00    -0.022 A 
ATOM      8  C   UNL     1      -4.168  -5.345   1.084  0.00  0.00    +0.011 A 
ATOM      9  N   UNL     1      -4.449  -6.440   0.312  0.00  0.00    -0.359 N 
ATOM     10  H   UNL     1      -4.837  -6.411  -0.576  0.00  0.00    +0.166 HD
ATOM     11  C   UNL     1      -4.397  -3.895   0.730  0.00  0.00    +0.015 C 
ATOM     12  C   UNL     1      -3.114  -3.380   2.728  0.00  0.00    -0.072 C 
ATOM     13  C   UNL     1      -3.207  -4.782   3.345  0.00  0.00    +0.019 C 
ATOM     14  N   UNL     1      -4.363  -3.105   1.984  0.00  0.00    +0.393 N 
ATOM     15  H   UNL     1      -5.164  -3.374   2.568  0.00  0.00    -0.080 HD
ENDROOT
BRANCH  11  16
ATOM     16  C   UNL     1      -5.753  -3.738   0.090  0.00  0.00    -0.002 A 
ATOM     17  C   UNL     1      -5.855  -3.520  -1.273  0.00  0.00    +0.127 A 
ATOM     18  C   UNL     1      -7.101  -3.376  -1.859  0.00  0.00    +0.038 A 
ATOM     19  C   UNL     1      -8.242  -3.450  -1.083  0.00  0.00    +0.004 A 
ATOM     20  C   UNL     1      -8.141  -3.667   0.278  0.00  0.00    +0.020 A 
ATOM     21  C   UNL     1      -6.896  -3.817   0.864  0.00  0.00    +0.046 A 
ATOM     22 CL   UNL     1      -6.770  -4.098   2.573  0.00  0.00    -0.083 Cl
ATOM     23  F   UNL     1      -4.739  -3.447  -2.031  0.00  0.00    -0.205 F 
ENDBRANCH  11  16
BRANCH  14  24
ATOM     24  C   UNL     1      -4.458  -1.663   1.674  0.00  0.00    -0.002 C 
BRANCH  24  25
ATOM     25  C   UNL     1      -3.351  -1.247   0.740  0.00  0.00    +0.089 A 
ATOM     26  C   UNL     1      -3.410  -1.257  -0.604  0.00  0.00    +0.043 A 
ATOM     27  C   UNL     1      -2.162  -0.787  -1.073  0.00  0.00    +0.047 A 
ATOM     28  C   UNL     1      -1.412  -0.526   0.013  0.00  0.00    +0.130 A 
ATOM     29  O   UNL     1      -2.138  -0.803   1.108  0.00  0.00    -0.464 OA
BRANCH  28  30
ATOM     30  C   UNL     1       0.002  -0.004   0.002  0.00  0.00    +0.230 C 
BRANCH  30  31
ATOM     31  O   UNL     1      -0.017   1.425   0.010  0.00  0.00    -0.387 OA
ATOM     32  H   UNL     1       0.861   1.830   0.004  0.00  0.00    +0.210 HD
ENDBRANCH  30  31
ENDBRANCH  28  30
ENDBRANCH  24  25
ENDBRANCH  14  24
TORSDOF 5
