REMARK  Name = ZINC17083447
REMARK  7 active torsions:
REMARK  status: ('A' for Active; 'I' for Inactive)
REMARK    1  A    between atoms: C_1  and  C_2
REMARK    2  A    between atoms: C_7  and  C_8
REMARK    3  A    between atoms: C_8  and  N_9
REMARK    4  A    between atoms: C_16  and  C_19
REMARK    5  A    between atoms: C_16  and  O_32
REMARK    6  A    between atoms: C_19  and  C_20
REMARK    7  A    between atoms: C_20  and  C_22
REMARK                            x       y       z     vdW  Elec       q    Type
REMARK                         _______ _______ _______ _____ _____    ______ ____
ROOT
ATOM      1  N   UNL     1      -1.217  -0.520   0.007  0.00  0.00    -0.264 N 
ATOM      2  C   UNL     1       0.099  -0.059  -0.009  0.00  0.00    +0.043 A 
ATOM      3  C   UNL     1       1.308  -0.752  -0.029  0.00  0.00    +0.024 A 
ATOM      4  C   UNL     1       2.502  -0.062  -0.043  0.00  0.00    +0.002 A 
ATOM      5  C   UNL     1       2.510   1.321  -0.035  0.00  0.00    +0.000 A 
ATOM      6  C   UNL     1       1.314   2.017  -0.014  0.00  0.00    +0.009 A 
ATOM      7  C   UNL     1       0.121   1.330  -0.001  0.00  0.00    +0.015 A 
ATOM      8  C   UNL     1      -1.322   1.778   0.027  0.00  0.00    +0.175 C 
ATOM      9  C   UNL     1      -2.109   0.485   0.025  0.00  0.00    +0.257 C 
ATOM     10  O   UNL     1      -3.317   0.376   0.042  0.00  0.00    -0.272 OA
ENDROOT
BRANCH   8  11
ATOM     11  O   UNL     1      -1.589   2.533   1.211  0.00  0.00    -0.374 OA
ATOM     12  H   UNL     1      -2.501   2.845   1.281  0.00  0.00    +0.211 HD
ENDBRANCH   8  11
BRANCH   1  13
ATOM     13  C   UNL     1      -1.585  -1.938   0.005  0.00  0.00    +0.149 C 
BRANCH  13  20
ATOM     14  C   UNL     1      -1.984  -4.756   0.505  0.00  0.00    +0.044 C 
ATOM     15  C   UNL     1      -1.775  -3.808   1.658  0.00  0.00    -0.046 A 
ATOM     16  C   UNL     1      -1.775  -4.287   2.955  0.00  0.00    +0.003 A 
ATOM     17  C   UNL     1      -1.583  -3.417   4.012  0.00  0.00    +0.000 A 
ATOM     18  C   UNL     1      -1.391  -2.069   3.773  0.00  0.00    +0.000 A 
ATOM     19  C   UNL     1      -1.388  -1.591   2.476  0.00  0.00    +0.005 A 
ATOM     20  C   UNL     1      -1.585  -2.460   1.418  0.00  0.00    -0.027 A 
ENDBRANCH  13  20
ENDBRANCH   1  13
BRANCH   8  21
ATOM     21  C   UNL     1      -1.653   2.600  -1.220  0.00  0.00    +0.129 C 
BRANCH  21  22
ATOM     22  C   UNL     1      -3.096   3.034  -1.167  0.00  0.00    +0.167 C 
ATOM     23  O   UNL     1      -3.790   2.717  -0.225  0.00  0.00    -0.292 OA
BRANCH  22  24
ATOM     24  C   UNL     1      -3.661   3.842  -2.259  0.00  0.00    +0.018 A 
ATOM     25  C   UNL     1      -2.848   4.212  -3.348  0.00  0.00    +0.012 A 
ATOM     26  C   UNL     1      -3.349   4.952  -4.369  0.00  0.00    +0.009 A 
ATOM     27  C   UNL     1      -4.693   5.370  -4.344  0.00  0.00    -0.018 A 
ATOM     28  C   UNL     1      -5.230   6.142  -5.387  0.00  0.00    +0.008 A 
ATOM     29  C   UNL     1      -6.534   6.532  -5.336  0.00  0.00    +0.001 A 
ATOM     30  C   UNL     1      -7.348   6.178  -4.261  0.00  0.00    +0.001 A 
ATOM     31  C   UNL     1      -6.863   5.431  -3.232  0.00  0.00    +0.008 A 
ATOM     32  C   UNL     1      -5.521   5.009  -3.250  0.00  0.00    -0.017 A 
ATOM     33  C   UNL     1      -4.990   4.239  -2.205  0.00  0.00    +0.020 A 
ENDBRANCH  22  24
ENDBRANCH  21  22
ENDBRANCH   8  21
TORSDOF 6
