REMARK  Name = ZINC06182299
REMARK  9 active torsions:
REMARK  status: ('A' for Active; 'I' for Inactive)
REMARK    1  A    between atoms: C_1  and  C_2
REMARK    2  A    between atoms: C_5  and  C_32
REMARK    3  A    between atoms: C_9  and  N_10
REMARK    4  A    between atoms: C_9  and  N_58
REMARK    5  A    between atoms: C_13  and  S_20
REMARK    6  A    between atoms: S_20  and  N_23
REMARK    7  A    between atoms: N_23  and  C_24
REMARK    8  A    between atoms: C_29  and  O_30
REMARK    9  A    between atoms: O_30  and  C_31
REMARK                            x       y       z     vdW  Elec       q    Type
REMARK                         _______ _______ _______ _____ _____    ______ ____
ROOT
ATOM      1  N   UNL     1      -2.411   1.538   0.378  0.00  0.00    -0.319 N 
ATOM      2  C   UNL     1      -1.068   1.903   0.293  0.00  0.00    +0.088 A 
ATOM      3  C   UNL     1       0.111   1.179   0.204  0.00  0.00    +0.058 A 
ATOM      4  C   UNL     1       1.320   1.843   0.127  0.00  0.00    +0.111 A 
ATOM      5  C   UNL     1       1.357   3.226   0.145  0.00  0.00    +0.032 A 
ATOM      6  C   UNL     1       0.187   3.954   0.239  0.00  0.00    +0.050 A 
ATOM      7  C   UNL     1      -1.031   3.297   0.316  0.00  0.00    +0.154 A 
ATOM      8  O   UNL     1      -2.311   3.732   0.414  0.00  0.00    -0.431 OA
ATOM      9  C   UNL     1      -3.136   2.672   0.444  0.00  0.00    +0.248 A 
ATOM     10  S   UNL     1      -4.842   2.750   0.560  0.00  0.00    +0.009 S 
ENDROOT
BRANCH   4  11
ATOM     11  S   UNL     1       2.820   0.925   0.006  0.00  0.00    +0.073 S 
ATOM     12  O   UNL     1       3.853   1.768   0.497  0.00  0.00    -0.150 OA
ATOM     13  O   UNL     1       2.556  -0.357   0.558  0.00  0.00    -0.150 OA
BRANCH  11  14
ATOM     14  N   UNL     1       3.123   0.693  -1.605  0.00  0.00    -0.213 N 
ATOM     15  H   UNL     1       3.176  -0.206  -1.964  0.00  0.00    +0.174 HD
BRANCH  14  16
ATOM     16  C   UNL     1       3.303   1.795  -2.449  0.00  0.00    +0.090 A 
ATOM     17  C   UNL     1       3.944   2.933  -1.980  0.00  0.00    +0.028 A 
ATOM     18  C   UNL     1       4.125   4.018  -2.817  0.00  0.00    +0.002 A 
ATOM     19  C   UNL     1       3.659   3.977  -4.119  0.00  0.00    +0.004 A 
ATOM     20  C   UNL     1       3.015   2.848  -4.591  0.00  0.00    +0.047 A 
ATOM     21  C   UNL     1       2.835   1.754  -3.761  0.00  0.00    +0.142 A 
BRANCH  21  22
ATOM     22  O   UNL     1       2.200   0.644  -4.224  0.00  0.00    -0.493 OA
ATOM     23  C   UNL     1       1.747   0.673  -5.579  0.00  0.00    +0.277 C 
ENDBRANCH  21  22
ENDBRANCH  14  16
ENDBRANCH  11  14
ENDBRANCH   4  11
BRANCH   1  24
ATOM     24  C   UNL     1      -2.937   0.171   0.394  0.00  0.00    +0.051 C 
BRANCH  24  32
ATOM     25  C   UNL     1      -0.421  -0.946   4.470  0.00  0.00    +0.005 C 
ATOM     26  C   UNL     1      -1.814  -0.791   3.857  0.00  0.00    -0.030 C 
ATOM     27  C   UNL     1      -2.583  -2.108   3.994  0.00  0.00    +0.003 C 
ATOM     28  C   UNL     1      -3.952  -1.963   3.325  0.00  0.00    -0.030 C 
ATOM     29  C   UNL     1      -3.760  -1.572   1.858  0.00  0.00    -0.073 C 
ATOM     30  C   UNL     1      -1.684  -0.434   2.374  0.00  0.00    -0.073 C 
ATOM     31  C   UNL     1      -4.758  -0.877   4.042  0.00  0.00    +0.005 C 
ATOM     32  N   UNL     1      -3.036  -0.285   1.796  0.00  0.00    +0.392 N 
ATOM     33  H   UNL     1      -3.555   0.415   2.338  0.00  0.00    -0.079 HD
ENDBRANCH  24  32
ENDBRANCH   1  24
TORSDOF 6
