REMARK  Name = ZINC02098330
REMARK  9 active torsions:
REMARK  status: ('A' for Active; 'I' for Inactive)
REMARK    1  A    between atoms: C_1  and  C_2
REMARK    2  A    between atoms: C_3  and  C_32
REMARK    3  A    between atoms: C_9  and  C_31
REMARK    4  A    between atoms: C_10  and  C_17
REMARK    5  A    between atoms: C_15  and  C_16
REMARK    6  A    between atoms: C_17  and  C_18
REMARK    7  A    between atoms: N_20  and  CA_21
REMARK    8  A    between atoms: CA_21  and  C_23
REMARK    9  A    between atoms: CA_21  and  C_29
REMARK                            x       y       z     vdW  Elec       q    Type
REMARK                         _______ _______ _______ _____ _____    ______ ____
ROOT
ATOM      1  C   UNL     1       4.559   7.381  -7.588  0.00  0.00    +0.048 C 
ATOM      2  C   UNL     1       4.307   5.977  -8.073  0.00  0.00    -0.002 A 
ATOM      3  C   UNL     1       4.873   5.377  -9.128  0.00  0.00    +0.106 A 
ATOM      4  O   UNL     1       4.406   4.122  -9.257  0.00  0.00    -0.459 OA
ATOM      5  C   UNL     1       3.509   3.840  -8.289  0.00  0.00    +0.142 A 
ATOM      6  C   UNL     1       3.391   4.990  -7.483  0.00  0.00    +0.024 A 
ATOM      7  C   UNL     1       2.531   5.001  -6.394  0.00  0.00    +0.023 A 
ATOM      8  C   UNL     1       1.782   3.861  -6.104  0.00  0.00    +0.022 A 
ATOM      9  C   UNL     1       0.859   3.840  -4.965  0.00  0.00    -0.029 A 
ATOM     10  C   UNL     1       0.160   2.701  -4.726  0.00  0.00    +0.049 A 
ATOM     11  C   UNL     1       0.327   1.585  -5.574  0.00  0.00    +0.341 A 
ATOM     12  O   UNL     1      -0.310   0.572  -5.351  0.00  0.00    -0.245 OA
ATOM     13  O   UNL     1       1.169   1.611  -6.618  0.00  0.00    -0.422 OA
ATOM     14  C   UNL     1       1.900   2.710  -6.910  0.00  0.00    +0.146 A 
ATOM     15  C   UNL     1       2.761   2.709  -7.994  0.00  0.00    +0.035 A 
ATOM     16  C   UNL     1       2.886   1.479  -8.855  0.00  0.00    +0.051 C 
ATOM     17  C   UNL     1       0.695   5.049  -4.080  0.00  0.00    +0.045 C 
ATOM     18  C   UNL     1       5.887   6.016 -10.040  0.00  0.00    +0.086 C 
ENDROOT
BRANCH  10  19
ATOM     19  C   UNL     1      -0.796   2.631  -3.564  0.00  0.00    +0.138 C 
BRANCH  19  20
ATOM     20  C   UNL     1      -0.068   2.132  -2.343  0.00  0.00    +0.218 C 
ATOM     21  O   UNL     1       1.113   1.860  -2.410  0.00  0.00    -0.275 OA
ATOM     22  N   UNL     1      -0.727   1.988  -1.177  0.00  0.00    -0.298 N 
ATOM     23  H   UNL     1      -1.671   2.206  -1.123  0.00  0.00    +0.150 HD
BRANCH  22  24
ATOM     24  CA  UNL     1      -0.018   1.503   0.010  0.00  0.00    +0.217 C 
BRANCH  24  25
ATOM     25  C   UNL     1      -0.724   1.989   1.250  0.00  0.00    -0.016 A 
ATOM     26  C   UNL     1      -2.105   2.010   1.296  0.00  0.00    +0.006 A 
ATOM     27  C   UNL     1      -2.752   2.451   2.435  0.00  0.00    +0.000 A 
ATOM     28  C   UNL     1      -2.018   2.881   3.525  0.00  0.00    +0.000 A 
ATOM     29  C   UNL     1      -0.636   2.865   3.477  0.00  0.00    +0.000 A 
ATOM     30  C   UNL     1       0.011   2.419   2.339  0.00  0.00    +0.006 A 
ENDBRANCH  24  25
BRANCH  24  31
ATOM     31  C   UNL     1       0.002  -0.004   0.002  0.00  0.00    +0.380 C 
ATOM     32  O   UNL     1      -0.521  -0.610  -0.902  0.00  0.00    -0.244 OA
ATOM     33  OXT UNL     1       0.602  -0.673   1.000  0.00  0.00    -0.244 OA
ENDBRANCH  24  31
ENDBRANCH  22  24
ENDBRANCH  19  20
ENDBRANCH  10  19
TORSDOF 5
