REMARK  Name = ZINC09357594
REMARK  4 active torsions:
REMARK  status: ('A' for Active; 'I' for Inactive)
REMARK    1  A    between atoms: C_1  and  C_2
REMARK    2  A    between atoms: C_5  and  C_8
REMARK    3  A    between atoms: C_8  and  N_9
REMARK    4  A    between atoms: C_18  and  C_25
REMARK                            x       y       z     vdW  Elec       q    Type
REMARK                         _______ _______ _______ _____ _____    ______ ____
ROOT
ATOM      1  N   UNL     1      -2.927   0.722   1.401  0.00  0.00    -0.220 N 
ATOM      2  C   UNL     1      -2.515  -0.401   2.004  0.00  0.00    +0.240 C 
ATOM      3  O   UNL     1      -1.819  -1.178   1.387  0.00  0.00    -0.274 OA
ATOM      4  C   UNL     1      -2.886  -0.725   3.425  0.00  0.00    +0.146 C 
ATOM      5  C   UNL     1      -3.603  -2.076   3.463  0.00  0.00    +0.071 C 
ATOM      6  C   UNL     1      -3.783  -2.473   4.905  0.00  0.00    +0.057 A 
ATOM      7  C   UNL     1      -2.958  -1.968   5.894  0.00  0.00    +0.109 A 
ATOM      8  N   UNL     1      -3.180  -2.329   7.166  0.00  0.00    -0.329 N 
ATOM      9  C   UNL     1      -4.151  -3.174   7.493  0.00  0.00    +0.122 A 
ATOM     10  C   UNL     1      -4.336  -3.531   8.843  0.00  0.00    -0.009 A 
ATOM     11  C   UNL     1      -5.319  -4.413   9.174  0.00  0.00    +0.008 A 
ATOM     12  C   UNL     1      -6.136  -4.950   8.169  0.00  0.00    +0.019 A 
ATOM     13  C   UNL     1      -5.950  -4.591   6.879  0.00  0.00    +0.096 A 
ATOM     14  N   UNL     1      -4.970  -3.708   6.537  0.00  0.00    -0.269 N 
ATOM     15  C   UNL     1      -4.805  -3.359   5.244  0.00  0.00    +0.263 A 
ATOM     16  O   UNL     1      -5.542  -3.812   4.382  0.00  0.00    -0.267 OA
ATOM     17  C   UNL     1      -3.452  -2.942   9.912  0.00  0.00    +0.047 C 
ATOM     18  N   UNL     1      -1.901  -1.109   5.662  0.00  0.00    -0.312 N 
ATOM     19  C   UNL     1      -1.606  -0.810   4.269  0.00  0.00    +0.099 C 
ATOM     20  C   UNL     1      -0.855   0.488   4.105  0.00  0.00    +0.024 C 
ATOM     21  C   UNL     1       0.635   0.437   4.147  0.00  0.00    +0.002 C 
ATOM     22  C   UNL     1       1.222  -0.557   5.115  0.00  0.00    +0.002 C 
ATOM     23  C   UNL     1       0.439  -0.719   6.379  0.00  0.00    +0.019 C 
ATOM     24  C   UNL     1      -0.712  -1.679   6.315  0.00  0.00    +0.107 C 
ATOM     25  C   UNL     1      -3.781   0.341   3.991  0.00  0.00    +0.238 C 
ATOM     26  O   UNL     1      -4.199   0.218   5.122  0.00  0.00    -0.274 OA
ATOM     27  N   UNL     1      -4.131   1.424   3.283  0.00  0.00    -0.239 N 
ATOM     28  C   UNL     1      -3.711   1.616   2.023  0.00  0.00    +0.315 C 
ATOM     29  O   UNL     1      -4.048   2.622   1.432  0.00  0.00    -0.252 OA
ATOM     30  H   UNL     1      -4.782   2.189   3.732  0.00  0.00    +0.159 HD
ATOM     31  H   UNL     1      -2.550  -1.923   7.971  0.00  0.00    +0.168 HD
ENDROOT
BRANCH   1  32
ATOM     32  C   UNL     1      -2.514   0.980   0.019  0.00  0.00    +0.153 C 
BRANCH  32  37
ATOM     33  C   UNL     1       2.451   3.937   0.000  0.00  0.00    +0.044 C 
ATOM     34  C   UNL     1       1.156   3.165   0.008  0.00  0.00    -0.050 A 
ATOM     35  C   UNL     1       1.175   1.783   0.000  0.00  0.00    +0.003 A 
ATOM     36  C   UNL     1      -0.013   1.076   0.008  0.00  0.00    +0.005 A 
ATOM     37  C   UNL     1      -1.219   1.751   0.017  0.00  0.00    -0.030 A 
ATOM     38  C   UNL     1      -1.238   3.133   0.029  0.00  0.00    +0.005 A 
ATOM     39  C   UNL     1      -0.050   3.840   0.022  0.00  0.00    +0.003 A 
ENDBRANCH  32  37
ENDBRANCH   1  32
TORSDOF 2
