REMARK  Name = ZINC02280843
REMARK  3 active torsions:
REMARK  status: ('A' for Active; 'I' for Inactive)
REMARK    1  A    between atoms: C_4  and  C_7
REMARK    2  A    between atoms: C_8  and  C_33
REMARK    3  A    between atoms: N_13  and  N_14
REMARK                            x       y       z     vdW  Elec       q    Type
REMARK                         _______ _______ _______ _____ _____    ______ ____
ROOT
ATOM      1  C   UNL     1       7.144   3.888   1.196  0.00  0.00    +0.102 A 
ATOM      2  C   UNL     1       7.484   4.851   0.224  0.00  0.00    +0.119 A 
ATOM      3  N   UNL     1       6.612   5.125  -0.741  0.00  0.00    -0.144 NA
ATOM      4  N   UNL     1       5.477   4.521  -0.786  0.00  0.00    -0.111 NA
ATOM      5  C   UNL     1       5.136   3.611   0.119  0.00  0.00    +0.252 A 
ATOM      6  N   UNL     1       5.956   3.293   1.112  0.00  0.00    -0.210 NA
ATOM      7  N   UNL     1       3.903   2.989   0.029  0.00  0.00    -0.230 N 
ATOM      8  H   UNL     1       3.675   2.273   0.642  0.00  0.00    +0.173 HD
ENDROOT
BRANCH   7   9
ATOM      9  N   UNL     1       2.985   3.394  -0.949  0.00  0.00    -0.218 N 
ATOM     10  C   UNL     1       1.727   2.911  -0.933  0.00  0.00    +0.323 C 
ATOM     11  O   UNL     1       1.004   3.063  -1.899  0.00  0.00    -0.251 OA
ATOM     12  N   UNL     1       1.269   2.260   0.155  0.00  0.00    -0.245 N 
ATOM     13  C   UNL     1       1.775   2.606   1.413  0.00  0.00    +0.052 A 
ATOM     14  C   UNL     1       2.401   3.843   1.547  0.00  0.00    +0.025 A 
ATOM     15  C   UNL     1       2.925   4.233   2.763  0.00  0.00    +0.002 A 
ATOM     16  C   UNL     1       2.831   3.398   3.861  0.00  0.00    +0.001 A 
ATOM     17  C   UNL     1       2.210   2.171   3.742  0.00  0.00    +0.016 A 
ATOM     18  C   UNL     1       1.680   1.771   2.522  0.00  0.00    +0.030 A 
ATOM     19  S   UNL     1       0.890   0.195   2.406  0.00  0.00    -0.114 S 
ATOM     20  C   UNL     1       0.794  -0.080   0.612  0.00  0.00    +0.099 C 
ATOM     21  C   UNL     1       0.262   1.217  -0.020  0.00  0.00    +0.123 C 
ATOM     22  C   UNL     1      -0.012   0.976  -1.479  0.00  0.00    -0.003 C 
ATOM     23  C   UNL     1      -0.476  -0.195  -1.882  0.00  0.00    -0.003 C 
ATOM     24  C   UNL     1      -0.758  -1.243  -0.886  0.00  0.00    -0.003 C 
ATOM     25  C   UNL     1      -0.157  -1.204   0.300  0.00  0.00    -0.010 C 
ATOM     26  H   UNL     1       3.254   4.022  -1.638  0.00  0.00    +0.174 HD
ENDBRANCH   7   9
BRANCH   1  30
ATOM     27  C   UNL     1       9.842   2.922   4.334  0.00  0.00    +0.000 A 
ATOM     28  C   UNL     1       8.480   2.924   4.573  0.00  0.00    +0.001 A 
ATOM     29  C   UNL     1       7.599   3.237   3.559  0.00  0.00    +0.010 A 
ATOM     30  C   UNL     1       8.085   3.551   2.290  0.00  0.00    +0.003 A 
ATOM     31  C   UNL     1       9.459   3.542   2.053  0.00  0.00    +0.010 A 
ATOM     32  C   UNL     1      10.330   3.233   3.077  0.00  0.00    +0.001 A 
ENDBRANCH   1  30
BRANCH   2  33
ATOM     33  C   UNL     1       8.792   5.545   0.277  0.00  0.00    +0.004 A 
ATOM     34  C   UNL     1       9.365   5.864   1.507  0.00  0.00    +0.010 A 
ATOM     35  C   UNL     1      10.586   6.505   1.550  0.00  0.00    +0.001 A 
ATOM     36  C   UNL     1      11.236   6.842   0.376  0.00  0.00    +0.000 A 
ATOM     37  C   UNL     1      10.669   6.533  -0.847  0.00  0.00    +0.001 A 
ATOM     38  C   UNL     1       9.451   5.886  -0.903  0.00  0.00    +0.010 A 
ENDBRANCH   2  33
TORSDOF 3
