REMARK  Name = ZINC02488323
REMARK  4 active torsions:
REMARK  status: ('A' for Active; 'I' for Inactive)
REMARK    1  A    between atoms: C_1  and  C_2
REMARK    2  A    between atoms: C_9  and  N_14
REMARK    3  A    between atoms: C_10  and  C_11
REMARK    4  A    between atoms: C_15  and  C_17
REMARK                            x       y       z     vdW  Elec       q    Type
REMARK                         _______ _______ _______ _____ _____    ______ ____
ROOT
ATOM      1  C   UNL     1      -8.308  -5.549  -0.041  0.00  0.00    +0.008 C 
ATOM      2  C   UNL     1      -6.837  -5.251  -0.337  0.00  0.00    -0.009 C 
ATOM      3  C   UNL     1      -5.945  -6.185   0.486  0.00  0.00    +0.008 C 
ATOM      4  C   UNL     1      -4.494  -6.069   0.016  0.00  0.00    +0.037 C 
ATOM      5  C   UNL     1      -4.095  -4.598   0.019  0.00  0.00    -0.023 A 
ATOM      6  C   UNL     1      -5.030  -3.623   0.032  0.00  0.00    -0.004 A 
ATOM      7  S   UNL     1      -4.109  -2.112   0.031  0.00  0.00    -0.077 S 
ATOM      8  C   UNL     1      -2.503  -2.763   0.012  0.00  0.00    +0.085 A 
ATOM      9  C   UNL     1      -2.719  -4.135   0.001  0.00  0.00    +0.068 A 
ATOM     10  C   UNL     1      -6.518  -3.799   0.045  0.00  0.00    +0.046 C 
ENDROOT
BRANCH   9  11
ATOM     11  C   UNL     1      -1.598  -5.080  -0.023  0.00  0.00    +0.244 C 
ATOM     12  O   UNL     1      -1.120  -5.483   1.021  0.00  0.00    -0.270 OA
ATOM     13  N   UNL     1      -1.098  -5.502  -1.201  0.00  0.00    -0.325 N 
ATOM     14  H   UNL     1      -1.479  -5.181  -2.033  0.00  0.00    +0.145 HD
ATOM     15  H   UNL     1      -0.356  -6.128  -1.216  0.00  0.00    +0.145 HD
ENDBRANCH   9  11
BRANCH   8  16
ATOM     16  N   UNL     1      -1.299  -2.081   0.004  0.00  0.00    -0.273 N 
ATOM     17  C   UNL     1      -1.287  -0.733   0.011  0.00  0.00    +0.284 C 
ATOM     18  O   UNL     1      -2.334  -0.117   0.025  0.00  0.00    -0.266 OA
ATOM     19  H   UNL     1      -0.463  -2.573  -0.007  0.00  0.00    +0.156 HD
BRANCH  17  20
ATOM     20  C   UNL     1       0.002  -0.004   0.002  0.00  0.00    +0.194 A 
ATOM     21  C   UNL     1      -0.016   1.351   0.009  0.00  0.00    +0.103 A 
ATOM     22  C   UNL     1       1.263   2.076   0.001  0.00  0.00    +0.193 A 
ATOM     23  O   UNL     1       1.306   3.294   0.007  0.00  0.00    -0.287 OA
ATOM     24  C   UNL     1       2.491   1.259  -0.015  0.00  0.00    +0.064 A 
ATOM     25  C   UNL     1       3.755   1.849  -0.025  0.00  0.00    +0.015 A 
ATOM     26  C   UNL     1       4.870   1.059  -0.040  0.00  0.00    +0.001 A 
ATOM     27  C   UNL     1       4.752  -0.324  -0.046  0.00  0.00    +0.004 A 
ATOM     28  C   UNL     1       3.512  -0.924  -0.037  0.00  0.00    +0.047 A 
ATOM     29  C   UNL     1       2.362  -0.140  -0.021  0.00  0.00    +0.139 A 
ATOM     30  O   UNL     1       1.142  -0.710  -0.013  0.00  0.00    -0.450 OA
ENDBRANCH  17  20
ENDBRANCH   8  16
TORSDOF 3
