REMARK  Name = ZINC09158011
REMARK  12 active torsions:
REMARK  status: ('A' for Active; 'I' for Inactive)
REMARK    1  A    between atoms: C_1  and  C_2
REMARK    2  A    between atoms: C_2  and  C_3
REMARK    3  A    between atoms: C_2  and  C_4
REMARK    4  A    between atoms: C_4  and  O_5
REMARK    5  A    between atoms: O_5  and  C_6
REMARK    6  A    between atoms: C_9  and  C_12
REMARK    7  A    between atoms: N_14  and  C_15
REMARK    8  A    between atoms: C_15  and  C_23
REMARK    9  A    between atoms: C_16  and  C_17
REMARK   10  A    between atoms: N_25  and  C_26
REMARK   11  A    between atoms: C_26  and  C_27
REMARK   12  A    between atoms: C_27  and  C_28
REMARK                            x       y       z     vdW  Elec       q    Type
REMARK                         _______ _______ _______ _____ _____    ______ ____
ROOT
ATOM      1  C   UNL     1      -3.649  -4.417  -1.962  0.00  0.00    +0.097 C 
ATOM      2  C   UNL     1      -4.639  -4.344  -1.042  0.00  0.00    +0.036 C 
ENDROOT
BRANCH   2   3
ATOM      3  C   UNL     1      -5.735  -5.325  -1.062  0.00  0.00    -0.023 A 
ATOM      4  C   UNL     1      -6.110  -5.936  -2.263  0.00  0.00    +0.008 A 
ATOM      5  C   UNL     1      -7.135  -6.858  -2.273  0.00  0.00    +0.001 A 
ATOM      6  C   UNL     1      -7.799  -7.172  -1.100  0.00  0.00    +0.000 A 
ATOM      7  C   UNL     1      -7.438  -6.568   0.092  0.00  0.00    +0.001 A 
ATOM      8  C   UNL     1      -6.411  -5.648   0.119  0.00  0.00    +0.008 A 
ENDBRANCH   2   3
BRANCH   1  11
ATOM      9  C   UNL     1      -3.567  -5.300  -4.168  0.00  0.00    +0.248 C 
ATOM     10  O   UNL     1      -3.537  -4.166  -4.608  0.00  0.00    -0.270 OA
ATOM     11  N   UNL     1      -3.586  -5.506  -2.836  0.00  0.00    -0.277 N 
ATOM     12  H   UNL     1      -3.556  -6.409  -2.485  0.00  0.00    +0.155 HD
BRANCH   9  16
ATOM     13  C   UNL     1      -3.614  -8.609  -6.829  0.00  0.00    +0.121 A 
ATOM     14  C   UNL     1      -3.695  -7.315  -7.331  0.00  0.00    +0.046 A 
ATOM     15  C   UNL     1      -3.681  -6.239  -6.471  0.00  0.00    +0.016 A 
ATOM     16  C   UNL     1      -3.584  -6.450  -5.093  0.00  0.00    +0.037 A 
ATOM     17  C   UNL     1      -3.497  -7.752  -4.593  0.00  0.00    +0.016 A 
ATOM     18  C   UNL     1      -3.517  -8.822  -5.459  0.00  0.00    +0.046 A 
BRANCH  13  19
ATOM     19  O   UNL     1      -3.628  -9.666  -7.680  0.00  0.00    -0.492 OA
BRANCH  19  20
ATOM     20  C   UNL     1      -3.541 -10.968  -7.098  0.00  0.00    +0.232 C 
BRANCH  20  22
ATOM     21  C   UNL     1      -3.355 -13.410  -7.592  0.00  0.00    +0.010 C 
ATOM     22  C   UNL     1      -3.573 -12.025  -8.204  0.00  0.00    +0.020 C 
ATOM     23  C   UNL     1      -4.931 -11.986  -8.907  0.00  0.00    +0.010 C 
ENDBRANCH  20  22
ENDBRANCH  19  20
ENDBRANCH  13  19
ENDBRANCH   9  16
ENDBRANCH   1  11
BRANCH   1  24
ATOM     24  C   UNL     1      -2.639  -3.352  -2.040  0.00  0.00    +0.258 C 
ATOM     25  O   UNL     1      -1.749  -3.417  -2.867  0.00  0.00    -0.269 OA
ATOM     26  N   UNL     1      -2.699  -2.302  -1.197  0.00  0.00    -0.310 N 
ATOM     27  H   UNL     1      -3.409  -2.250  -0.538  0.00  0.00    +0.149 HD
BRANCH  26  28
ATOM     28  C   UNL     1      -1.693  -1.240  -1.276  0.00  0.00    +0.112 C 
BRANCH  28  29
ATOM     29  C   UNL     1      -1.990  -0.177  -0.216  0.00  0.00    +0.093 C 
BRANCH  29  30
ATOM     30  C   UNL     1      -0.954   0.915  -0.297  0.00  0.00    +0.110 A 
ATOM     31  N   UNL     1      -1.228   2.238  -0.455  0.00  0.00    -0.342 N 
ATOM     32  H   UNL     1      -2.136   2.650  -0.536  0.00  0.00    +0.167 HD
ATOM     33  C   UNL     1      -0.021   2.907  -0.482  0.00  0.00    +0.066 A 
ATOM     34  C   UNL     1       0.343   4.240  -0.617  0.00  0.00    +0.028 A 
ATOM     35  C   UNL     1       1.677   4.588  -0.604  0.00  0.00    +0.002 A 
ATOM     36  C   UNL     1       2.656   3.616  -0.458  0.00  0.00    +0.002 A 
ATOM     37  C   UNL     1       2.317   2.300  -0.323  0.00  0.00    +0.030 A 
ATOM     38  C   UNL     1       0.971   1.923  -0.334  0.00  0.00    +0.089 A 
ATOM     39  N   UNL     1       0.332   0.730  -0.226  0.00  0.00    -0.232 NA
ENDBRANCH  29  30
ENDBRANCH  28  29
ENDBRANCH  26  28
ENDBRANCH   1  24
TORSDOF 10
