REMARK  Name = ZINC43221945
REMARK  15 active torsions:
REMARK  status: ('A' for Active; 'I' for Inactive)
REMARK    1  A    between atoms: C_1  and  C_2
REMARK    2  A    between atoms: C_2  and  C_3
REMARK    3  A    between atoms: C_3  and  C_5
REMARK    4  A    between atoms: C_3  and  C_6
REMARK    5  A    between atoms: C_6  and  C_40
REMARK    6  A    between atoms: C_11  and  C_14
REMARK    7  A    between atoms: C_16  and  O_26
REMARK    8  A    between atoms: C_18  and  O_24
REMARK    9  A    between atoms: C_19  and  C_20
REMARK   10  A    between atoms: C_20  and  O_22
REMARK   11  A    between atoms: O_22  and  C_23
REMARK   12  A    between atoms: O_24  and  C_25
REMARK   13  A    between atoms: O_26  and  C_27
REMARK   14  A    between atoms: N_30  and  C_33
REMARK   15  A    between atoms: C_38  and  C_39
REMARK                            x       y       z     vdW  Elec       q    Type
REMARK                         _______ _______ _______ _____ _____    ______ ____
ROOT
ATOM      1  C   UNL     1       0.995  -2.120  -1.377  0.00  0.00    +0.051 C 
ATOM      2  C   UNL     1       1.670  -2.695  -2.618  0.00  0.00    +0.086 C 
ATOM      3  C   UNL     1       1.088  -4.154  -2.499  0.00  0.00    +0.077 C 
ATOM      4  C   UNL     1      -0.346  -3.934  -2.274  0.00  0.00    -0.026 C 
ATOM      5  N   UNL     1      -0.402  -2.658  -1.471  0.00  0.00    +0.396 N 
ATOM      6  C   UNL     1       1.971  -4.900  -3.364  0.00  0.00    +0.229 C 
ATOM      7  O   UNL     1       1.694  -5.858  -4.053  0.00  0.00    -0.275 OA
ATOM      8  N   UNL     1       3.193  -4.288  -3.235  0.00  0.00    -0.210 N 
ATOM      9  C   UNL     1       3.121  -3.062  -2.607  0.00  0.00    +0.229 C 
ATOM     10  O   UNL     1       4.033  -2.415  -2.139  0.00  0.00    -0.275 OA
ATOM     11  H   UNL     1      -0.760  -2.843  -0.546  0.00  0.00    -0.083 HD
ATOM     12  H   UNL     1      -0.995  -1.992  -1.943  0.00  0.00    -0.083 HD
ENDROOT
BRANCH   8  13
ATOM     13  C   UNL     1       4.393  -4.844  -3.703  0.00  0.00    +0.047 A 
ATOM     14  C   UNL     1       4.830  -4.570  -4.992  0.00  0.00    +0.024 A 
ATOM     15  C   UNL     1       6.011  -5.119  -5.450  0.00  0.00    +0.002 A 
ATOM     16  C   UNL     1       6.759  -5.941  -4.626  0.00  0.00    +0.000 A 
ATOM     17  C   UNL     1       6.326  -6.215  -3.342  0.00  0.00    +0.005 A 
ATOM     18  C   UNL     1       5.148  -5.664  -2.876  0.00  0.00    -0.029 A 
ATOM     19  C   UNL     1       4.680  -5.959  -1.474  0.00  0.00    +0.045 C 
ENDBRANCH   8  13
BRANCH   4  20
ATOM     20  C   UNL     1      -1.067  -3.788  -3.589  0.00  0.00    -0.040 A 
ATOM     21  C   UNL     1      -0.356  -3.554  -4.743  0.00  0.00    +0.048 A 
ATOM     22  C   UNL     1      -1.018  -3.419  -5.959  0.00  0.00    +0.124 A 
ATOM     23  C   UNL     1      -2.400  -3.519  -6.019  0.00  0.00    +0.092 A 
ATOM     24  C   UNL     1      -3.128  -3.755  -4.866  0.00  0.00    +0.138 A 
ATOM     25  C   UNL     1      -2.461  -3.897  -3.638  0.00  0.00    +0.102 A 
BRANCH  25  26
ATOM     26  C   UNL     1      -3.226  -4.154  -2.407  0.00  0.00    +0.343 C 
ATOM     27  O   UNL     1      -3.629  -3.223  -1.737  0.00  0.00    -0.245 OA
BRANCH  26  28
ATOM     28  O   UNL     1      -3.480  -5.420  -2.023  0.00  0.00    -0.464 OA
ATOM     29  C   UNL     1      -4.228  -5.595  -0.818  0.00  0.00    +0.280 C 
ENDBRANCH  26  28
ENDBRANCH  25  26
BRANCH  24  30
ATOM     30  O   UNL     1      -4.479  -3.853  -4.922  0.00  0.00    -0.494 OA
ATOM     31  C   UNL     1      -5.088  -3.703  -6.206  0.00  0.00    +0.277 C 
ENDBRANCH  24  30
BRANCH  22  32
ATOM     32  O   UNL     1      -0.307  -3.187  -7.092  0.00  0.00    -0.495 OA
ATOM     33  C   UNL     1      -1.048  -3.059  -8.307  0.00  0.00    +0.277 C 
ENDBRANCH  22  32
ENDBRANCH   4  20
BRANCH   1  34
ATOM     34  C   UNL     1       1.671  -2.610  -0.122  0.00  0.00    +0.347 C 
ATOM     35  O   UNL     1       1.050  -3.286   0.680  0.00  0.00    -0.248 OA
ATOM     36  O   UNL     1       2.838  -2.330   0.090  0.00  0.00    -0.248 OA
ENDBRANCH   1  34
BRANCH   1  37
ATOM     37  C   UNL     1       0.989  -0.591  -1.424  0.00  0.00    -0.014 C 
ATOM     38  C   UNL     1       0.384  -0.123  -2.750  0.00  0.00    +0.006 C 
BRANCH  37  40
ATOM     39  C   UNL     1       0.249   1.479  -0.236  0.00  0.00    +0.004 C 
ATOM     40  C   UNL     1       0.153  -0.048  -0.263  0.00  0.00    -0.001 C 
ENDBRANCH  37  40
ENDBRANCH   1  37
TORSDOF 9
