REMARK  Name = ZINC20584656
REMARK  9 active torsions:
REMARK  status: ('A' for Active; 'I' for Inactive)
REMARK    1  A    between atoms: C_1  and  C_2
REMARK    2  A    between atoms: C_2  and  C_3
REMARK    3  A    between atoms: C_8  and  N_9
REMARK    4  A    between atoms: C_11  and  C_16
REMARK    5  A    between atoms: C_22  and  C_24
REMARK    6  A    between atoms: C_24  and  S_25
REMARK    7  A    between atoms: S_25  and  C_26
REMARK    8  A    between atoms: C_26  and  C_27
REMARK    9  A    between atoms: C_30  and  N_33
REMARK                            x       y       z     vdW  Elec       q    Type
REMARK                         _______ _______ _______ _____ _____    ______ ____
ROOT
ATOM      1  C   UNL     1      -0.310   2.540  -5.529  0.00  0.00    +0.109 A 
ATOM      2  N   UNL     1       0.619   2.993  -6.348  0.00  0.00    -0.144 NA
ATOM      3  N   UNL     1       0.303   3.507  -7.457  0.00  0.00    -0.126 NA
ATOM      4  C   UNL     1      -0.956   3.615  -7.845  0.00  0.00    +0.188 A 
ATOM      5  S   UNL     1      -1.777   2.901  -6.487  0.00  0.00    -0.035 S 
ATOM      6  N   UNL     1      -1.481   4.146  -9.018  0.00  0.00    -0.263 N 
ATOM      7  C   UNL     1      -0.656   4.650  -9.957  0.00  0.00    +0.229 C 
ATOM      8  O   UNL     1       0.544   4.640  -9.779  0.00  0.00    -0.275 OA
ATOM      9  H   UNL     1      -2.569   4.155  -9.180  0.00  0.00    +0.157 HD
ENDROOT
BRANCH   1  12
ATOM     10  N   UNL     1       1.447   1.851  -2.407  0.00  0.00    -0.270 N 
ATOM     11  C   UNL     1       0.652   2.781  -3.218  0.00  0.00    +0.124 C 
ATOM     12  C   UNL     1      -0.173   1.895  -4.174  0.00  0.00    +0.073 C 
ATOM     13  C   UNL     1       0.696   0.619  -4.254  0.00  0.00    +0.108 C 
ATOM     14  C   UNL     1       1.490   0.630  -2.966  0.00  0.00    +0.220 C 
ATOM     15  O   UNL     1       2.080  -0.325  -2.506  0.00  0.00    -0.275 OA
BRANCH  10  21
ATOM     16  C   UNL     1       1.395   2.047  -0.000  0.00  0.00    -0.026 A 
ATOM     17  C   UNL     1       2.019   2.378   1.187  0.00  0.00    +0.005 A 
ATOM     18  C   UNL     1       3.317   2.856   1.178  0.00  0.00    +0.000 A 
ATOM     19  C   UNL     1       3.994   3.004  -0.019  0.00  0.00    +0.002 A 
ATOM     20  C   UNL     1       3.376   2.675  -1.209  0.00  0.00    +0.024 A 
ATOM     21  C   UNL     1       2.074   2.191  -1.203  0.00  0.00    +0.039 A 
BRANCH  16  23
ATOM     22  C   UNL     1       0.002  -0.004   0.002  0.00  0.00    +0.009 C 
ATOM     23  C   UNL     1      -0.019   1.526   0.010  0.00  0.00    +0.033 C 
ENDBRANCH  16  23
ENDBRANCH  10  21
ENDBRANCH   1  12
BRANCH   7  24
ATOM     24  C   UNL     1      -1.224   5.226 -11.229  0.00  0.00    +0.165 C 
BRANCH  24  25
ATOM     25  S   UNL     1       0.129   5.818 -12.282  0.00  0.00    -0.147 S 
BRANCH  25  26
ATOM     26  C   UNL     1      -0.712   6.471 -13.750  0.00  0.00    +0.104 C 
BRANCH  26  27
ATOM     27  C   UNL     1       0.312   7.003 -14.720  0.00  0.00    -0.037 A 
ATOM     28  C   UNL     1       0.709   8.325 -14.651  0.00  0.00    +0.006 A 
ATOM     29  C   UNL     1       1.651   8.811 -15.538  0.00  0.00    +0.033 A 
ATOM     30  C   UNL     1       2.189   7.978 -16.500  0.00  0.00    +0.126 A 
ATOM     31  C   UNL     1       1.788   6.657 -16.573  0.00  0.00    +0.033 A 
ATOM     32  C   UNL     1       0.850   6.169 -15.683  0.00  0.00    +0.006 A 
BRANCH  30  33
ATOM     33  N   UNL     1       3.195   8.499 -17.453  0.00  0.00    +0.056 N 
ATOM     34  O   UNL     1       3.670   7.765 -18.301  0.00  0.00    -0.126 OA
ATOM     35  O   UNL     1       3.549   9.663 -17.388  0.00  0.00    -0.126 OA
ENDBRANCH  30  33
ENDBRANCH  26  27
ENDBRANCH  25  26
ENDBRANCH  24  25
ENDBRANCH   7  24
TORSDOF 8
