REMARK  Name = ZINC13643683
REMARK  8 active torsions:
REMARK  status: ('A' for Active; 'I' for Inactive)
REMARK    1  A    between atoms: C_1  and  N_2
REMARK    2  A    between atoms: N_2  and  C_3
REMARK    3  A    between atoms: N_2  and  C_4
REMARK    4  A    between atoms: C_7  and  C_10
REMARK    5  A    between atoms: C_20  and  O_28
REMARK    6  A    between atoms: C_23  and  O_26
REMARK    7  A    between atoms: O_26  and  C_27
REMARK    8  A    between atoms: O_28  and  C_29
REMARK                            x       y       z     vdW  Elec       q    Type
REMARK                         _______ _______ _______ _____ _____    ______ ____
ROOT
ATOM      1  C   UNL     1       0.333  -4.691  -1.584  0.00  0.00    +0.105 C 
ATOM      2  C   UNL     1       0.169  -4.909  -0.078  0.00  0.00    +0.029 C 
ATOM      3  C   UNL     1      -1.004  -5.908   0.133  0.00  0.00    +0.033 C 
ATOM      4  C   UNL     1      -2.238  -5.032   0.042  0.00  0.00    -0.030 C 
ATOM      5  C   UNL     1      -1.935  -3.771   0.289  0.00  0.00    -0.022 C 
ATOM      6  C   UNL     1      -0.451  -3.640   0.546  0.00  0.00    +0.052 C 
ATOM      7  C   UNL     1       0.088  -2.393  -0.091  0.00  0.00    +0.026 A 
ATOM      8  C   UNL     1      -0.247  -1.167   0.484  0.00  0.00    +0.126 A 
ATOM      9  C   UNL     1       0.218   0.017  -0.059  0.00  0.00    +0.049 A 
ATOM     10  C   UNL     1       1.019  -0.007  -1.187  0.00  0.00    +0.051 A 
ATOM     11  C   UNL     1       1.353  -1.216  -1.766  0.00  0.00    +0.141 A 
ATOM     12  C   UNL     1       0.886  -2.416  -1.219  0.00  0.00    +0.077 A 
ATOM     13  N   UNL     1       1.260  -3.609  -1.842  0.00  0.00    -0.334 N 
ATOM     14  H   UNL     1       1.411  -3.470  -2.830  0.00  0.00    +0.147 HD
ENDROOT
BRANCH   1  18
ATOM     15  C   UNL     1      -3.441  -3.640  -3.293  0.00  0.00    +0.029 A 
ATOM     16  C   UNL     1      -2.496  -2.655  -3.034  0.00  0.00    +0.023 A 
ATOM     17  C   UNL     1      -1.277  -2.998  -2.482  0.00  0.00    +0.007 A 
ATOM     18  C   UNL     1      -0.998  -4.320  -2.187  0.00  0.00    -0.027 A 
ATOM     19  C   UNL     1      -1.934  -5.303  -2.449  0.00  0.00    +0.007 A 
ATOM     20  C   UNL     1      -3.157  -4.966  -2.996  0.00  0.00    +0.023 A 
BRANCH  15  22
ATOM     21  C   UNL     1      -4.972  -1.896  -4.165  0.00  0.00    +0.129 C 
ATOM     22  N   UNL     1      -4.674  -3.296  -3.852  0.00  0.00    -0.336 N 
ATOM     23  C   UNL     1      -5.670  -4.336  -4.125  0.00  0.00    +0.129 C 
ENDBRANCH  15  22
ENDBRANCH   1  18
BRANCH  11  24
ATOM     24  O   UNL     1       2.141  -1.240  -2.875  0.00  0.00    -0.493 OA
ATOM     25  C   UNL     1       2.584   0.020  -3.384  0.00  0.00    +0.277 C 
ENDBRANCH  11  24
BRANCH   8  26
ATOM     26  O   UNL     1      -1.034  -1.137   1.593  0.00  0.00    -0.495 OA
ATOM     27  C   UNL     1      -1.336   0.149   2.138  0.00  0.00    +0.277 C 
ENDBRANCH   8  26
TORSDOF 4
