REMARK  Name = ZINC09311169
REMARK  7 active torsions:
REMARK  status: ('A' for Active; 'I' for Inactive)
REMARK    1  A    between atoms: C_1  and  C_2
REMARK    2  A    between atoms: C_4  and  N_9
REMARK    3  A    between atoms: C_10  and  C_26
REMARK    4  A    between atoms: C_12  and  C_15
REMARK    5  A    between atoms: C_13  and  C_14
REMARK    6  A    between atoms: N_16  and  C_17
REMARK    7  A    between atoms: C_21  and  N_23
REMARK                            x       y       z     vdW  Elec       q    Type
REMARK                         _______ _______ _______ _____ _____    ______ ____
ROOT
ATOM      1  N   UNL     1       0.209   9.450   0.377  0.00  0.00    -0.317 N 
ATOM      2  C   UNL     1       1.184   9.489   1.333  0.00  0.00    +0.022 A 
ATOM      3  C   UNL     1       1.535   8.232   1.656  0.00  0.00    +0.032 A 
ATOM      4  C   UNL     1       0.710   7.342   0.831  0.00  0.00    +0.014 A 
ATOM      5  C   UNL     1      -0.085   8.165   0.059  0.00  0.00    +0.030 A 
ATOM      6  C   UNL     1      -1.103   7.714  -0.956  0.00  0.00    +0.064 C 
ATOM      7  C   UNL     1       1.772  10.741   1.931  0.00  0.00    +0.064 C 
ENDROOT
BRANCH   1  11
ATOM      8  C   UNL     1      -2.607  13.453   0.863  0.00  0.00    +0.045 C 
ATOM      9  C   UNL     1      -1.767  12.533   0.016  0.00  0.00    -0.035 A 
ATOM     10  C   UNL     1      -1.176  11.421   0.583  0.00  0.00    +0.030 A 
ATOM     11  C   UNL     1      -0.397  10.577  -0.197  0.00  0.00    +0.047 A 
ATOM     12  C   UNL     1      -0.223  10.847  -1.548  0.00  0.00    +0.027 A 
ATOM     13  C   UNL     1      -0.821  11.957  -2.111  0.00  0.00    +0.016 A 
ATOM     14  C   UNL     1      -1.593  12.800  -1.330  0.00  0.00    +0.016 A 
ATOM     15  I   UNL     1      -2.498  14.483  -2.188  0.00  0.00    -0.044 I 
ENDBRANCH   1  11
BRANCH   4  16
ATOM     16  C   UNL     1       0.729   5.873   0.824  0.00  0.00    +0.121 C 
ATOM     17  N   UNL     1      -0.069   5.214   0.029  0.00  0.00    -0.255 NA
BRANCH  17  18
ATOM     18  C   UNL     1      -0.050   3.845   0.023  0.00  0.00    +0.066 A 
ATOM     19  C   UNL     1       1.167   3.160   0.007  0.00  0.00    +0.028 A 
ATOM     20  C   UNL     1       1.178   1.781   0.000  0.00  0.00    +0.004 A 
ATOM     21  C   UNL     1      -0.013   1.076   0.008  0.00  0.00    +0.033 A 
ATOM     22  C   UNL     1      -1.222   1.748   0.017  0.00  0.00    +0.128 A 
ATOM     23  C   UNL     1      -1.248   3.127   0.031  0.00  0.00    +0.060 A 
BRANCH  22  24
ATOM     24  N   UNL     1      -2.490   0.985   0.019  0.00  0.00    +0.056 N 
ATOM     25  O   UNL     1      -2.469  -0.232   0.013  0.00  0.00    -0.126 OA
ATOM     26  O   UNL     1      -3.556   1.576   0.028  0.00  0.00    -0.126 OA
ENDBRANCH  22  24
ENDBRANCH  17  18
ENDBRANCH   4  16
TORSDOF 4
