REMARK  Name = ZINC39328079
REMARK  11 active torsions:
REMARK  status: ('A' for Active; 'I' for Inactive)
REMARK    1  A    between atoms: C_1  and  C_2
REMARK    2  A    between atoms: C_2  and  C_3
REMARK    3  A    between atoms: C_2  and  C_4
REMARK    4  A    between atoms: C_7  and  C_10
REMARK    5  A    between atoms: C_11  and  C_32
REMARK    6  A    between atoms: C_12  and  N_31
REMARK    7  A    between atoms: C_14  and  S_18
REMARK    8  A    between atoms: C_15  and  C_16
REMARK    9  A    between atoms: S_18  and  C_19
REMARK   10  A    between atoms: C_19  and  C_20
REMARK   11  A    between atoms: N_22  and  C_23
REMARK                            x       y       z     vdW  Elec       q    Type
REMARK                         _______ _______ _______ _____ _____    ______ ____
ROOT
ATOM      1  C   UNL     1      -5.392  -2.012   0.031  0.00  0.00    +0.023 A 
ATOM      2  C   UNL     1      -5.824  -2.917   1.021  0.00  0.00    +0.100 A 
ATOM      3  C   UNL     1      -7.153  -3.377   0.991  0.00  0.00    +0.136 A 
ATOM      4  N   UNL     1      -7.992  -2.972   0.051  0.00  0.00    -0.224 NA
ATOM      5  C   UNL     1      -7.631  -2.123  -0.898  0.00  0.00    +0.117 A 
ATOM      6  C   UNL     1      -6.322  -1.605  -0.945  0.00  0.00    +0.093 A 
ENDROOT
BRANCH   1  10
ATOM      7  C   UNL     1      -1.407  -0.541   0.003  0.00  0.00    -0.045 A 
ATOM      8  C   UNL     1      -2.250  -0.225   1.053  0.00  0.00    +0.004 A 
ATOM      9  C   UNL     1      -3.545  -0.699   1.068  0.00  0.00    +0.009 A 
ATOM     10  C   UNL     1      -4.004  -1.499   0.021  0.00  0.00    -0.015 A 
ATOM     11  C   UNL     1      -3.149  -1.814  -1.035  0.00  0.00    +0.009 A 
ATOM     12  C   UNL     1      -1.857  -1.329  -1.041  0.00  0.00    +0.004 A 
BRANCH   7  14
ATOM     13  C   UNL     1      -0.014   1.511   0.012  0.00  0.00    +0.012 C 
ATOM     14  C   UNL     1       0.007  -0.019  -0.007  0.00  0.00    +0.013 C 
ATOM     15  C   UNL     1       0.750  -0.534   1.227  0.00  0.00    +0.012 C 
ENDBRANCH   7  14
ENDBRANCH   1  10
BRANCH   3  16
ATOM     16  N   UNL     1      -7.588  -4.264   1.956  0.00  0.00    -0.342 N 
ATOM     17  H   UNL     1      -6.979  -4.566   2.648  0.00  0.00    +0.144 HD
ATOM     18  H   UNL     1      -8.504  -4.586   1.942  0.00  0.00    +0.144 HD
ENDBRANCH   3  16
BRANCH   6  19
ATOM     19  C   UNL     1      -5.942  -0.683  -1.972  0.00  0.00    +0.102 C 
ATOM     20  N   UNL     1      -5.640   0.049  -2.788  0.00  0.00    -0.191 NA
ENDBRANCH   6  19
BRANCH   2  21
ATOM     21  C   UNL     1      -4.924  -3.362   2.042  0.00  0.00    +0.103 C 
ATOM     22  N   UNL     1      -4.209  -3.715   2.852  0.00  0.00    -0.191 NA
ENDBRANCH   2  21
BRANCH   5  23
ATOM     23  S   UNL     1      -8.804  -1.631  -2.117  0.00  0.00    -0.095 S 
BRANCH  23  24
ATOM     24  C   UNL     1     -10.314  -2.526  -1.659  0.00  0.00    +0.172 C 
BRANCH  24  25
ATOM     25  C   UNL     1     -11.413  -2.190  -2.634  0.00  0.00    +0.227 C 
ATOM     26  O   UNL     1     -11.198  -1.422  -3.548  0.00  0.00    -0.275 OA
ATOM     27  N   UNL     1     -12.633  -2.743  -2.491  0.00  0.00    -0.285 N 
ATOM     28  H   UNL     1     -12.787  -3.408  -1.802  0.00  0.00    +0.155 HD
BRANCH  27  29
ATOM     29  C   UNL     1     -13.680  -2.358  -3.337  0.00  0.00    +0.036 A 
ATOM     30  C   UNL     1     -14.977  -2.283  -2.848  0.00  0.00    +0.043 A 
ATOM     31  C   UNL     1     -16.009  -1.902  -3.686  0.00  0.00    +0.044 A 
ATOM     32  C   UNL     1     -15.749  -1.595  -5.010  0.00  0.00    +0.040 A 
ATOM     33  C   UNL     1     -14.457  -1.669  -5.499  0.00  0.00    +0.044 A 
ATOM     34  C   UNL     1     -13.421  -2.044  -4.665  0.00  0.00    +0.043 A 
ATOM     35 CL   UNL     1     -14.136  -1.284  -7.161  0.00  0.00    -0.083 Cl
ATOM     36 CL   UNL     1     -17.631  -1.808  -3.076  0.00  0.00    -0.083 Cl
ENDBRANCH  27  29
ENDBRANCH  24  25
ENDBRANCH  23  24
ENDBRANCH   5  23
TORSDOF 9
