REMARK  Name = ZINC50330733
REMARK  7 active torsions:
REMARK  status: ('A' for Active; 'I' for Inactive)
REMARK    1  A    between atoms: C_1  and  C_2
REMARK    2  A    between atoms: C_2  and  N_3
REMARK    3  A    between atoms: N_3  and  C_4
REMARK    4  A    between atoms: C_12  and  C_14
REMARK    5  A    between atoms: C_17  and  O_22
REMARK    6  A    between atoms: C_18  and  O_20
REMARK    7  A    between atoms: O_20  and  C_21
REMARK                            x       y       z     vdW  Elec       q    Type
REMARK                         _______ _______ _______ _____ _____    ______ ____
ROOT
ATOM      1  C   UNL     1      -1.242  -1.975   0.042  0.00  0.00    -0.032 C 
ATOM      2  C   UNL     1      -2.634  -2.623   0.095  0.00  0.00    -0.010 C 
ATOM      3  C   UNL     1      -2.491  -4.117  -0.205  0.00  0.00    +0.005 C 
ATOM      4  C   UNL     1      -2.130  -4.327  -1.676  0.00  0.00    +0.056 C 
ATOM      5  C   UNL     1      -0.902  -3.482  -2.006  0.00  0.00    +0.051 A 
ATOM      6  C   UNL     1      -0.554  -2.442  -1.196  0.00  0.00    -0.001 A 
ATOM      7  S   UNL     1       0.899  -1.798  -1.984  0.00  0.00    -0.074 S 
ATOM      8  C   UNL     1       0.932  -2.968  -3.338  0.00  0.00    +0.109 A 
ATOM      9  N   UNL     1      -0.133  -3.708  -3.064  0.00  0.00    -0.244 NA
ENDROOT
BRANCH   8  10
ATOM     10  C   UNL     1       1.887  -3.079  -4.461  0.00  0.00    +0.011 A 
ATOM     11  C   UNL     1       2.956  -2.187  -4.560  0.00  0.00    +0.014 A 
ATOM     12  C   UNL     1       3.847  -2.291  -5.607  0.00  0.00    +0.050 A 
ATOM     13  C   UNL     1       3.683  -3.281  -6.565  0.00  0.00    +0.158 A 
ATOM     14  C   UNL     1       2.619  -4.175  -6.472  0.00  0.00    +0.162 A 
ATOM     15  C   UNL     1       1.726  -4.079  -5.421  0.00  0.00    +0.060 A 
BRANCH  14  16
ATOM     16  O   UNL     1       2.461  -5.144  -7.412  0.00  0.00    -0.491 OA
ATOM     17  C   UNL     1       1.347  -6.026  -7.255  0.00  0.00    +0.277 C 
ENDBRANCH  14  16
BRANCH  13  18
ATOM     18  O   UNL     1       4.563  -3.380  -7.596  0.00  0.00    -0.503 OA
ATOM     19  H   UNL     1       5.319  -3.955  -7.415  0.00  0.00    +0.292 HD
ENDBRANCH  13  18
ENDBRANCH   8  10
BRANCH   1  20
ATOM     20  N   UNL     1      -1.376  -0.512   0.012  0.00  0.00    +0.384 N 
ATOM     21  H   UNL     1      -1.995  -0.247  -0.739  0.00  0.00    -0.085 HD
ATOM     22  H   UNL     1      -0.470  -0.094  -0.135  0.00  0.00    -0.085 HD
BRANCH  20  24
ATOM     23  C   UNL     1      -1.949   1.484   1.310  0.00  0.00    -0.017 C 
ATOM     24  C   UNL     1      -1.929  -0.046   1.291  0.00  0.00    -0.085 C 
ENDBRANCH  20  24
ENDBRANCH   1  20
TORSDOF 5
