REMARK  Name = ZINC03421449
REMARK  7 active torsions:
REMARK  status: ('A' for Active; 'I' for Inactive)
REMARK    1  A    between atoms: C_1  and  C_2
REMARK    2  A    between atoms: C_10  and  C_11
REMARK    3  A    between atoms: C_11  and  C_12
REMARK    4  A    between atoms: C_12  and  O_14
REMARK    5  A    between atoms: O_14  and  C_15
REMARK    6  A    between atoms: C_15  and  C_16
REMARK    7  A    between atoms: N_18  and  C_19
REMARK                            x       y       z     vdW  Elec       q    Type
REMARK                         _______ _______ _______ _____ _____    ______ ____
ROOT
ATOM      1  C   UNL     1      -0.390   1.342  -4.851  0.00  0.00    +0.255 C 
ATOM      2  O   UNL     1       0.614   0.663  -4.816  0.00  0.00    -0.272 OA
ATOM      3  N   UNL     1      -0.920   1.702  -6.037  0.00  0.00    -0.283 N 
ATOM      4  H   UNL     1      -1.759   2.187  -6.066  0.00  0.00    +0.155 HD
ENDROOT
BRANCH   3   5
ATOM      5  C   UNL     1      -0.258   1.374  -7.228  0.00  0.00    +0.036 A 
ATOM      6  C   UNL     1      -0.305   2.246  -8.310  0.00  0.00    +0.025 A 
ATOM      7  C   UNL     1       0.350   1.931  -9.484  0.00  0.00    +0.029 A 
ATOM      8  C   UNL     1       1.047   0.737  -9.589  0.00  0.00    +0.067 A 
ATOM      9  C   UNL     1       1.091  -0.143  -8.506  0.00  0.00    +0.069 A 
ATOM     10  C   UNL     1       0.437   0.178  -7.327  0.00  0.00    +0.051 A 
ATOM     11  N   UNL     1       1.854  -1.237  -8.907  0.00  0.00    -0.306 N 
ATOM     12  H   UNL     1       2.060  -2.014  -8.364  0.00  0.00    +0.170 HD
ATOM     13  C   UNL     1       2.256  -1.033 -10.175  0.00  0.00    +0.325 A 
ATOM     14  O   UNL     1       2.941  -1.800 -10.826  0.00  0.00    -0.247 OA
ATOM     15  N   UNL     1       1.785   0.149 -10.616  0.00  0.00    -0.306 N 
ATOM     16  H   UNL     1       1.934   0.527 -11.496  0.00  0.00    +0.170 HD
ENDBRANCH   3   5
BRANCH   1  17
ATOM     17  C   UNL     1      -1.046   1.783  -3.568  0.00  0.00    +0.328 C 
BRANCH  17  18
ATOM     18  O   UNL     1      -0.292   1.272  -2.438  0.00  0.00    -0.455 OA
BRANCH  18  19
ATOM     19  C   UNL     1      -0.747   1.578  -1.213  0.00  0.00    +0.312 C 
ATOM     20  O   UNL     1      -1.743   2.251  -1.089  0.00  0.00    -0.250 OA
BRANCH  19  21
ATOM     21  C   UNL     1      -0.017   1.082   0.008  0.00  0.00    +0.159 C 
BRANCH  21  31
ATOM     22  C   UNL     1      -5.088  -0.131   4.510  0.00  0.00    +0.044 C 
ATOM     23  C   UNL     1      -3.950   0.246   3.597  0.00  0.00    -0.047 A 
ATOM     24  C   UNL     1      -3.649  -0.557   2.507  0.00  0.00    +0.004 A 
ATOM     25  C   UNL     1      -2.619  -0.230   1.669  0.00  0.00    +0.012 A 
ATOM     26  C   UNL     1      -1.867   0.919   1.913  0.00  0.00    +0.024 A 
ATOM     27  C   UNL     1      -2.167   1.736   3.016  0.00  0.00    +0.135 A 
ATOM     28  C   UNL     1      -3.218   1.385   3.855  0.00  0.00    +0.050 A 
ATOM     29  O   UNL     1      -1.291   2.761   3.005  0.00  0.00    -0.463 OA
ATOM     30  C   UNL     1      -0.442   2.654   1.968  0.00  0.00    +0.200 A 
ATOM     31  C   UNL     1      -0.727   1.560   1.248  0.00  0.00    +0.009 A 
ENDBRANCH  21  31
ENDBRANCH  19  21
ENDBRANCH  18  19
ENDBRANCH  17  18
ENDBRANCH   1  17
TORSDOF 6
