REMARK  Name = ZINC09489372
REMARK  10 active torsions:
REMARK  status: ('A' for Active; 'I' for Inactive)
REMARK    1  A    between atoms: C_1  and  C_2
REMARK    2  A    between atoms: C_3  and  C_24
REMARK    3  A    between atoms: C_4  and  C_17
REMARK    4  A    between atoms: N_8  and  C_15
REMARK    5  A    between atoms: N_11  and  C_14
REMARK    6  A    between atoms: C_24  and  O_26
REMARK    7  A    between atoms: O_26  and  C_27
REMARK    8  A    between atoms: C_27  and  C_28
REMARK    9  A    between atoms: C_28  and  C_29
REMARK   10  A    between atoms: C_28  and  C_30
REMARK                            x       y       z     vdW  Elec       q    Type
REMARK                         _______ _______ _______ _____ _____    ______ ____
ROOT
ATOM      1  C   UNL     1       1.262  -4.549  -1.354  0.00  0.00    +0.061 C 
ATOM      2  C   UNL     1       1.832  -3.651  -2.422  0.00  0.00    +0.017 C 
ATOM      3  C   UNL     1       1.580  -2.332  -2.381  0.00  0.00    +0.065 C 
ATOM      4  C   UNL     1       2.135  -1.391  -3.411  0.00  0.00    +0.096 C 
ATOM      5  C   UNL     1       2.609  -2.141  -4.623  0.00  0.00    +0.067 A 
ATOM      6  C   UNL     1       2.818  -3.487  -4.580  0.00  0.00    +0.116 A 
ATOM      7  N   UNL     1       3.258  -4.141  -5.707  0.00  0.00    -0.284 N 
ATOM      8  C   UNL     1       3.476  -3.459  -6.846  0.00  0.00    +0.333 A 
ATOM      9  O   UNL     1       3.865  -4.053  -7.834  0.00  0.00    -0.246 OA
ATOM     10  N   UNL     1       3.271  -2.131  -6.909  0.00  0.00    -0.264 N 
ATOM     11  C   UNL     1       2.842  -1.452  -5.827  0.00  0.00    +0.262 A 
ATOM     12  O   UNL     1       2.658  -0.249  -5.891  0.00  0.00    -0.267 OA
ATOM     13  C   UNL     1       3.516  -1.417  -8.165  0.00  0.00    +0.157 C 
ATOM     14  C   UNL     1       3.490  -5.586  -5.666  0.00  0.00    +0.155 C 
ATOM     15  N   UNL     1       2.593  -4.191  -3.422  0.00  0.00    -0.303 N 
ATOM     16  H   UNL     1       2.978  -5.074  -3.311  0.00  0.00    +0.153 HD
ENDROOT
BRANCH   4  17
ATOM     17  C   UNL     1       3.292  -0.631  -2.815  0.00  0.00    -0.035 A 
ATOM     18  C   UNL     1       4.398  -1.314  -2.344  0.00  0.00    +0.005 A 
ATOM     19  C   UNL     1       5.462  -0.618  -1.802  0.00  0.00    +0.015 A 
ATOM     20  C   UNL     1       5.416   0.762  -1.722  0.00  0.00    +0.018 A 
ATOM     21  C   UNL     1       4.307   1.445  -2.189  0.00  0.00    +0.015 A 
ATOM     22  C   UNL     1       3.246   0.748  -2.735  0.00  0.00    +0.005 A 
ATOM     23 BR   UNL     1       6.867   1.716  -0.973  0.00  0.00    -0.050 Br
ENDBRANCH   4  17
BRANCH   3  24
ATOM     24  C   UNL     1       0.777  -1.816  -1.338  0.00  0.00    +0.338 C 
ATOM     25  O   UNL     1      -0.400  -1.579  -1.536  0.00  0.00    -0.245 OA
BRANCH  24  26
ATOM     26  O   UNL     1       1.316  -1.585  -0.122  0.00  0.00    -0.461 OA
BRANCH  26  27
ATOM     27  C   UNL     1       0.446  -1.063   0.885  0.00  0.00    +0.235 C 
BRANCH  27  28
ATOM     28  C   UNL     1       1.230  -0.869   2.184  0.00  0.00    +0.020 C 
ATOM     29  C   UNL     1       2.301   0.204   1.979  0.00  0.00    +0.010 C 
ATOM     30  C   UNL     1       0.274  -0.429   3.295  0.00  0.00    +0.010 C 
ENDBRANCH  27  28
ENDBRANCH  26  27
ENDBRANCH  24  26
ENDBRANCH   3  24
TORSDOF 5
