REMARK  Name = ZINC12864652
REMARK  7 active torsions:
REMARK  status: ('A' for Active; 'I' for Inactive)
REMARK    1  A    between atoms: C_1  and  C_2
REMARK    2  A    between atoms: C_4  and  C_27
REMARK    3  A    between atoms: C_5  and  C_26
REMARK    4  A    between atoms: C_6  and  S_9
REMARK    5  A    between atoms: C_7  and  C_8
REMARK    6  A    between atoms: S_9  and  N_12
REMARK    7  A    between atoms: C_14  and  C_23
REMARK                            x       y       z     vdW  Elec       q    Type
REMARK                         _______ _______ _______ _____ _____    ______ ____
ROOT
ATOM      1  N   UNL     1      -2.271   3.854   0.285  0.00  0.00    -0.195 N 
ATOM      2  C   UNL     1      -2.192   5.292   0.594  0.00  0.00    +0.185 C 
ATOM      3  C   UNL     1      -0.905   5.834  -0.044  0.00  0.00    +0.277 C 
ATOM      4  O   UNL     1       0.210   5.106   0.477  0.00  0.00    -0.476 OA
ATOM      5  C   UNL     1       0.139   3.749   0.471  0.00  0.00    +0.144 A 
ATOM      6  C   UNL     1      -1.090   3.100   0.381  0.00  0.00    +0.093 A 
ATOM      7  C   UNL     1      -1.149   1.716   0.380  0.00  0.00    +0.028 A 
ATOM      8  C   UNL     1       0.017   0.977   0.478  0.00  0.00    +0.002 A 
ATOM      9  C   UNL     1       1.238   1.619   0.565  0.00  0.00    +0.004 A 
ATOM     10  C   UNL     1       1.302   3.000   0.561  0.00  0.00    +0.047 A 
ENDROOT
BRANCH   3  11
ATOM     11  C   UNL     1      -0.753   7.296   0.288  0.00  0.00    +0.253 C 
ATOM     12  O   UNL     1       0.173   7.669   0.977  0.00  0.00    -0.272 OA
ATOM     13  N   UNL     1      -1.647   8.190  -0.180  0.00  0.00    -0.326 N 
ATOM     14  H   UNL     1      -2.388   7.891  -0.731  0.00  0.00    +0.145 HD
ATOM     15  H   UNL     1      -1.550   9.131   0.033  0.00  0.00    +0.145 HD
ENDBRANCH   3  11
BRANCH   1  16
ATOM     16  S   UNL     1      -3.702   3.151  -0.163  0.00  0.00    +0.075 S 
ATOM     17  O   UNL     1      -4.589   4.211  -0.491  0.00  0.00    -0.150 OA
ATOM     18  O   UNL     1      -3.377   2.117  -1.081  0.00  0.00    -0.150 OA
BRANCH  16  24
ATOM     19  C   UNL     1      -5.135  -1.130   2.471  0.00  0.00    +0.044 C 
ATOM     20  C   UNL     1      -5.005   0.371   2.429  0.00  0.00    -0.045 A 
ATOM     21  C   UNL     1      -5.407   1.130   3.511  0.00  0.00    +0.007 A 
ATOM     22  C   UNL     1      -5.288   2.507   3.473  0.00  0.00    -0.045 A 
ATOM     23  C   UNL     1      -4.767   3.124   2.351  0.00  0.00    -0.021 A 
ATOM     24  C   UNL     1      -4.365   2.365   1.268  0.00  0.00    +0.115 A 
ATOM     25  C   UNL     1      -4.489   0.988   1.304  0.00  0.00    -0.021 A 
ATOM     26  C   UNL     1      -4.057   0.161   0.121  0.00  0.00    +0.046 C 
ATOM     27  C   UNL     1      -4.638   4.625   2.308  0.00  0.00    +0.046 C 
ATOM     28  C   UNL     1      -5.726   3.335   4.653  0.00  0.00    +0.044 C 
ENDBRANCH  16  24
ENDBRANCH   1  16
TORSDOF 3
