REMARK  Name = ZINC03228913
REMARK  3 active torsions:
REMARK  status: ('A' for Active; 'I' for Inactive)
REMARK    1  A    between atoms: C_1  and  C_2
REMARK    2  A    between atoms: C_14  and  C_17
REMARK    3  A    between atoms: C_18  and  C_19
REMARK                            x       y       z     vdW  Elec       q    Type
REMARK                         _______ _______ _______ _____ _____    ______ ____
ROOT
ATOM      1  C   UNL     1       1.388   2.087   1.285  0.00  0.00    +0.008 C 
ATOM      2  C   UNL     1       0.303   2.245   0.218  0.00  0.00    -0.009 C 
ATOM      3  C   UNL     1       0.784   1.629  -1.099  0.00  0.00    +0.008 C 
ATOM      4  C   UNL     1      -0.182   1.997  -2.227  0.00  0.00    +0.037 C 
ATOM      5  C   UNL     1      -1.598   1.626  -1.802  0.00  0.00    -0.023 A 
ATOM      6  C   UNL     1      -1.899   1.421  -0.500  0.00  0.00    -0.004 A 
ATOM      7  S   UNL     1      -3.626   1.020  -0.487  0.00  0.00    -0.078 S 
ATOM      8  C   UNL     1      -3.938   1.123  -2.167  0.00  0.00    +0.080 A 
ATOM      9  C   UNL     1      -2.703   1.472  -2.735  0.00  0.00    +0.068 A 
ATOM     10  C   UNL     1      -2.647   1.635  -4.205  0.00  0.00    +0.248 C 
ATOM     11  O   UNL     1      -1.591   1.814  -4.784  0.00  0.00    -0.270 OA
ATOM     12  N   UNL     1      -3.816   1.576  -4.878  0.00  0.00    -0.289 N 
ATOM     13  C   UNL     1      -5.122   1.596  -4.227  0.00  0.00    +0.197 C 
ATOM     14  N   UNL     1      -5.073   0.932  -2.912  0.00  0.00    -0.316 N 
ATOM     15  C   UNL     1      -0.969   1.515   0.669  0.00  0.00    +0.046 C 
ATOM     16  H   UNL     1      -3.786   1.517  -5.846  0.00  0.00    +0.151 HD
ATOM     17  H   UNL     1      -5.808   0.386  -2.589  0.00  0.00    +0.149 HD
ENDROOT
BRANCH  13  18
ATOM     18  C   UNL     1      -5.559   3.026  -4.041  0.00  0.00    +0.034 C 
ATOM     19  C   UNL     1      -6.682   3.455  -4.603  0.00  0.00    +0.022 C 
ATOM     20 BR   UNL     1      -4.507   4.209  -3.006  0.00  0.00    -0.051 Br
BRANCH  19  21
ATOM     21  C   UNL     1      -7.200   4.802  -4.284  0.00  0.00    -0.024 A 
ATOM     22  C   UNL     1      -7.061   5.319  -2.995  0.00  0.00    +0.008 A 
ATOM     23  C   UNL     1      -7.542   6.580  -2.706  0.00  0.00    +0.001 A 
ATOM     24  C   UNL     1      -8.170   7.326  -3.687  0.00  0.00    +0.000 A 
ATOM     25  C   UNL     1      -8.316   6.817  -4.965  0.00  0.00    +0.001 A 
ATOM     26  C   UNL     1      -7.834   5.560  -5.269  0.00  0.00    +0.008 A 
ENDBRANCH  19  21
ENDBRANCH  13  18
TORSDOF 2
