REMARK  Name = ZINC22473145
REMARK  12 active torsions:
REMARK  status: ('A' for Active; 'I' for Inactive)
REMARK    1  A    between atoms: C_1  and  C_2
REMARK    2  A    between atoms: C_2  and  C_3
REMARK    3  A    between atoms: C_3  and  O_4
REMARK    4  A    between atoms: O_4  and  C_5
REMARK    5  A    between atoms: C_9  and  C_11
REMARK    6  A    between atoms: N_13  and  C_14
REMARK    7  A    between atoms: N_13  and  C_29
REMARK    8  A    between atoms: C_14  and  C_15
REMARK    9  A    between atoms: C_15  and  C_16
REMARK   10  A    between atoms: C_16  and  N_17
REMARK   11  A    between atoms: C_20  and  O_21
REMARK   12  A    between atoms: C_29  and  C_30
REMARK                            x       y       z     vdW  Elec       q    Type
REMARK                         _______ _______ _______ _____ _____    ______ ____
ROOT
ATOM      1  C   UNL     1       0.038   5.706  -0.466  0.00  0.00    +0.247 C 
ATOM      2  O   UNL     1      -0.094   4.508  -0.620  0.00  0.00    -0.270 OA
ATOM      3  N   UNL     1       1.217   6.205  -0.045  0.00  0.00    -0.293 N 
ENDROOT
BRANCH   1   8
ATOM      4  C   UNL     1      -3.112   7.129  -1.944  0.00  0.00    +0.121 A 
ATOM      5  C   UNL     1      -3.214   8.329  -1.253  0.00  0.00    +0.046 A 
ATOM      6  C   UNL     1      -2.265   8.670  -0.307  0.00  0.00    +0.004 A 
ATOM      7  C   UNL     1      -1.207   7.823  -0.048  0.00  0.00    +0.013 A 
ATOM      8  C   UNL     1      -1.093   6.617  -0.742  0.00  0.00    +0.040 A 
ATOM      9  C   UNL     1      -2.052   6.274  -1.696  0.00  0.00    +0.058 A 
BRANCH   4  10
ATOM     10  O   UNL     1      -4.051   6.796  -2.869  0.00  0.00    -0.492 OA
BRANCH  10  11
ATOM     11  C   UNL     1      -5.114   7.727  -3.078  0.00  0.00    +0.229 C 
BRANCH  11  13
ATOM     12  C   UNL     1      -7.204   8.181  -4.370  0.00  0.00    +0.007 C 
ATOM     13  C   UNL     1      -6.065   7.184  -4.147  0.00  0.00    +0.038 C 
ENDBRANCH  11  13
ENDBRANCH  10  11
ENDBRANCH   4  10
ENDBRANCH   1   8
BRANCH   3  14
ATOM     14  C   UNL     1       1.338   7.630   0.275  0.00  0.00    +0.110 C 
BRANCH  14  15
ATOM     15  C   UNL     1       1.208   7.826   1.786  0.00  0.00    +0.040 C 
BRANCH  15  16
ATOM     16  C   UNL     1       1.334   9.314   2.120  0.00  0.00    +0.114 C 
BRANCH  16  17
ATOM     17  N   UNL     1       1.210   9.502   3.567  0.00  0.00    -0.384 N 
ATOM     18  C   UNL     1       1.291  10.767   4.107  0.00  0.00    +0.053 A 
ATOM     19  C   UNL     1       1.488  11.864   3.309  0.00  0.00    +0.113 A 
ATOM     20  C   UNL     1       1.567  13.138   3.887  0.00  0.00    +0.286 A 
ATOM     21  O   UNL     1       1.455  13.323   5.212  0.00  0.00    -0.425 OA
ATOM     22  C   UNL     1       1.260  12.290   6.060  0.00  0.00    +0.141 A 
ATOM     23  C   UNL     1       1.163  10.983   5.558  0.00  0.00    +0.041 A 
ATOM     24  C   UNL     1       0.955   9.913   6.430  0.00  0.00    +0.013 A 
ATOM     25  C   UNL     1       0.839  10.149   7.782  0.00  0.00    +0.001 A 
ATOM     26  C   UNL     1       0.928  11.441   8.277  0.00  0.00    +0.004 A 
ATOM     27  C   UNL     1       1.146  12.506   7.427  0.00  0.00    +0.047 A 
ATOM     28  H   UNL     1       1.051   8.634   4.224  0.00  0.00    +0.160 HD
BRANCH  20  29
ATOM     29  O   UNL     1       1.742  14.105   3.167  0.00  0.00    -0.480 OA
ATOM     30  H   UNL     1       1.806  15.112   3.604  0.00  0.00    +0.295 HD
ENDBRANCH  20  29
ENDBRANCH  16  17
ENDBRANCH  15  16
ENDBRANCH  14  15
ENDBRANCH   3  14
BRANCH   3  31
ATOM     31  C   UNL     1       2.378   5.322   0.095  0.00  0.00    +0.143 C 
BRANCH  31  32
ATOM     32  C   UNL     1       3.061   5.176  -1.241  0.00  0.00    -0.030 A 
ATOM     33  C   UNL     1       2.758   4.103  -2.058  0.00  0.00    +0.005 A 
ATOM     34  C   UNL     1       3.381   3.972  -3.286  0.00  0.00    +0.000 A 
ATOM     35  C   UNL     1       4.314   4.908  -3.691  0.00  0.00    +0.000 A 
ATOM     36  C   UNL     1       4.621   5.978  -2.871  0.00  0.00    +0.000 A 
ATOM     37  C   UNL     1       3.995   6.112  -1.646  0.00  0.00    +0.005 A 
ENDBRANCH  31  32
ENDBRANCH   3  31
TORSDOF 11
