REMARK  Name = ZINC59830737
REMARK  8 active torsions:
REMARK  status: ('A' for Active; 'I' for Inactive)
REMARK    1  A    between atoms: C_4  and  C_7
REMARK    2  A    between atoms: C_7  and  C_9
REMARK    3  A    between atoms: C_7  and  N_15
REMARK    4  A    between atoms: N_11  and  C_12
REMARK    5  A    between atoms: N_15  and  C_16
REMARK    6  A    between atoms: C_21  and  C_22
REMARK    7  A    between atoms: C_22  and  O_23
REMARK    8  A    between atoms: O_23  and  C_24
REMARK                            x       y       z     vdW  Elec       q    Type
REMARK                         _______ _______ _______ _____ _____    ______ ____
ROOT
ATOM      1  N   UNL     1       3.630  -1.873   0.845  0.00  0.00    -0.329 N 
ATOM      2  H   UNL     1       3.403  -2.743   0.480  0.00  0.00    +0.147 HD
ENDROOT
BRANCH   1   3
ATOM      3  C   UNL     1       3.880  -1.733   2.212  0.00  0.00    +0.034 A 
ATOM      4  C   UNL     1       4.199  -0.487   2.737  0.00  0.00    +0.023 A 
ATOM      5  C   UNL     1       4.445  -0.352   4.090  0.00  0.00    +0.002 A 
ATOM      6  C   UNL     1       4.373  -1.455   4.921  0.00  0.00    +0.000 A 
ATOM      7  C   UNL     1       4.056  -2.696   4.402  0.00  0.00    +0.009 A 
ATOM      8  C   UNL     1       3.803  -2.838   3.051  0.00  0.00    +0.010 A 
BRANCH   8   9
ATOM      9  C   UNL     1       3.451  -4.190   2.487  0.00  0.00    +0.266 C 
BRANCH   9  10
ATOM     10  O   UNL     1       3.436  -5.156   3.540  0.00  0.00    -0.487 OA
BRANCH  10  11
ATOM     11  C   UNL     1       3.134  -6.436   3.198  0.00  0.00    +0.121 A 
ATOM     12  C   UNL     1       2.863  -6.757   1.876  0.00  0.00    +0.045 A 
ATOM     13  C   UNL     1       2.556  -8.059   1.531  0.00  0.00    +0.004 A 
ATOM     14  C   UNL     1       2.519  -9.042   2.503  0.00  0.00    +0.000 A 
ATOM     15  C   UNL     1       2.788  -8.725   3.821  0.00  0.00    +0.004 A 
ATOM     16  C   UNL     1       3.101  -7.426   4.170  0.00  0.00    +0.045 A 
ENDBRANCH  10  11
ENDBRANCH   9  10
ENDBRANCH   8   9
ENDBRANCH   1   3
BRANCH   1  17
ATOM     17  C   UNL     1       3.711  -0.707  -0.038  0.00  0.00    +0.187 C 
BRANCH  17  21
ATOM     18  C   UNL     1      -0.017   1.378   0.010  0.00  0.00    +0.000 A 
ATOM     19  C   UNL     1       1.171   2.086   0.002  0.00  0.00    +0.000 A 
ATOM     20  C   UNL     1       2.377   1.411  -0.013  0.00  0.00    +0.006 A 
ATOM     21  C   UNL     1       2.396   0.029  -0.020  0.00  0.00    -0.018 A 
ATOM     22  C   UNL     1       1.208  -0.679  -0.012  0.00  0.00    +0.006 A 
ATOM     23  C   UNL     1       0.002  -0.004   0.002  0.00  0.00    +0.000 A 
ENDBRANCH  17  21
BRANCH  17  24
ATOM     24  C   UNL     1       4.014  -1.161  -1.442  0.00  0.00    +0.238 C 
ATOM     25  O   UNL     1       4.150  -2.342  -1.682  0.00  0.00    -0.273 OA
ATOM     26  N   UNL     1       4.136  -0.254  -2.432  0.00  0.00    -0.311 N 
ATOM     27  H   UNL     1       4.027   0.691  -2.240  0.00  0.00    +0.149 HD
BRANCH  26  28
ATOM     28  C   UNL     1       4.430  -0.695  -3.798  0.00  0.00    +0.073 C 
ATOM     29  C   UNL     1       5.477   0.096  -4.585  0.00  0.00    +0.024 C 
ATOM     30  C   UNL     1       3.995   0.220  -4.944  0.00  0.00    +0.024 C 
ENDBRANCH  26  28
ENDBRANCH  17  24
ENDBRANCH   1  17
TORSDOF 8
