REMARK  Name = ZINC63547166
REMARK  7 active torsions:
REMARK  status: ('A' for Active; 'I' for Inactive)
REMARK    1  A    between atoms: C_1  and  C_2
REMARK    2  A    between atoms: C_5  and  C_8
REMARK    3  A    between atoms: C_12  and  C_22
REMARK    4  A    between atoms: C_17  and  C_19
REMARK    5  A    between atoms: N_24  and  C_25
REMARK    6  A    between atoms: C_25  and  C_26
REMARK    7  A    between atoms: C_26  and  C_27
REMARK                            x       y       z     vdW  Elec       q    Type
REMARK                         _______ _______ _______ _____ _____    ______ ____
ROOT
ATOM      1  C   UNL     1       0.059  -4.255  -0.021  0.00  0.00    +0.070 C 
ATOM      2  N   UNL     1       0.067  -4.883  -1.171  0.00  0.00    -0.254 NA
ATOM      3  C   UNL     1       0.083  -6.348  -1.206  0.00  0.00    +0.246 C 
ATOM      4  C   UNL     1      -0.812  -6.876  -2.303  0.00  0.00    +0.073 C 
ATOM      5  H   UNL     1      -1.941  -8.412   0.224  0.00  0.00    +0.170 HD
ATOM      6  C   UNL     1      -1.698  -7.709  -1.718  0.00  0.00    +0.100 C 
ATOM      7  N   UNL     1      -1.502  -7.782  -0.369  0.00  0.00    -0.269 N 
ATOM      8  N   UNL     1      -0.562  -6.821   0.039  0.00  0.00    -0.223 N 
ATOM      9  C   UNL     1      -0.267  -6.290   1.270  0.00  0.00    +0.095 C 
ATOM     10  C   UNL     1       0.075  -4.972   1.257  0.00  0.00    +0.054 C 
ENDROOT
BRANCH   1  15
ATOM     11  C   UNL     1      -0.018   1.503   0.010  0.00  0.00    +0.044 C 
ATOM     12  C   UNL     1       0.002  -0.004   0.002  0.00  0.00    -0.050 A 
ATOM     13  C   UNL     1       0.006  -0.686  -1.201  0.00  0.00    +0.004 A 
ATOM     14  C   UNL     1       0.024  -2.066  -1.215  0.00  0.00    +0.010 A 
ATOM     15  C   UNL     1       0.040  -2.772  -0.013  0.00  0.00    +0.000 A 
ATOM     16  C   UNL     1       0.036  -2.079   1.196  0.00  0.00    +0.010 A 
ATOM     17  C   UNL     1       0.023  -0.699   1.198  0.00  0.00    +0.004 A 
ENDBRANCH   1  15
BRANCH   4  18
ATOM     18  C   UNL     1      -0.737  -6.556  -3.679  0.00  0.00    +0.245 C 
ATOM     19  O   UNL     1      -1.524  -7.054  -4.463  0.00  0.00    -0.270 OA
ATOM     20  N   UNL     1       0.206  -5.701  -4.122  0.00  0.00    -0.311 N 
ATOM     21  H   UNL     1       0.833  -5.304  -3.497  0.00  0.00    +0.149 HD
BRANCH  20  22
ATOM     22  C   UNL     1       0.284  -5.370  -5.547  0.00  0.00    +0.109 C 
BRANCH  22  23
ATOM     23  C   UNL     1       1.432  -4.386  -5.780  0.00  0.00    +0.052 C 
BRANCH  23  24
ATOM     24  C   UNL     1       1.512  -4.046  -7.246  0.00  0.00    -0.040 C 
ATOM     25  C   UNL     1       0.957  -2.979  -7.864  0.00  0.00    -0.001 A 
ATOM     26  C   UNL     1       0.144  -1.858  -7.377  0.00  0.00    +0.010 A 
ATOM     27  C   UNL     1      -0.275  -0.920  -8.256  0.00  0.00    +0.001 A 
ATOM     28  C   UNL     1       0.046  -0.992  -9.618  0.00  0.00    +0.002 A 
ATOM     29  C   UNL     1       0.788  -1.990 -10.142  0.00  0.00    +0.026 A 
ATOM     30  C   UNL     1       1.283  -3.031  -9.308  0.00  0.00    +0.043 A 
ATOM     31  N   UNL     1       2.010  -4.089  -9.571  0.00  0.00    -0.380 N 
ATOM     32  C   UNL     1       2.233  -4.826  -8.322  0.00  0.00    +0.144 C 
ATOM     33  H   UNL     1       2.348  -4.341 -10.445  0.00  0.00    +0.160 HD
ENDBRANCH  23  24
ENDBRANCH  22  23
ENDBRANCH  20  22
ENDBRANCH   4  18
BRANCH   9  34
ATOM     34  C   UNL     1      -0.314  -7.104   2.538  0.00  0.00    +0.387 C 
ATOM     35  F   UNL     1       0.034  -6.295   3.624  0.00  0.00    -0.202 F 
ATOM     36  F   UNL     1      -1.607  -7.604   2.723  0.00  0.00    -0.202 F 
ENDBRANCH   9  34
TORSDOF 6
