REMARK  Name = ZINC66976191
REMARK  7 active torsions:
REMARK  status: ('A' for Active; 'I' for Inactive)
REMARK    1  A    between atoms: C_1  and  C_2
REMARK    2  A    between atoms: C_2  and  C_4
REMARK    3  A    between atoms: C_2  and  C_20
REMARK    4  A    between atoms: C_4  and  N_5
REMARK    5  A    between atoms: N_8  and  N_9
REMARK    6  A    between atoms: C_10  and  C_12
REMARK    7  A    between atoms: C_12  and  C_13
REMARK                            x       y       z     vdW  Elec       q    Type
REMARK                         _______ _______ _______ _____ _____    ______ ____
ROOT
ATOM      1  N   UNL     1      -0.008  -0.140   2.444  0.00  0.00    -0.298 N 
ATOM      2  C   UNL     1       0.457  -0.484   3.661  0.00  0.00    +0.316 C 
ATOM      3  O   UNL     1       1.499  -1.102   3.762  0.00  0.00    -0.251 OA
ATOM      4  N   UNL     1      -0.234  -0.143   4.767  0.00  0.00    -0.218 N 
ATOM      5  H   UNL     1      -0.840   0.353   2.364  0.00  0.00    +0.150 HD
ATOM      6  H   UNL     1       0.101  -0.391   5.644  0.00  0.00    +0.174 HD
ENDROOT
BRANCH   4   7
ATOM      7  N   UNL     1      -1.435   0.569   4.652  0.00  0.00    -0.233 N 
ATOM      8  C   UNL     1      -2.125   0.910   5.758  0.00  0.00    +0.234 C 
ATOM      9  O   UNL     1      -1.706   0.601   6.853  0.00  0.00    -0.274 OA
ATOM     10  H   UNL     1      -1.769   0.817   3.776  0.00  0.00    +0.173 HD
BRANCH   8  11
ATOM     11  C   UNL     1      -3.417   1.677   5.634  0.00  0.00    +0.135 C 
BRANCH  11  12
ATOM     12  C   UNL     1      -3.984   1.930   7.006  0.00  0.00    -0.003 A 
ATOM     13  C   UNL     1      -4.925   1.067   7.536  0.00  0.00    +0.007 A 
ATOM     14  C   UNL     1      -5.446   1.299   8.795  0.00  0.00    +0.000 A 
ATOM     15  C   UNL     1      -5.027   2.395   9.526  0.00  0.00    +0.003 A 
ATOM     16  C   UNL     1      -4.087   3.260   8.999  0.00  0.00    +0.038 A 
ATOM     17  C   UNL     1      -3.560   3.025   7.740  0.00  0.00    +0.127 A 
ATOM     18  F   UNL     1      -2.637   3.867   7.225  0.00  0.00    -0.205 F 
ENDBRANCH  11  12
ENDBRANCH   8  11
ENDBRANCH   4   7
BRANCH   1  19
ATOM     19  C   UNL     1       0.742  -0.511   1.242  0.00  0.00    +0.113 C 
BRANCH  19  21
ATOM     20  C   UNL     1      -0.019   1.526   0.010  0.00  0.00    +0.014 C 
ATOM     21  C   UNL     1       0.002  -0.004   0.002  0.00  0.00    +0.033 C 
BRANCH  21  22
ATOM     22  C   UNL     1       0.707  -0.490  -1.238  0.00  0.00    -0.043 A 
ATOM     23  C   UNL     1       2.026  -0.142  -1.464  0.00  0.00    +0.004 A 
ATOM     24  C   UNL     1       2.673  -0.587  -2.602  0.00  0.00    +0.000 A 
ATOM     25  C   UNL     1       2.002  -1.382  -3.512  0.00  0.00    +0.000 A 
ATOM     26  C   UNL     1       0.684  -1.731  -3.285  0.00  0.00    +0.000 A 
ATOM     27  C   UNL     1       0.038  -1.289  -2.146  0.00  0.00    +0.004 A 
ENDBRANCH  21  22
ENDBRANCH  19  21
ENDBRANCH   1  19
TORSDOF 6
