REMARK  Name = ZINC16335124
REMARK  7 active torsions:
REMARK  status: ('A' for Active; 'I' for Inactive)
REMARK    1  A    between atoms: C_3  and  C_6
REMARK    2  A    between atoms: N_8  and  N_9
REMARK    3  A    between atoms: C_10  and  C_12
REMARK    4  A    between atoms: C_12  and  S_13
REMARK    5  A    between atoms: S_13  and  C_14
REMARK    6  A    between atoms: N_19  and  C_20
REMARK    7  A    between atoms: C_20  and  C_21
REMARK                            x       y       z     vdW  Elec       q    Type
REMARK                         _______ _______ _______ _____ _____    ______ ____
ROOT
ATOM      1  S   UNL     1      -7.494   2.526   0.055  0.00  0.00    -0.088 S 
ENDROOT
BRANCH   1   2
ATOM      2  C   UNL     1      -8.766   3.745   0.068  0.00  0.00    +0.160 A 
ATOM      3  N   UNL     1      -8.664   5.060   0.073  0.00  0.00    -0.133 NA
ATOM      4  N   UNL     1      -9.801   5.835   0.083  0.00  0.00    -0.125 NA
ATOM      5  C   UNL     1     -10.987   5.259   0.086  0.00  0.00    +0.183 A 
ATOM      6  S   UNL     1     -10.539   3.530   0.069  0.00  0.00    -0.025 S 
ATOM      7  N   UNL     1     -12.249   5.842   0.095  0.00  0.00    -0.318 N 
ATOM      8  H   UNL     1     -13.041   5.283   0.096  0.00  0.00    +0.148 HD
BRANCH   7   9
ATOM      9  C   UNL     1     -12.381   7.301   0.103  0.00  0.00    +0.138 C 
BRANCH   9  10
ATOM     10  C   UNL     1     -13.842   7.673   0.112  0.00  0.00    -0.030 A 
ATOM     11  C   UNL     1     -14.515   7.855  -1.082  0.00  0.00    +0.008 A 
ATOM     12  C   UNL     1     -15.856   8.191  -1.075  0.00  0.00    +0.038 A 
ATOM     13  C   UNL     1     -16.522   8.356   0.128  0.00  0.00    +0.123 A 
ATOM     14  C   UNL     1     -15.845   8.178   1.323  0.00  0.00    +0.038 A 
ATOM     15  C   UNL     1     -14.505   7.837   1.313  0.00  0.00    +0.008 A 
ATOM     16  F   UNL     1     -17.831   8.689   0.136  0.00  0.00    -0.205 F 
ENDBRANCH   9  10
ENDBRANCH   7   9
ENDBRANCH   1   2
BRANCH   1  17
ATOM     17  C   UNL     1      -5.959   3.494   0.052  0.00  0.00    +0.173 C 
BRANCH  17  19
ATOM     18  N   UNL     1      -3.524   3.058   0.037  0.00  0.00    -0.233 N 
ATOM     19  C   UNL     1      -4.776   2.560   0.041  0.00  0.00    +0.239 C 
ATOM     20  O   UNL     1      -4.951   1.359   0.036  0.00  0.00    -0.273 OA
ATOM     21  H   UNL     1      -3.384   4.018   0.041  0.00  0.00    +0.173 HD
BRANCH  18  24
ATOM     22  C   UNL     1      -1.173   2.688   0.022  0.00  0.00    +0.267 C 
ATOM     23  O   UNL     1      -0.997   3.893   0.028  0.00  0.00    -0.268 OA
ATOM     24  N   UNL     1      -2.425   2.190   0.026  0.00  0.00    -0.230 N 
ATOM     25  H   UNL     1      -2.565   1.230   0.022  0.00  0.00    +0.173 HD
BRANCH  22  28
ATOM     26  C   UNL     1       2.208   1.027  -0.013  0.00  0.00    +0.008 A 
ATOM     27  C   UNL     1       1.330   2.083   0.001  0.00  0.00    +0.021 A 
ATOM     28  C   UNL     1      -0.022   1.780   0.012  0.00  0.00    +0.075 A 
ATOM     29  S   UNL     1       0.002  -0.004   0.002  0.00  0.00    -0.092 S 
ATOM     30  C   UNL     1       1.719  -0.241  -0.016  0.00  0.00    +0.046 A 
ENDBRANCH  22  28
ENDBRANCH  18  24
ENDBRANCH  17  19
ENDBRANCH   1  17
TORSDOF 7
