REMARK  Name = ZINC32947787
REMARK  8 active torsions:
REMARK  status: ('A' for Active; 'I' for Inactive)
REMARK    1  A    between atoms: C_1  and  O_2
REMARK    2  A    between atoms: O_2  and  C_3
REMARK    3  A    between atoms: C_7  and  C_9
REMARK    4  A    between atoms: C_9  and  C_11
REMARK    5  A    between atoms: C_12  and  N_25
REMARK    6  A    between atoms: N_16  and  C_17
REMARK    7  A    between atoms: C_21  and  S_23
REMARK    8  A    between atoms: S_23  and  C_24
REMARK                            x       y       z     vdW  Elec       q    Type
REMARK                         _______ _______ _______ _____ _____    ______ ____
ROOT
ATOM      1  C   UNL     1      -6.136   1.291   3.945  0.00  0.00    +0.102 A 
ATOM      2  C   UNL     1      -7.059   1.648   4.940  0.00  0.00    +0.136 A 
ATOM      3  N   UNL     1      -8.290   1.220   4.800  0.00  0.00    -0.210 NA
ATOM      4  C   UNL     1      -8.652   0.471   3.770  0.00  0.00    +0.165 A 
ATOM      5  S   UNL     1      -7.178   0.319   2.866  0.00  0.00    -0.047 S 
ATOM      6  N   UNL     1      -9.892  -0.058   3.486  0.00  0.00    -0.294 N 
ATOM      7  H   UNL     1     -10.014  -0.749   2.639  0.00  0.00    +0.154 HD
ENDROOT
BRANCH   6   8
ATOM      8  C   UNL     1     -10.994   0.283   4.275  0.00  0.00    +0.034 A 
ATOM      9  C   UNL     1     -11.007   1.488   4.969  0.00  0.00    +0.023 A 
ATOM     10  C   UNL     1     -12.096   1.826   5.749  0.00  0.00    +0.003 A 
ATOM     11  C   UNL     1     -13.176   0.969   5.842  0.00  0.00    +0.015 A 
ATOM     12  C   UNL     1     -13.170  -0.237   5.150  0.00  0.00    +0.009 A 
ATOM     13  C   UNL     1     -12.079  -0.578   4.362  0.00  0.00    +0.038 A 
BRANCH  12  14
ATOM     14  S   UNL     1     -14.548  -1.329   5.269  0.00  0.00    -0.129 S 
ATOM     15  C   UNL     1     -15.696  -0.468   6.378  0.00  0.00    +0.090 C 
ENDBRANCH  12  14
ENDBRANCH   6   8
BRANCH   2  16
ATOM     16  N   UNL     1      -6.684   2.426   6.024  0.00  0.00    -0.342 N 
ATOM     17  H   UNL     1      -7.426   2.693   6.791  0.00  0.00    +0.144 HD
ATOM     18  H   UNL     1      -5.646   2.776   6.117  0.00  0.00    +0.144 HD
ENDBRANCH   2  16
BRANCH   1  19
ATOM     19  C   UNL     1      -4.770   1.606   3.831  0.00  0.00    +0.203 C 
ATOM     20  O   UNL     1      -4.200   2.187   4.739  0.00  0.00    -0.286 OA
BRANCH  19  25
ATOM     21  C   UNL     1      -1.944   0.743   1.504  0.00  0.00    +0.121 A 
ATOM     22  C   UNL     1      -2.630   0.536   0.315  0.00  0.00    +0.045 A 
ATOM     23  C   UNL     1      -4.006   0.667   0.273  0.00  0.00    +0.004 A 
ATOM     24  C   UNL     1      -4.705   1.016   1.411  0.00  0.00    +0.012 A 
ATOM     25  C   UNL     1      -4.023   1.231   2.609  0.00  0.00    +0.026 A 
ATOM     26  C   UNL     1      -2.636   1.093   2.651  0.00  0.00    +0.057 A 
BRANCH  21  28
ATOM     27  C   UNL     1       0.057   0.244   0.320  0.00  0.00    +0.277 C 
ATOM     28  O   UNL     1      -0.592   0.607   1.540  0.00  0.00    -0.495 OA
ENDBRANCH  21  28
ENDBRANCH  19  25
ENDBRANCH   1  19
TORSDOF 6
