REMARK  Name = ZINC07662649
REMARK  10 active torsions:
REMARK  status: ('A' for Active; 'I' for Inactive)
REMARK    1  A    between atoms: C_1  and  O_2
REMARK    2  A    between atoms: O_2  and  C_3
REMARK    3  A    between atoms: C_6  and  C_9
REMARK    4  A    between atoms: C_9  and  N_10
REMARK    5  A    between atoms: N_10  and  C_11
REMARK    6  A    between atoms: C_11  and  N_13
REMARK    7  A    between atoms: N_13  and  C_14
REMARK    8  A    between atoms: C_14  and  C_15
REMARK    9  A    between atoms: C_15  and  C_17
REMARK   10  A    between atoms: C_15  and  C_22
REMARK                            x       y       z     vdW  Elec       q    Type
REMARK                         _______ _______ _______ _____ _____    ______ ____
ROOT
ATOM      1  C   UNL     1       0.002  -0.004   0.002  0.00  0.00    +0.116 C 
ENDROOT
BRANCH   1   2
ATOM      2  N   UNL     1      -0.018   1.461   0.010  0.00  0.00    -0.326 N 
ATOM      3  H   UNL     1       0.816   1.957   0.005  0.00  0.00    +0.148 HD
BRANCH   2   4
ATOM      4  C   UNL     1      -1.194   2.119   0.019  0.00  0.00    +0.131 C 
ATOM      5  S   UNL     1      -2.665   1.243   0.021  0.00  0.00    -0.019 S 
BRANCH   4   6
ATOM      6  N   UNL     1      -1.212   3.466   0.027  0.00  0.00    -0.322 N 
ATOM      7  H   UNL     1      -0.379   3.963   0.025  0.00  0.00    +0.148 HD
BRANCH   6   8
ATOM      8  C   UNL     1      -2.491   4.181   0.037  0.00  0.00    +0.138 C 
BRANCH   8  12
ATOM      9  C   UNL     1      -1.767   8.393   0.056  0.00  0.00    +0.120 A 
ATOM     10  C   UNL     1      -1.890   7.715  -1.148  0.00  0.00    +0.046 A 
ATOM     11  C   UNL     1      -2.124   6.353  -1.151  0.00  0.00    +0.009 A 
ATOM     12  C   UNL     1      -2.236   5.667   0.043  0.00  0.00    -0.030 A 
ATOM     13  C   UNL     1      -2.119   6.341   1.245  0.00  0.00    +0.009 A 
ATOM     14  C   UNL     1      -1.879   7.702   1.254  0.00  0.00    +0.046 A 
BRANCH   9  16
ATOM     15  C   UNL     1      -1.421  10.365   1.338  0.00  0.00    +0.277 C 
ATOM     16  O   UNL     1      -1.536   9.732   0.062  0.00  0.00    -0.495 OA
ENDBRANCH   9  16
ENDBRANCH   8  12
ENDBRANCH   6   8
ENDBRANCH   4   6
ENDBRANCH   2   4
ENDBRANCH   1   2
BRANCH   1  17
ATOM     17  C   UNL     1       1.451  -0.494  -0.015  0.00  0.00    +0.075 C 
BRANCH  17  18
ATOM     18  C   UNL     1       1.472  -1.995  -0.147  0.00  0.00    -0.013 A 
ATOM     19  C   UNL     1       0.926  -2.880   0.703  0.00  0.00    +0.088 A 
ATOM     20  N   UNL     1       1.146  -4.154   0.256  0.00  0.00    -0.360 N 
ATOM     21  H   UNL     1       0.845  -4.961   0.702  0.00  0.00    +0.165 HD
ATOM     22  C   UNL     1       1.856  -4.120  -0.923  0.00  0.00    +0.047 A 
ATOM     23  C   UNL     1       2.087  -2.766  -1.230  0.00  0.00    +0.003 A 
ATOM     24  C   UNL     1       2.788  -2.424  -2.388  0.00  0.00    +0.010 A 
ATOM     25  C   UNL     1       3.245  -3.407  -3.220  0.00  0.00    +0.001 A 
ATOM     26  C   UNL     1       3.017  -4.744  -2.923  0.00  0.00    +0.002 A 
ATOM     27  C   UNL     1       2.333  -5.104  -1.782  0.00  0.00    +0.026 A 
ENDBRANCH  17  18
BRANCH  17  28
ATOM     28  C   UNL     1       2.132  -0.093   1.269  0.00  0.00    -0.001 A 
ATOM     29  C   UNL     1       3.223   0.690   1.448  0.00  0.00    +0.012 A 
ATOM     30  C   UNL     1       3.676   0.926   2.732  0.00  0.00    +0.008 A 
ATOM     31  C   UNL     1       3.016   0.366   3.775  0.00  0.00    +0.045 A 
ATOM     32  S   UNL     1       1.705  -0.521   2.949  0.00  0.00    -0.101 S 
ENDBRANCH  17  28
ENDBRANCH   1  17
TORSDOF 9
