REMARK  Name = ZINC25575824
REMARK  11 active torsions:
REMARK  status: ('A' for Active; 'I' for Inactive)
REMARK    1  A    between atoms: C_1  and  C_2
REMARK    2  A    between atoms: C_2  and  C_4
REMARK    3  A    between atoms: C_2  and  S_21
REMARK    4  A    between atoms: N_6  and  C_7
REMARK    5  A    between atoms: C_7  and  C_8
REMARK    6  A    between atoms: C_8  and  C_10
REMARK    7  A    between atoms: C_8  and  N_18
REMARK    8  A    between atoms: N_18  and  C_19
REMARK    9  A    between atoms: N_18  and  C_20
REMARK   10  A    between atoms: S_21  and  C_22
REMARK   11  A    between atoms: C_25  and  N_28
REMARK                            x       y       z     vdW  Elec       q    Type
REMARK                         _______ _______ _______ _____ _____    ______ ____
ROOT
ATOM      1  C   UNL     1       2.807   0.034  -2.792  0.00  0.00    +0.226 C 
ATOM      2  O   UNL     1       2.558  -0.387  -3.901  0.00  0.00    -0.275 OA
ATOM      3  N   UNL     1       1.918  -0.130  -1.792  0.00  0.00    -0.316 N 
ATOM      4  H   UNL     1       2.145   0.253  -0.786  0.00  0.00    +0.149 HD
ENDROOT
BRANCH   1   6
ATOM      5  C   UNL     1       3.882   2.255  -2.538  0.00  0.00    +0.029 C 
ATOM      6  C   UNL     1       4.112   0.742  -2.530  0.00  0.00    +0.134 C 
BRANCH   6   7
ATOM      7  S   UNL     1       5.306   0.306  -3.824  0.00  0.00    -0.113 S 
BRANCH   7   8
ATOM      8  C   UNL     1       5.693  -1.381  -3.496  0.00  0.00    +0.009 A 
ATOM      9  C   UNL     1       5.121  -2.028  -2.407  0.00  0.00    +0.017 A 
ATOM     10  C   UNL     1       5.422  -3.352  -2.155  0.00  0.00    +0.034 A 
ATOM     11  C   UNL     1       6.301  -4.031  -2.979  0.00  0.00    +0.126 A 
ATOM     12  C   UNL     1       6.877  -3.389  -4.060  0.00  0.00    +0.034 A 
ATOM     13  C   UNL     1       6.576  -2.067  -4.321  0.00  0.00    +0.017 A 
BRANCH  11  14
ATOM     14  N   UNL     1       6.626  -5.449  -2.704  0.00  0.00    +0.056 N 
ATOM     15  O   UNL     1       7.400  -6.048  -3.428  0.00  0.00    -0.126 OA
ATOM     16  O   UNL     1       6.119  -6.016  -1.752  0.00  0.00    -0.126 OA
ENDBRANCH  11  14
ENDBRANCH   7   8
ENDBRANCH   6   7
ENDBRANCH   1   6
BRANCH   3  17
ATOM     17  C   UNL     1       0.650  -0.818  -2.046  0.00  0.00    +0.093 C 
BRANCH  17  18
ATOM     18  C   UNL     1      -0.237  -0.727  -0.803  0.00  0.00    -0.017 C 
BRANCH  18  19
ATOM     19  C   UNL     1      -1.466  -1.577  -0.999  0.00  0.00    -0.006 A 
ATOM     20  C   UNL     1      -2.470  -1.156  -1.856  0.00  0.00    +0.126 A 
ATOM     21  C   UNL     1      -3.595  -1.940  -2.040  0.00  0.00    +0.038 A 
ATOM     22  C   UNL     1      -3.723  -3.137  -1.361  0.00  0.00    +0.004 A 
ATOM     23  C   UNL     1      -2.724  -3.554  -0.501  0.00  0.00    +0.020 A 
ATOM     24  C   UNL     1      -1.595  -2.774  -0.320  0.00  0.00    +0.045 A 
ATOM     25 CL   UNL     1      -0.342  -3.299   0.760  0.00  0.00    -0.083 Cl
ATOM     26  F   UNL     1      -2.347   0.017  -2.516  0.00  0.00    -0.205 F 
ENDBRANCH  18  19
BRANCH  18  27
ATOM     27  N   UNL     1      -0.637   0.670  -0.588  0.00  0.00    +0.382 N 
ATOM     28  C   UNL     1      -1.463   0.801   0.620  0.00  0.00    -0.096 C 
ATOM     29  C   UNL     1       0.538   1.550  -0.520  0.00  0.00    -0.096 C 
ATOM     30  H   UNL     1      -1.246   0.984  -1.449  0.00  0.00    -0.082 HD
ENDBRANCH  18  27
ENDBRANCH  17  18
ENDBRANCH   3  17
TORSDOF 8
