REMARK  Name = ZINC39534019
REMARK  8 active torsions:
REMARK  status: ('A' for Active; 'I' for Inactive)
REMARK    1  A    between atoms: C_1  and  S_2
REMARK    2  A    between atoms: S_2  and  C_3
REMARK    3  A    between atoms: N_6  and  C_10
REMARK    4  A    between atoms: C_10  and  C_12
REMARK    5  A    between atoms: C_10  and  C_15
REMARK    6  A    between atoms: C_12  and  N_13
REMARK    7  A    between atoms: C_18  and  C_21
REMARK    8  A    between atoms: C_26  and  O_27
REMARK                            x       y       z     vdW  Elec       q    Type
REMARK                         _______ _______ _______ _____ _____    ______ ____
ROOT
ATOM      1  C   UNL     1      -3.693  -3.043  -1.936  0.00  0.00    +0.102 C 
ENDROOT
BRANCH   1   4
ATOM      2  C   UNL     1      -2.040  -0.533   0.334  0.00  0.00    +0.126 C 
ATOM      3  C   UNL     1      -2.152  -1.572  -0.784  0.00  0.00    +0.114 C 
ATOM      4  N   UNL     1      -3.555  -1.989  -0.922  0.00  0.00    -0.291 NA
ATOM      5  C   UNL     1      -4.415  -0.840  -1.236  0.00  0.00    +0.100 C 
ATOM      6  C   UNL     1      -4.303   0.199  -0.118  0.00  0.00    +0.097 C 
ATOM      7  N   UNL     1      -2.900   0.616   0.021  0.00  0.00    -0.303 NA
ATOM      8  H   UNL     1      -2.805   1.340   0.718  0.00  0.00    +0.123 HD
BRANCH   2  10
ATOM      9  C   UNL     1      -0.447   1.824   0.617  0.00  0.00    +0.086 C 
ATOM     10  S   UNL     1      -0.318   0.021   0.475  0.00  0.00    -0.144 S 
ENDBRANCH   2  10
ENDBRANCH   1   4
BRANCH   1  11
ATOM     11  C   UNL     1      -5.128  -3.499  -1.994  0.00  0.00    -0.029 A 
ATOM     12  C   UNL     1      -5.855  -3.636  -0.825  0.00  0.00    +0.006 A 
ATOM     13  C   UNL     1      -7.170  -4.055  -0.872  0.00  0.00    +0.009 A 
ATOM     14  C   UNL     1      -7.764  -4.338  -2.100  0.00  0.00    -0.014 A 
ATOM     15  C   UNL     1      -7.027  -4.198  -3.275  0.00  0.00    +0.009 A 
ATOM     16  C   UNL     1      -5.715  -3.774  -3.216  0.00  0.00    +0.006 A 
BRANCH  14  17
ATOM     17  C   UNL     1      -9.177  -4.788  -2.157  0.00  0.00    +0.024 A 
ATOM     18  C   UNL     1      -9.613  -5.829  -1.340  0.00  0.00    +0.012 A 
ATOM     19  C   UNL     1     -10.928  -6.244  -1.396  0.00  0.00    +0.001 A 
ATOM     20  C   UNL     1     -11.816  -5.630  -2.263  0.00  0.00    +0.004 A 
ATOM     21  C   UNL     1     -11.393  -4.598  -3.078  0.00  0.00    +0.046 A 
ATOM     22  C   UNL     1     -10.077  -4.167  -3.027  0.00  0.00    +0.125 A 
BRANCH  22  23
ATOM     23  O   UNL     1      -9.662  -3.148  -3.824  0.00  0.00    -0.506 OA
ATOM     24  H   UNL     1      -9.332  -3.433  -4.687  0.00  0.00    +0.292 HD
ENDBRANCH  22  23
ENDBRANCH  14  17
ENDBRANCH   1  11
BRANCH   1  25
ATOM     25  C   UNL     1      -2.796  -4.226  -1.568  0.00  0.00    +0.122 C 
BRANCH  25  26
ATOM     26  N   UNL     1      -2.879  -5.250  -2.619  0.00  0.00    -0.231 NA
ATOM     27 CL   UNL     1      -2.008  -6.653  -2.178  0.00  0.00    -0.024 Cl
ATOM     28  H   UNL     1      -2.557  -4.887  -3.503  0.00  0.00    +0.141 HD
ENDBRANCH  25  26
ENDBRANCH   1  25
TORSDOF 7
