REMARK  Name = ZINC13500615
REMARK  11 active torsions:
REMARK  status: ('A' for Active; 'I' for Inactive)
REMARK    1  A    between atoms: C_1  and  C_2
REMARK    2  A    between atoms: C_12  and  C_14
REMARK    3  A    between atoms: C_14  and  N_66
REMARK    4  A    between atoms: C_15  and  N_66
REMARK    5  A    between atoms: C_20  and  C_22
REMARK    6  A    between atoms: C_20  and  C_33
REMARK    7  A    between atoms: C_20  and  N_66
REMARK    8  A    between atoms: N_26  and  C_27
REMARK    9  A    between atoms: C_27  and  C_28
REMARK   10  A    between atoms: C_33  and  C_34
REMARK   11  A    between atoms: C_33  and  C_35
REMARK                            x       y       z     vdW  Elec       q    Type
REMARK                         _______ _______ _______ _____ _____    ______ ____
ROOT
ATOM      1  N   UNL     1      -2.846   0.788  -1.151  0.00  0.00    +0.391 N 
ATOM      2  H   UNL     1      -2.734   1.582  -1.793  0.00  0.00    -0.080 HD
ENDROOT
BRANCH   1   3
ATOM      3  C   UNL     1      -1.776  -0.196  -1.414  0.00  0.00    -0.067 C 
ATOM      4  C   UNL     1      -2.003  -1.491  -0.607  0.00  0.00    -0.015 C 
ATOM      5  C   UNL     1      -0.577  -1.936  -0.195  0.00  0.00    -0.002 C 
ATOM      6  C   UNL     1       0.126  -0.591   0.112  0.00  0.00    -0.002 C 
ATOM      7  C   UNL     1      -0.422   0.376  -0.957  0.00  0.00    -0.015 C 
ENDBRANCH   1   3
BRANCH   1   8
ATOM      8  C   UNL     1      -2.752   1.278   0.240  0.00  0.00    -0.036 C 
BRANCH   8  20
ATOM      9  C   UNL     1      -5.713  -3.245   3.978  0.00  0.00    +0.046 C 
ATOM     10  C   UNL     1      -4.265  -2.846   3.858  0.00  0.00    -0.026 A 
ATOM     11  C   UNL     1      -3.307  -3.481   4.620  0.00  0.00    +0.005 A 
ATOM     12  C   UNL     1      -1.970  -3.123   4.519  0.00  0.00    +0.001 A 
ATOM     13  C   UNL     1      -1.578  -2.134   3.661  0.00  0.00    +0.010 A 
ATOM     14  C   UNL     1      -2.532  -1.477   2.878  0.00  0.00    -0.001 A 
ATOM     15  C   UNL     1      -3.890  -1.837   2.978  0.00  0.00    +0.052 A 
ATOM     16  N   UNL     1      -4.827  -1.186   2.204  0.00  0.00    -0.322 N 
ATOM     17  H   UNL     1      -5.761  -1.436   2.274  0.00  0.00    +0.169 HD
ATOM     18  C   UNL     1      -4.463  -0.211   1.353  0.00  0.00    +0.251 A 
ATOM     19  O   UNL     1      -5.318   0.343   0.683  0.00  0.00    -0.268 OA
ATOM     20  C   UNL     1      -3.115   0.184   1.211  0.00  0.00    +0.001 A 
ATOM     21  C   UNL     1      -2.147  -0.413   1.949  0.00  0.00    +0.017 A 
ENDBRANCH   8  20
ENDBRANCH   1   8
BRANCH   1  22
ATOM     22  C   UNL     1      -4.169   0.170  -1.381  0.00  0.00    +0.006 C 
BRANCH  22  23
ATOM     23  C   UNL     1      -4.073  -0.806  -2.525  0.00  0.00    +0.139 A 
ATOM     24  N   UNL     1      -3.416  -0.635  -3.646  0.00  0.00    -0.115 NA
ATOM     25  N   UNL     1      -3.574  -1.692  -4.366  0.00  0.00    -0.023 NA
ATOM     26  N   UNL     1      -4.322  -2.530  -3.736  0.00  0.00    -0.044 NA
ATOM     27  N   UNL     1      -4.650  -2.020  -2.597  0.00  0.00    -0.223 N 
BRANCH  27  28
ATOM     28  C   UNL     1      -5.493  -2.645  -1.574  0.00  0.00    +0.221 C 
BRANCH  28  29
ATOM     29  C   UNL     1      -6.934  -2.276  -1.817  0.00  0.00    +0.126 A 
ATOM     30  C   UNL     1      -7.802  -2.961  -2.582  0.00  0.00    +0.046 A 
ATOM     31  C   UNL     1      -9.033  -2.266  -2.527  0.00  0.00    +0.041 A 
ATOM     32  C   UNL     1      -8.840  -1.194  -1.737  0.00  0.00    +0.195 A 
ATOM     33  O   UNL     1      -7.567  -1.206  -1.310  0.00  0.00    -0.466 OA
ENDBRANCH  28  29
ENDBRANCH  27  28
ENDBRANCH  22  23
BRANCH  22  34
ATOM     34  C   UNL     1      -5.169   1.273  -1.733  0.00  0.00    -0.024 C 
ATOM     35  C   UNL     1      -5.038   2.420  -0.730  0.00  0.00    +0.006 C 
ATOM     36  C   UNL     1      -4.880   1.792  -3.143  0.00  0.00    +0.006 C 
ENDBRANCH  22  34
ENDBRANCH   1  22
TORSDOF 8
