REMARK  Name = ZINC39884085
REMARK  4 active torsions:
REMARK  status: ('A' for Active; 'I' for Inactive)
REMARK    1  A    between atoms: C_3  and  O_37
REMARK    2  A    between atoms: C_6  and  C_7
REMARK    3  A    between atoms: N_11  and  C_15
REMARK    4  A    between atoms: C_15  and  C_16
REMARK                            x       y       z     vdW  Elec       q    Type
REMARK                         _______ _______ _______ _____ _____    ______ ____
ROOT
ATOM      1  C   UNL     1      -1.293  -0.774   0.011  0.00  0.00    +0.072 C 
ATOM      2  C   UNL     1      -1.299  -1.662   1.202  0.00  0.00    +0.033 A 
ATOM      3  C   UNL     1      -1.621  -2.966   1.278  0.00  0.00    +0.091 A 
ATOM      4  N   UNL     1      -1.558  -3.506   2.543  0.00  0.00    -0.288 N 
ATOM      5  C   UNL     1      -1.169  -2.744   3.582  0.00  0.00    +0.292 A 
ATOM      6  O   UNL     1      -1.053  -3.063   4.752  0.00  0.00    -0.259 OA
ATOM      7  S   UNL     1      -0.881  -1.245   2.876  0.00  0.00    -0.030 S 
ATOM      8  S   UNL     1      -2.063  -3.892  -0.169  0.00  0.00    -0.093 S 
ATOM      9  C   UNL     1      -2.440  -2.611  -1.407  0.00  0.00    +0.152 C 
ATOM     10  C   UNL     1      -1.435  -1.458  -1.296  0.00  0.00    +0.110 C 
ATOM     11  C   UNL     1      -0.215  -1.990  -1.979  0.00  0.00    +0.235 C 
ATOM     12  O   UNL     1       0.932  -1.671  -1.774  0.00  0.00    -0.274 OA
ATOM     13  N   UNL     1      -0.659  -2.902  -2.876  0.00  0.00    -0.162 N 
ATOM     14  C   UNL     1      -1.972  -3.194  -2.752  0.00  0.00    +0.244 C 
ATOM     15  O   UNL     1      -2.650  -3.806  -3.543  0.00  0.00    -0.273 OA
ATOM     16  C   UNL     1       0.134  -3.460  -3.812  0.00  0.00    +0.313 C 
ATOM     17  O   UNL     1       1.307  -3.150  -3.879  0.00  0.00    -0.252 OA
ATOM     18  N   UNL     1      -0.374  -4.363  -4.675  0.00  0.00    -0.313 N 
ATOM     19  H   UNL     1      -1.310  -4.611  -4.622  0.00  0.00    +0.147 HD
ATOM     20  H   UNL     1       0.197  -4.764  -5.348  0.00  0.00    +0.147 HD
ENDROOT
BRANCH   1  26
ATOM     21  C   UNL     1       0.036   1.285  -0.498  0.00  0.00    +0.008 A 
ATOM     22  C   UNL     1       1.222   1.993  -0.506  0.00  0.00    +0.045 A 
ATOM     23  C   UNL     1       2.380   1.410  -0.013  0.00  0.00    +0.117 A 
ATOM     24  C   UNL     1       2.344   0.116   0.488  0.00  0.00    +0.045 A 
ATOM     25  C   UNL     1       1.155  -0.588   0.494  0.00  0.00    +0.008 A 
ATOM     26  C   UNL     1       0.002  -0.004   0.002  0.00  0.00    -0.038 A 
BRANCH  23  27
ATOM     27  O   UNL     1       3.548   2.104  -0.021  0.00  0.00    -0.507 OA
ATOM     28  H   UNL     1       3.703   2.622   0.781  0.00  0.00    +0.292 HD
ENDBRANCH  23  27
ENDBRANCH   1  26
BRANCH   4  29
ATOM     29  C   UNL     1      -1.914  -4.910   2.759  0.00  0.00    +0.222 C 
BRANCH  29  30
ATOM     30  C   UNL     1      -0.686  -5.770   2.604  0.00  0.00    +0.235 C 
ATOM     31  O   UNL     1       0.382  -5.259   2.340  0.00  0.00    -0.274 OA
ATOM     32  N   UNL     1      -0.774  -7.105   2.759  0.00  0.00    -0.300 N 
ATOM     33  C   UNL     1      -2.062  -7.739   3.074  0.00  0.00    +0.108 C 
ATOM     34  C   UNL     1      -2.334  -8.841   2.045  0.00  0.00    +0.019 C 
ATOM     35  C   UNL     1      -1.149  -9.808   2.015  0.00  0.00    +0.003 C 
ATOM     36  C   UNL     1       0.116  -9.056   1.594  0.00  0.00    +0.019 C 
ATOM     37  C   UNL     1       0.414  -7.957   2.611  0.00  0.00    +0.108 C 
ENDBRANCH  29  30
ENDBRANCH   4  29
TORSDOF 4
