REMARK  Name = ZINC28558337
REMARK  10 active torsions:
REMARK  status: ('A' for Active; 'I' for Inactive)
REMARK    1  A    between atoms: C_1  and  C_2
REMARK    2  A    between atoms: C_2  and  C_3
REMARK    3  A    between atoms: C_3  and  C_4
REMARK    4  A    between atoms: C_4  and  N_5
REMARK    5  A    between atoms: N_11  and  C_14
REMARK    6  A    between atoms: C_14  and  C_15
REMARK    7  A    between atoms: C_15  and  N_16
REMARK    8  A    between atoms: C_25  and  O_26
REMARK    9  A    between atoms: O_26  and  C_27
REMARK   10  A    between atoms: C_27  and  C_28
REMARK                            x       y       z     vdW  Elec       q    Type
REMARK                         _______ _______ _______ _____ _____    ______ ____
ROOT
ATOM      1  C   UNL     1      -0.735   1.581   1.269  0.00  0.00    +0.111 C 
ENDROOT
BRANCH   1   2
ATOM      2  N   UNL     1      -0.030   1.094   2.457  0.00  0.00    -0.264 N 
ATOM      3  C   UNL     1       0.955   1.840   2.991  0.00  0.00    +0.265 A 
ATOM      4  O   UNL     1       1.260   2.910   2.493  0.00  0.00    -0.267 OA
ATOM      5  C   UNL     1       1.639   1.358   4.152  0.00  0.00    +0.076 A 
ATOM      6  C   UNL     1       2.729   1.995   4.893  0.00  0.00    -0.023 A 
ATOM      7  C   UNL     1       3.209   1.333   5.965  0.00  0.00    -0.004 A 
ATOM      8  S   UNL     1       2.252  -0.157   6.053  0.00  0.00    -0.073 S 
ATOM      9  C   UNL     1       1.207   0.115   4.644  0.00  0.00    +0.119 A 
ATOM     10  N   UNL     1       0.226  -0.570   4.067  0.00  0.00    -0.189 NA
ATOM     11  C   UNL     1      -0.388  -0.101   3.003  0.00  0.00    +0.302 A 
ATOM     12  C   UNL     1       4.313   1.768   6.881  0.00  0.00    +0.043 C 
ATOM     13  C   UNL     1       5.079   2.914   6.206  0.00  0.00    +0.005 C 
ATOM     14  C   UNL     1       4.068   3.936   5.677  0.00  0.00    +0.005 C 
ATOM     15  C   UNL     1       3.310   3.347   4.486  0.00  0.00    +0.037 C 
BRANCH  11  16
ATOM     16  O   UNL     1      -1.386  -0.817   2.442  0.00  0.00    -0.464 OA
BRANCH  16  17
ATOM     17  C   UNL     1      -1.717  -2.062   3.058  0.00  0.00    +0.229 C 
ATOM     18  C   UNL     1      -2.861  -2.725   2.288  0.00  0.00    +0.048 C 
ENDBRANCH  16  17
ENDBRANCH  11  16
ENDBRANCH   1   2
BRANCH   1  19
ATOM     19  C   UNL     1      -0.019   1.083   0.011  0.00  0.00    -0.057 C 
BRANCH  19  26
ATOM     20  N   UNL     1      -1.827   1.082  -5.924  0.00  0.00    -0.299 N 
ATOM     21  C   UNL     1      -2.551   1.064  -4.788  0.00  0.00    +0.302 C 
ATOM     22  O   UNL     1      -3.679   0.611  -4.793  0.00  0.00    -0.253 OA
ATOM     23  N   UNL     1      -2.025   1.549  -3.646  0.00  0.00    -0.289 N 
ATOM     24  C   UNL     1      -0.625   1.997  -3.590  0.00  0.00    +0.091 C 
ATOM     25  C   UNL     1       0.056   1.317  -2.397  0.00  0.00    -0.059 C 
ATOM     26  N   UNL     1      -0.726   1.571  -1.180  0.00  0.00    +0.383 N 
ATOM     27  C   UNL     1      -2.067   0.979  -1.276  0.00  0.00    -0.059 C 
ATOM     28  C   UNL     1      -2.836   1.645  -2.422  0.00  0.00    +0.091 C 
ATOM     29  H   UNL     1      -0.779   1.416  -5.903  0.00  0.00    +0.150 HD
ATOM     30  H   UNL     1      -0.848   2.659  -1.081  0.00  0.00    -0.082 HD
BRANCH  20  31
ATOM     31  C   UNL     1      -2.435   0.657  -7.187  0.00  0.00    +0.106 C 
BRANCH  31  32
ATOM     32  C   UNL     1      -1.406   0.772  -8.313  0.00  0.00    +0.018 C 
BRANCH  32  34
ATOM     33  C   UNL     1      -1.012   0.444 -10.759  0.00  0.00    +0.004 C 
ATOM     34  C   UNL     1      -2.041   0.328  -9.633  0.00  0.00    -0.002 C 
ENDBRANCH  32  34
ENDBRANCH  31  32
ENDBRANCH  20  31
ENDBRANCH  19  26
ENDBRANCH   1  19
TORSDOF 8
