REMARK  Name = ZINC02670715
REMARK  8 active torsions:
REMARK  status: ('A' for Active; 'I' for Inactive)
REMARK    1  A    between atoms: C_1  and  N_2
REMARK    2  A    between atoms: C_3  and  C_5
REMARK    3  A    between atoms: C_9  and  N_10
REMARK    4  A    between atoms: C_11  and  C_13
REMARK    5  A    between atoms: C_13  and  C_29
REMARK    6  A    between atoms: C_14  and  C_15
REMARK    7  A    between atoms: C_18  and  C_20
REMARK    8  A    between atoms: C_23  and  N_26
REMARK                            x       y       z     vdW  Elec       q    Type
REMARK                         _______ _______ _______ _____ _____    ______ ____
ROOT
ATOM      1  N   UNL     1       1.143   1.903   0.001  0.00  0.00    -0.275 N 
ATOM      2  C   UNL     1      -0.014   1.213   0.009  0.00  0.00    +0.259 C 
ATOM      3  O   UNL     1       0.002  -0.004   0.002  0.00  0.00    -0.269 OA
ATOM      4  H   UNL     1       1.130   2.873   0.007  0.00  0.00    +0.156 HD
ENDROOT
BRANCH   1   9
ATOM      5  C   UNL     1       3.636   1.755  -0.029  0.00  0.00    +0.069 A 
ATOM      6  C   UNL     1       4.747   0.818  -0.038  0.00  0.00    -0.023 A 
ATOM      7  C   UNL     1       4.399  -0.487  -0.043  0.00  0.00    -0.004 A 
ATOM      8  S   UNL     1       2.629  -0.484  -0.026  0.00  0.00    -0.077 S 
ATOM      9  C   UNL     1       2.352   1.226  -0.014  0.00  0.00    +0.085 A 
ATOM     10  C   UNL     1       5.321  -1.667  -0.059  0.00  0.00    +0.043 C 
ATOM     11  C   UNL     1       6.724  -1.179  -0.448  0.00  0.00    +0.005 C 
ATOM     12  C   UNL     1       7.069   0.053   0.393  0.00  0.00    +0.005 C 
ATOM     13  C   UNL     1       6.211   1.240  -0.049  0.00  0.00    +0.037 C 
BRANCH   5  16
ATOM     14  C   UNL     1       4.178   5.317  -1.201  0.00  0.00    +0.128 C 
ATOM     15  N   UNL     1       3.952   3.869  -1.199  0.00  0.00    -0.314 N 
ATOM     16  C   UNL     1       3.862   3.203  -0.031  0.00  0.00    +0.246 C 
ATOM     17  O   UNL     1       3.969   3.804   1.022  0.00  0.00    -0.270 OA
ATOM     18  H   UNL     1       3.867   3.390  -2.038  0.00  0.00    +0.149 HD
ENDBRANCH   5  16
ENDBRANCH   1   9
BRANCH   2  19
ATOM     19  C   UNL     1      -1.295   1.929   0.019  0.00  0.00    +0.117 C 
ATOM     20  C   UNL     1      -2.488   1.219   0.021  0.00  0.00    +0.070 C 
BRANCH  20  21
ATOM     21  C   UNL     1      -3.713   1.904   0.030  0.00  0.00    +0.130 A 
ATOM     22  C   UNL     1      -4.972   1.321   0.027  0.00  0.00    +0.050 A 
ATOM     23  C   UNL     1      -5.899   2.363   0.042  0.00  0.00    +0.050 A 
ATOM     24  C   UNL     1      -5.182   3.541   0.045  0.00  0.00    +0.136 A 
ATOM     25  O   UNL     1      -3.870   3.245   0.038  0.00  0.00    -0.455 OA
BRANCH  24  26
ATOM     26  C   UNL     1      -5.758   4.899   0.055  0.00  0.00    +0.017 A 
ATOM     27  C   UNL     1      -7.144   5.073   0.056  0.00  0.00    +0.014 A 
ATOM     28  C   UNL     1      -7.676   6.346   0.071  0.00  0.00    +0.033 A 
ATOM     29  C   UNL     1      -6.840   7.449   0.073  0.00  0.00    +0.126 A 
ATOM     30  C   UNL     1      -5.466   7.284   0.066  0.00  0.00    +0.033 A 
ATOM     31  C   UNL     1      -4.920   6.017   0.057  0.00  0.00    +0.014 A 
BRANCH  29  32
ATOM     32  N   UNL     1      -7.418   8.811   0.083  0.00  0.00    +0.056 N 
ATOM     33  O   UNL     1      -6.685   9.784   0.085  0.00  0.00    -0.126 OA
ATOM     34  O   UNL     1      -8.627   8.960   0.089  0.00  0.00    -0.126 OA
ENDBRANCH  29  32
ENDBRANCH  24  26
ENDBRANCH  20  21
BRANCH  19  35
ATOM     35  C   UNL     1      -1.314   3.361   0.027  0.00  0.00    +0.104 C 
ATOM     36  N   UNL     1      -1.330   4.497   0.033  0.00  0.00    -0.191 NA
ENDBRANCH  19  35
ENDBRANCH   2  19
TORSDOF 7
