REMARK  Name = ZINC20225294
REMARK  8 active torsions:
REMARK  status: ('A' for Active; 'I' for Inactive)
REMARK    1  A    between atoms: C_1  and  N_2
REMARK    2  A    between atoms: N_2  and  C_3
REMARK    3  A    between atoms: N_2  and  C_19
REMARK    4  A    between atoms: C_3  and  C_4
REMARK    5  A    between atoms: N_7  and  C_10
REMARK    6  A    between atoms: C_10  and  C_12
REMARK    7  A    between atoms: C_10  and  C_14
REMARK    8  A    between atoms: C_12  and  N_13
REMARK                            x       y       z     vdW  Elec       q    Type
REMARK                         _______ _______ _______ _____ _____    ______ ____
ROOT
ATOM      1  C   UNL     1      -1.653  -2.492   2.289  0.00  0.00    +0.003 C 
ATOM      2  C   UNL     1      -1.892  -0.982   2.379  0.00  0.00    -0.014 C 
ATOM      3  C   UNL     1      -3.339  -0.725   2.804  0.00  0.00    -0.078 C 
ATOM      4  N   UNL     1      -3.585  -1.339   4.114  0.00  0.00    +0.385 N 
ATOM      5  C   UNL     1      -3.427  -2.795   4.018  0.00  0.00    -0.078 C 
ATOM      6  C   UNL     1      -1.983  -3.132   3.640  0.00  0.00    -0.014 C 
ATOM      7  H   UNL     1      -2.925  -0.974   4.785  0.00  0.00    -0.081 HD
ENDROOT
BRANCH   1   8
ATOM      8  C   UNL     1      -0.187  -2.758   1.942  0.00  0.00    +0.108 C 
BRANCH   8  10
ATOM      9  C   UNL     1       0.559  -0.870   0.418  0.00  0.00    +0.129 C 
ATOM     10  N   UNL     1       0.097  -2.249   0.597  0.00  0.00    -0.333 N 
BRANCH  10  11
ATOM     11  C   UNL     1      -0.074  -3.078  -0.514  0.00  0.00    +0.029 A 
ATOM     12  C   UNL     1      -0.518  -4.383  -0.346  0.00  0.00    +0.023 A 
ATOM     13  C   UNL     1      -0.686  -5.200  -1.447  0.00  0.00    +0.002 A 
ATOM     14  C   UNL     1      -0.412  -4.720  -2.715  0.00  0.00    +0.000 A 
ATOM     15  C   UNL     1       0.030  -3.421  -2.885  0.00  0.00    +0.002 A 
ATOM     16  C   UNL     1       0.195  -2.597  -1.789  0.00  0.00    +0.023 A 
ENDBRANCH  10  11
ENDBRANCH   8  10
ENDBRANCH   1   8
BRANCH   4  17
ATOM     17  C   UNL     1      -4.951  -1.024   4.553  0.00  0.00    -0.019 C 
BRANCH  17  18
ATOM     18  C   UNL     1      -5.941  -1.656   3.608  0.00  0.00    +0.090 A 
ATOM     19  C   UNL     1      -7.012  -2.386   3.965  0.00  0.00    +0.043 A 
ATOM     20  C   UNL     1      -7.657  -2.779   2.769  0.00  0.00    +0.041 A 
ATOM     21  C   UNL     1      -6.941  -2.264   1.754  0.00  0.00    +0.195 A 
ATOM     22  O   UNL     1      -5.906  -1.580   2.268  0.00  0.00    -0.470 OA
ENDBRANCH  17  18
BRANCH  17  23
ATOM     23  C   UNL     1      -5.147   0.494   4.558  0.00  0.00    -0.094 C 
BRANCH  23  24
ATOM     24  N   UNL     1      -4.126   1.117   5.410  0.00  0.00    +0.377 N 
ATOM     25  H   UNL     1      -4.148   0.694   6.325  0.00  0.00    -0.090 HD
ATOM     26  H   UNL     1      -3.215   0.980   4.997  0.00  0.00    -0.090 HD
ATOM     27  H   UNL     1      -4.313   2.105   5.491  0.00  0.00    -0.090 HD
ENDBRANCH  23  24
ENDBRANCH  17  23
ENDBRANCH   4  17
TORSDOF 7
