REMARK  Name = ZINC38650868
REMARK  16 active torsions:
REMARK  status: ('A' for Active; 'I' for Inactive)
REMARK    1  A    between atoms: C_1  and  C_2
REMARK    2  A    between atoms: C_2  and  C_3
REMARK    3  A    between atoms: C_3  and  C_4
REMARK    4  A    between atoms: C_4  and  O_5
REMARK    5  A    between atoms: O_5  and  C_6
REMARK    6  A    between atoms: C_9  and  C_12
REMARK    7  A    between atoms: C_17  and  O_26
REMARK    8  A    between atoms: C_21  and  N_25
REMARK    9  A    between atoms: C_22  and  C_23
REMARK   10  A    between atoms: O_26  and  C_27
REMARK   11  A    between atoms: C_27  and  C_29
REMARK   12  A    between atoms: C_29  and  C_31
REMARK   13  A    between atoms: C_29  and  O_32
REMARK   14  A    between atoms: O_32  and  C_33
REMARK   15  A    between atoms: C_36  and  C_39
REMARK   16  A    between atoms: C_39  and  C_40
REMARK                            x       y       z     vdW  Elec       q    Type
REMARK                         _______ _______ _______ _____ _____    ______ ____
ROOT
ATOM      1  C   UNL     1       1.795  -8.196  -3.010  0.00  0.00    +0.098 C 
ATOM      2  C   UNL     1       1.127  -8.570  -4.307  0.00  0.00    +0.008 A 
ATOM      3  C   UNL     1      -0.255  -8.616  -4.372  0.00  0.00    +0.012 A 
ATOM      4  C   UNL     1      -0.885  -8.957  -5.553  0.00  0.00    +0.047 A 
ATOM      5  C   UNL     1      -0.132  -9.255  -6.680  0.00  0.00    +0.135 A 
ATOM      6  C   UNL     1       1.252  -9.210  -6.618  0.00  0.00    +0.093 A 
ATOM      7  C   UNL     1       1.884  -8.866  -5.430  0.00  0.00    +0.138 A 
ATOM      8  O   UNL     1       3.238  -8.827  -5.386  0.00  0.00    -0.441 OA
ATOM      9  C   UNL     1       3.872  -8.884  -4.202  0.00  0.00    +0.199 C 
ATOM     10  C   UNL     1       3.243  -8.595  -3.042  0.00  0.00    +0.098 C 
ENDROOT
BRANCH   1  14
ATOM     11  C   UNL     1       1.504  -3.972  -2.434  0.00  0.00    +0.121 A 
ATOM     12  C   UNL     1       0.941  -4.840  -1.510  0.00  0.00    +0.046 A 
ATOM     13  C   UNL     1       1.036  -6.205  -1.698  0.00  0.00    +0.008 A 
ATOM     14  C   UNL     1       1.692  -6.707  -2.807  0.00  0.00    -0.034 A 
ATOM     15  C   UNL     1       2.254  -5.844  -3.730  0.00  0.00    +0.008 A 
ATOM     16  C   UNL     1       2.156  -4.478  -3.549  0.00  0.00    +0.046 A 
BRANCH  11  17
ATOM     17  O   UNL     1       1.411  -2.628  -2.251  0.00  0.00    -0.492 OA
BRANCH  17  18
ATOM     18  C   UNL     1       0.725  -2.179  -1.081  0.00  0.00    +0.229 C 
BRANCH  18  19
ATOM     19  C   UNL     1       0.722  -0.649  -1.047  0.00  0.00    +0.041 C 
BRANCH  19  21
ATOM     20  C   UNL     1      -0.015   1.361   0.240  0.00  0.00    +0.004 C 
ATOM     21  C   UNL     1      -0.012  -0.168   0.206  0.00  0.00    -0.000 C 
ENDBRANCH  19  21
ENDBRANCH  18  19
ENDBRANCH  17  18
ENDBRANCH  11  17
ENDBRANCH   1  14
BRANCH   9  22
ATOM     22  N   UNL     1       5.196  -9.245  -4.173  0.00  0.00    -0.328 N 
ATOM     23  H   UNL     1       5.660  -9.454  -4.998  0.00  0.00    +0.145 HD
ATOM     24  H   UNL     1       5.667  -9.290  -3.326  0.00  0.00    +0.145 HD
ENDBRANCH   9  22
BRANCH  10  25
ATOM     25  C   UNL     1       3.976  -8.674  -1.814  0.00  0.00    +0.101 C 
ATOM     26  N   UNL     1       4.558  -8.735  -0.841  0.00  0.00    -0.191 NA
ENDBRANCH  10  25
BRANCH   5  27
ATOM     27  O   UNL     1      -0.750  -9.591  -7.842  0.00  0.00    -0.423 OA
BRANCH  27  28
ATOM     28  C   UNL     1      -0.584 -10.840  -8.306  0.00  0.00    +0.353 C 
ATOM     29  O   UNL     1       0.021 -11.654  -7.649  0.00  0.00    -0.246 OA
BRANCH  28  30
ATOM     30  C   UNL     1      -1.152 -11.227  -9.648  0.00  0.00    +0.279 C 
ATOM     31  C   UNL     1      -2.680 -11.157  -9.594  0.00  0.00    +0.064 C 
BRANCH  30  32
ATOM     32  O   UNL     1      -0.748 -12.560  -9.970  0.00  0.00    -0.478 OA
BRANCH  32  33
ATOM     33  C   UNL     1      -0.527 -12.838 -11.281  0.00  0.00    +0.122 A 
ATOM     34  C   UNL     1      -0.814 -11.887 -12.251  0.00  0.00    +0.046 A 
ATOM     35  C   UNL     1      -0.588 -12.172 -13.583  0.00  0.00    +0.007 A 
ATOM     36  C   UNL     1      -0.077 -13.403 -13.952  0.00  0.00    -0.047 A 
ATOM     37  C   UNL     1       0.209 -14.352 -12.988  0.00  0.00    +0.007 A 
ATOM     38  C   UNL     1      -0.009 -14.070 -11.653  0.00  0.00    +0.046 A 
BRANCH  36  39
ATOM     39  C   UNL     1       0.168 -13.711 -15.406  0.00  0.00    +0.032 C 
ATOM     40  C   UNL     1       1.591 -13.293 -15.784  0.00  0.00    +0.009 C 
ENDBRANCH  36  39
ENDBRANCH  32  33
ENDBRANCH  30  32
ENDBRANCH  28  30
ENDBRANCH  27  28
ENDBRANCH   5  27
TORSDOF 13
