REMARK  Name = ZINC06181468
REMARK  10 active torsions:
REMARK  status: ('A' for Active; 'I' for Inactive)
REMARK    1  A    between atoms: C_1  and  C_2
REMARK    2  A    between atoms: C_7  and  N_8
REMARK    3  A    between atoms: N_8  and  S_9
REMARK    4  A    between atoms: S_9  and  C_12
REMARK    5  A    between atoms: C_19  and  C_22
REMARK    6  A    between atoms: N_24  and  C_25
REMARK    7  A    between atoms: C_25  and  C_26
REMARK    8  A    between atoms: C_26  and  C_27
REMARK    9  A    between atoms: C_27  and  C_28
REMARK   10  A    between atoms: C_27  and  C_29
REMARK                            x       y       z     vdW  Elec       q    Type
REMARK                         _______ _______ _______ _____ _____    ______ ____
ROOT
ATOM      1  C   UNL     1       1.303   1.835   0.128  0.00  0.00    +0.109 A 
ATOM      2  C   UNL     1       1.352   3.226   0.145  0.00  0.00    +0.031 A 
ATOM      3  C   UNL     1       0.214   3.968   0.238  0.00  0.00    +0.028 A 
ATOM      4  C   UNL     1      -1.033   3.327   0.316  0.00  0.00    +0.050 A 
ATOM      5  C   UNL     1      -1.081   1.912   0.293  0.00  0.00    +0.048 A 
ATOM      6  C   UNL     1       0.111   1.178   0.203  0.00  0.00    +0.042 A 
ATOM      7  C   UNL     1      -2.335   1.266   0.371  0.00  0.00    +0.202 A 
ATOM      8  C   UNL     1      -3.478   2.067   0.463  0.00  0.00    +0.100 A 
ATOM      9  C   UNL     1      -3.340   3.465   0.474  0.00  0.00    +0.100 A 
ATOM     10  N   UNL     1      -2.165   4.038   0.411  0.00  0.00    -0.360 N 
ATOM     11  O   UNL     1      -2.427  -0.084   0.357  0.00  0.00    -0.286 OA
ATOM     12  H   UNL     1      -2.110   5.036   0.436  0.00  0.00    +0.165 HD
ENDROOT
BRANCH   8  13
ATOM     13  C   UNL     1      -4.814   1.452   0.547  0.00  0.00    +0.249 C 
ATOM     14  O   UNL     1      -4.928   0.241   0.537  0.00  0.00    -0.270 OA
ATOM     15  N   UNL     1      -5.911   2.230   0.636  0.00  0.00    -0.311 N 
ATOM     16  H   UNL     1      -5.821   3.196   0.644  0.00  0.00    +0.149 HD
BRANCH  15  17
ATOM     17  C   UNL     1      -7.239   1.618   0.720  0.00  0.00    +0.105 C 
BRANCH  17  18
ATOM     18  C   UNL     1      -8.302   2.715   0.811  0.00  0.00    +0.022 C 
BRANCH  18  19
ATOM     19  C   UNL     1      -9.689   2.076   0.898  0.00  0.00    -0.016 C 
ATOM     20  C   UNL     1      -9.806   1.289   2.205  0.00  0.00    +0.007 C 
ATOM     21  C   UNL     1     -10.758   3.170   0.864  0.00  0.00    +0.007 C 
ENDBRANCH  18  19
ENDBRANCH  17  18
ENDBRANCH  15  17
ENDBRANCH   8  13
BRANCH   1  22
ATOM     22  S   UNL     1       2.799   0.912   0.008  0.00  0.00    +0.072 S 
ATOM     23  O   UNL     1       3.835   1.751   0.500  0.00  0.00    -0.150 OA
ATOM     24  O   UNL     1       2.531  -0.370   0.560  0.00  0.00    -0.150 OA
BRANCH  22  25
ATOM     25  N   UNL     1       3.103   0.678  -1.603  0.00  0.00    -0.216 N 
ATOM     26  H   UNL     1       3.153  -0.221  -1.962  0.00  0.00    +0.174 HD
BRANCH  25  33
ATOM     27  C   UNL     1       2.113   0.509  -4.265  0.00  0.00    +0.046 C 
ATOM     28  C   UNL     1       2.820   1.738  -3.752  0.00  0.00    -0.028 A 
ATOM     29  C   UNL     1       3.002   2.827  -4.582  0.00  0.00    +0.005 A 
ATOM     30  C   UNL     1       3.649   3.955  -4.113  0.00  0.00    +0.000 A 
ATOM     31  C   UNL     1       4.116   3.998  -2.812  0.00  0.00    +0.002 A 
ATOM     32  C   UNL     1       3.932   2.915  -1.975  0.00  0.00    +0.025 A 
ATOM     33  C   UNL     1       3.287   1.778  -2.445  0.00  0.00    +0.051 A 
ENDBRANCH  25  33
ENDBRANCH  22  25
ENDBRANCH   1  22
TORSDOF 7
