REMARK  Name = ZINC40153036
REMARK  8 active torsions:
REMARK  status: ('A' for Active; 'I' for Inactive)
REMARK    1  A    between atoms: C_4  and  N_31
REMARK    2  A    between atoms: C_5  and  C_7
REMARK    3  A    between atoms: C_7  and  C_8
REMARK    4  A    between atoms: N_10  and  C_11
REMARK    5  A    between atoms: C_11  and  C_13
REMARK    6  A    between atoms: C_11  and  C_21
REMARK    7  A    between atoms: C_13  and  C_14
REMARK    8  A    between atoms: C_17  and  O_20
REMARK                            x       y       z     vdW  Elec       q    Type
REMARK                         _______ _______ _______ _____ _____    ______ ____
ROOT
ATOM      1  C   UNL     1       1.792  -4.495   2.997  0.00  0.00    +0.143 C 
ENDROOT
BRANCH   1   2
ATOM      2  C   UNL     1       3.199  -4.380   3.525  0.00  0.00    +0.129 A 
ATOM      3  N   UNL     1       4.234  -3.795   2.864  0.00  0.00    -0.340 N 
ATOM      4  H   UNL     1       4.197  -3.386   1.985  0.00  0.00    +0.167 HD
ATOM      5  C   UNL     1       5.346  -3.892   3.676  0.00  0.00    +0.066 A 
ATOM      6  C   UNL     1       6.669  -3.489   3.555  0.00  0.00    +0.028 A 
ATOM      7  C   UNL     1       7.557  -3.745   4.578  0.00  0.00    +0.002 A 
ATOM      8  C   UNL     1       7.137  -4.402   5.726  0.00  0.00    +0.002 A 
ATOM      9  C   UNL     1       5.839  -4.805   5.862  0.00  0.00    +0.030 A 
ATOM     10  C   UNL     1       4.921  -4.556   4.838  0.00  0.00    +0.089 A 
ATOM     11  N   UNL     1       3.599  -4.820   4.682  0.00  0.00    -0.231 NA
ENDBRANCH   1   2
BRANCH   1  14
ATOM     12  C   UNL     1       1.587  -2.678   1.386  0.00  0.00    +0.218 C 
ATOM     13  O   UNL     1       1.484  -1.905   2.315  0.00  0.00    -0.275 OA
ATOM     14  N   UNL     1       1.745  -3.996   1.620  0.00  0.00    -0.305 N 
ATOM     15  H   UNL     1       1.827  -4.614   0.877  0.00  0.00    +0.149 HD
BRANCH  12  16
ATOM     16  C   UNL     1       1.539  -2.165  -0.030  0.00  0.00    +0.133 C 
BRANCH  16  21
ATOM     17  C   UNL     1      -0.064   1.249  -0.208  0.00  0.00    +0.000 A 
ATOM     18  C   UNL     1       1.023   2.075   0.007  0.00  0.00    +0.002 A 
ATOM     19  C   UNL     1       2.277   1.530   0.209  0.00  0.00    +0.033 A 
ATOM     20  C   UNL     1       2.444   0.157   0.198  0.00  0.00    +0.130 A 
ATOM     21  C   UNL     1       1.357  -0.669  -0.016  0.00  0.00    -0.008 A 
ATOM     22  C   UNL     1       0.103  -0.123  -0.221  0.00  0.00    +0.006 A 
BRANCH  20  23
ATOM     23  N   UNL     1       3.786  -0.427   0.414  0.00  0.00    +0.057 N 
ATOM     24  O   UNL     1       4.753   0.294   0.496  0.00  0.00    -0.126 OA
ATOM     25  O   UNL     1       3.916  -1.625   0.508  0.00  0.00    -0.126 OA
ENDBRANCH  20  23
ENDBRANCH  16  21
ENDBRANCH  12  16
ENDBRANCH   1  14
BRANCH   1  26
ATOM     26  C   UNL     1       1.356  -5.961   3.023  0.00  0.00    +0.065 C 
BRANCH  26  27
ATOM     27  C   UNL     1      -0.090  -6.063   2.611  0.00  0.00    -0.045 A 
ATOM     28  C   UNL     1      -1.087  -5.984   3.566  0.00  0.00    +0.007 A 
ATOM     29  C   UNL     1      -2.413  -6.077   3.192  0.00  0.00    +0.045 A 
ATOM     30  C   UNL     1      -2.745  -6.249   1.855  0.00  0.00    +0.117 A 
ATOM     31  C   UNL     1      -1.743  -6.328   0.899  0.00  0.00    +0.045 A 
ATOM     32  C   UNL     1      -0.419  -6.229   1.278  0.00  0.00    +0.007 A 
BRANCH  30  33
ATOM     33  O   UNL     1      -4.049  -6.341   1.484  0.00  0.00    -0.507 OA
ATOM     34  H   UNL     1      -4.459  -5.491   1.272  0.00  0.00    +0.292 HD
ENDBRANCH  30  33
ENDBRANCH  26  27
ENDBRANCH   1  26
TORSDOF 8
