REMARK  Name = ZINC57742035
REMARK  8 active torsions:
REMARK  status: ('A' for Active; 'I' for Inactive)
REMARK    1  A    between atoms: C_1  and  C_2
REMARK    2  A    between atoms: C_2  and  C_3
REMARK    3  A    between atoms: C_3  and  N_4
REMARK    4  A    between atoms: C_5  and  C_7
REMARK    5  A    between atoms: C_7  and  C_9
REMARK    6  A    between atoms: C_7  and  N_10
REMARK    7  A    between atoms: C_11  and  C_13
REMARK    8  A    between atoms: C_22  and  C_25
REMARK                            x       y       z     vdW  Elec       q    Type
REMARK                         _______ _______ _______ _____ _____    ______ ____
ROOT
ATOM      1  C   UNL     1       2.459  -6.311  -5.234  0.00  0.00    +0.048 C 
ATOM      2  C   UNL     1       3.968  -6.343  -4.983  0.00  0.00    +0.019 C 
ATOM      3  C   UNL     1       4.684  -6.837  -6.241  0.00  0.00    -0.009 C 
ATOM      4  C   UNL     1       4.381  -5.891  -7.405  0.00  0.00    +0.007 C 
ATOM      5  C   UNL     1       2.872  -5.858  -7.656  0.00  0.00    -0.009 C 
ATOM      6  C   UNL     1       2.156  -5.365  -6.397  0.00  0.00    +0.019 C 
ATOM      7  C   UNL     1       2.382  -7.266  -8.003  0.00  0.00    +0.015 C 
ATOM      8  C   UNL     1       2.685  -8.212  -6.839  0.00  0.00    -0.003 C 
ATOM      9  C   UNL     1       4.194  -8.244  -6.588  0.00  0.00    +0.015 C 
ATOM     10  C   UNL     1       1.969  -7.719  -5.580  0.00  0.00    +0.027 C 
ENDROOT
BRANCH   8  11
ATOM     11  C   UNL     1       2.203  -9.598  -7.181  0.00  0.00    -0.041 A 
ATOM     12  C   UNL     1       1.248 -10.212  -6.392  0.00  0.00    +0.004 A 
ATOM     13  C   UNL     1       0.805 -11.483  -6.705  0.00  0.00    +0.000 A 
ATOM     14  C   UNL     1       1.318 -12.141  -7.808  0.00  0.00    +0.000 A 
ATOM     15  C   UNL     1       2.272 -11.528  -8.597  0.00  0.00    +0.000 A 
ATOM     16  C   UNL     1       2.712 -10.254  -8.286  0.00  0.00    +0.004 A 
ENDBRANCH   8  11
BRANCH   1  18
ATOM     17  N   UNL     1       2.027  -4.602  -3.498  0.00  0.00    -0.304 N 
ATOM     18  C   UNL     1       1.753  -5.825  -3.994  0.00  0.00    +0.220 C 
ATOM     19  O   UNL     1       0.939  -6.535  -3.442  0.00  0.00    -0.275 OA
ATOM     20  H   UNL     1       2.678  -4.035  -3.940  0.00  0.00    +0.149 HD
BRANCH  17  21
ATOM     21  C   UNL     1       1.341  -4.130  -2.293  0.00  0.00    +0.156 C 
ATOM     22  C   UNL     1       2.082  -4.636  -1.054  0.00  0.00    +0.038 C 
BRANCH  21  24
ATOM     23  N   UNL     1       0.738  -1.962  -1.265  0.00  0.00    -0.314 N 
ATOM     24  C   UNL     1       1.321  -2.623  -2.285  0.00  0.00    +0.233 C 
ATOM     25  O   UNL     1       1.829  -2.004  -3.196  0.00  0.00    -0.274 OA
ATOM     26  H   UNL     1       0.332  -2.457  -0.536  0.00  0.00    +0.149 HD
BRANCH  23  27
ATOM     27  C   UNL     1       0.718  -0.497  -1.257  0.00  0.00    +0.104 C 
BRANCH  27  29
ATOM     28  C   UNL     1      -0.019   1.526   0.010  0.00  0.00    +0.005 C 
ATOM     29  C   UNL     1       0.002  -0.004   0.002  0.00  0.00    +0.015 C 
ENDBRANCH  27  29
ENDBRANCH  23  27
ENDBRANCH  21  24
ENDBRANCH  17  21
ENDBRANCH   1  18
TORSDOF 6
