REMARK  Name = ZINC61594294
REMARK  9 active torsions:
REMARK  status: ('A' for Active; 'I' for Inactive)
REMARK    1  A    between atoms: C_1  and  C_2
REMARK    2  A    between atoms: C_2  and  C_3
REMARK    3  A    between atoms: C_3  and  C_5
REMARK    4  A    between atoms: C_3  and  N_23
REMARK    5  A    between atoms: C_5  and  C_7
REMARK    6  A    between atoms: C_5  and  S_13
REMARK    7  A    between atoms: S_13  and  C_14
REMARK    8  A    between atoms: N_20  and  C_21
REMARK    9  A    between atoms: C_21  and  C_22
REMARK                            x       y       z     vdW  Elec       q    Type
REMARK                         _______ _______ _______ _____ _____    ______ ____
ROOT
ATOM      1  C   UNL     1       0.820  -1.996  -1.165  0.00  0.00    +0.076 C 
ENDROOT
BRANCH   1   2
ATOM      2  C   UNL     1       1.573  -2.554   0.015  0.00  0.00    +0.003 A 
ATOM      3  C   UNL     1       1.109  -3.296   1.049  0.00  0.00    +0.013 A 
ATOM      4  C   UNL     1       1.992  -3.703   2.032  0.00  0.00    +0.023 A 
ATOM      5  C   UNL     1       3.297  -3.347   1.931  0.00  0.00    +0.055 A 
ATOM      6  S   UNL     1       3.308  -2.415   0.408  0.00  0.00    -0.085 S 
ATOM      7 BR   UNL     1       4.732  -3.741   3.097  0.00  0.00    -0.043 Br
ENDBRANCH   1   2
BRANCH   1   8
ATOM      8  C   UNL     1       0.946  -0.471  -1.176  0.00  0.00    -0.057 C 
BRANCH   8   9
ATOM      9  N   UNL     1       0.519   0.065   0.123  0.00  0.00    +0.381 N 
ATOM     10  H   UNL     1       0.514   1.073   0.086  0.00  0.00    -0.090 HD
ATOM     11  H   UNL     1      -0.410  -0.269   0.336  0.00  0.00    -0.090 HD
ATOM     12  H   UNL     1       1.159  -0.242   0.840  0.00  0.00    -0.090 HD
ENDBRANCH   8   9
BRANCH   8  14
ATOM     13  C   UNL     1       2.508   1.439  -1.569  0.00  0.00    +0.002 C 
ATOM     14  C   UNL     1       2.403  -0.082  -1.434  0.00  0.00    -0.018 C 
ENDBRANCH   8  14
ENDBRANCH   1   8
BRANCH   1  15
ATOM     15  S   UNL     1       1.514  -2.671  -2.700  0.00  0.00    -0.079 S 
BRANCH  15  16
ATOM     16  C   UNL     1       0.380  -2.153  -3.945  0.00  0.00    +0.193 A 
ATOM     17  N   UNL     1      -0.743  -1.529  -3.736  0.00  0.00    -0.145 NA
ATOM     18  N   UNL     1      -1.347  -1.297  -4.980  0.00  0.00    -0.226 N 
ATOM     19  H   UNL     1      -2.195  -0.850  -5.132  0.00  0.00    +0.194 HD
ATOM     20  C   UNL     1      -0.534  -1.810  -5.926  0.00  0.00    +0.345 A 
ATOM     21  O   UNL     1      -0.730  -1.796  -7.128  0.00  0.00    -0.245 OA
ATOM     22  N   UNL     1       0.538  -2.335  -5.300  0.00  0.00    -0.271 N 
BRANCH  22  23
ATOM     23  C   UNL     1       1.674  -2.992  -5.951  0.00  0.00    +0.125 C 
ATOM     24  C   UNL     1       1.390  -4.489  -6.086  0.00  0.00    +0.027 C 
ENDBRANCH  22  23
ENDBRANCH  15  16
ENDBRANCH   1  15
TORSDOF 7
