REMARK  Name = ZINC39974069
REMARK  10 active torsions:
REMARK  status: ('A' for Active; 'I' for Inactive)
REMARK    1  A    between atoms: C_1  and  C_2
REMARK    2  A    between atoms: C_2  and  O_3
REMARK    3  A    between atoms: O_3  and  C_4
REMARK    4  A    between atoms: C_4  and  C_6
REMARK    5  A    between atoms: C_10  and  N_11
REMARK    6  A    between atoms: N_11  and  C_12
REMARK    7  A    between atoms: C_12  and  N_14
REMARK    8  A    between atoms: N_14  and  C_15
REMARK    9  A    between atoms: C_15  and  C_17
REMARK   10  A    between atoms: C_15  and  C_18
REMARK                            x       y       z     vdW  Elec       q    Type
REMARK                         _______ _______ _______ _____ _____    ______ ____
ROOT
ATOM      1  C   UNL     1       1.449  -2.344  -2.516  0.00  0.00    +0.091 A 
ATOM      2  C   UNL     1       2.891  -2.619  -2.505  0.00  0.00    -0.021 A 
ATOM      3  C   UNL     1       3.341  -3.089  -3.682  0.00  0.00    -0.004 A 
ATOM      4  S   UNL     1       1.910  -3.214  -4.721  0.00  0.00    -0.077 S 
ATOM      5  C   UNL     1       0.745  -2.620  -3.672  0.00  0.00    +0.086 A 
ATOM      6  C   UNL     1       4.757  -3.393  -4.083  0.00  0.00    +0.043 C 
ATOM      7  C   UNL     1       5.434  -2.050  -4.414  0.00  0.00    +0.005 C 
ATOM      8  C   UNL     1       5.255  -1.115  -3.212  0.00  0.00    +0.000 C 
ATOM      9  C   UNL     1       5.971  -1.790  -2.060  0.00  0.00    +0.000 C 
ATOM     10  C   UNL     1       5.136  -2.843  -1.352  0.00  0.00    +0.005 C 
ATOM     11  C   UNL     1       3.678  -2.419  -1.214  0.00  0.00    +0.037 C 
ENDROOT
BRANCH   1  12
ATOM     12  C   UNL     1       0.776  -1.800  -1.335  0.00  0.00    +0.342 C 
ATOM     13  O   UNL     1       0.312  -2.552  -0.499  0.00  0.00    -0.245 OA
BRANCH  12  14
ATOM     14  O   UNL     1       0.671  -0.465  -1.174  0.00  0.00    -0.461 OA
BRANCH  14  16
ATOM     15  C   UNL     1      -0.019   1.526   0.010  0.00  0.00    +0.048 C 
ATOM     16  C   UNL     1       0.002  -0.004   0.002  0.00  0.00    +0.229 C 
ENDBRANCH  14  16
ENDBRANCH  12  14
ENDBRANCH   1  12
BRANCH   5  17
ATOM     17  N   UNL     1      -0.609  -2.444  -3.910  0.00  0.00    -0.291 N 
ATOM     18  H   UNL     1      -1.181  -2.087  -3.213  0.00  0.00    +0.154 HD
BRANCH  17  19
ATOM     19  C   UNL     1      -1.130  -2.770  -5.109  0.00  0.00    +0.135 C 
ATOM     20  S   UNL     1      -0.119  -3.401  -6.338  0.00  0.00    -0.019 S 
BRANCH  19  21
ATOM     21  N   UNL     1      -2.446  -2.600  -5.340  0.00  0.00    -0.319 N 
ATOM     22  H   UNL     1      -3.019  -2.242  -4.644  0.00  0.00    +0.148 HD
BRANCH  21  23
ATOM     23  C   UNL     1      -3.013  -2.954  -6.644  0.00  0.00    +0.106 C 
ATOM     24  C   UNL     1      -3.353  -4.446  -6.664  0.00  0.00    +0.033 C 
BRANCH  23  25
ATOM     25  C   UNL     1      -4.266  -2.151  -6.883  0.00  0.00    +0.010 A 
ATOM     26  C   UNL     1      -4.703  -1.572  -8.028  0.00  0.00    +0.013 A 
ATOM     27  C   UNL     1      -5.897  -0.875  -8.013  0.00  0.00    +0.008 A 
ATOM     28  C   UNL     1      -6.594  -0.791  -6.854  0.00  0.00    +0.045 A 
ATOM     29  S   UNL     1      -5.561  -1.720  -5.733  0.00  0.00    -0.100 S 
ENDBRANCH  23  25
ENDBRANCH  21  23
ENDBRANCH  19  21
ENDBRANCH  17  19
ENDBRANCH   5  17
TORSDOF 8
