REMARK  Name = ZINC36202421
REMARK  15 active torsions:
REMARK  status: ('A' for Active; 'I' for Inactive)
REMARK    1  A    between atoms: C_1  and  C_2
REMARK    2  A    between atoms: C_2  and  C_3
REMARK    3  A    between atoms: C_3  and  N_4
REMARK    4  A    between atoms: N_4  and  C_5
REMARK    5  A    between atoms: N_4  and  C_16
REMARK    6  A    between atoms: C_5  and  C_6
REMARK    7  A    between atoms: C_10  and  O_14
REMARK    8  A    between atoms: C_11  and  O_12
REMARK    9  A    between atoms: O_12  and  C_13
REMARK   10  A    between atoms: O_14  and  C_15
REMARK   11  A    between atoms: C_16  and  C_17
REMARK   12  A    between atoms: C_20  and  C_22
REMARK   13  A    between atoms: C_22  and  C_23
REMARK   14  A    between atoms: C_22  and  C_28
REMARK   15  A    between atoms: C_22  and  O_33
REMARK                            x       y       z     vdW  Elec       q    Type
REMARK                         _______ _______ _______ _____ _____    ______ ____
ROOT
ATOM      1  C   UNL     1      -1.827  -2.302   2.260  0.00  0.00    +0.089 A 
ATOM      2  C   UNL     1      -2.911  -3.027   2.588  0.00  0.00    +0.043 A 
ATOM      3  C   UNL     1      -3.496  -2.402   3.713  0.00  0.00    +0.048 A 
ATOM      4  C   UNL     1      -2.734  -1.333   4.005  0.00  0.00    +0.147 A 
ATOM      5  O   UNL     1      -1.721  -1.280   3.125  0.00  0.00    -0.463 OA
ENDROOT
BRANCH   1   6
ATOM      6  C   UNL     1      -0.886  -2.591   1.119  0.00  0.00    -0.003 C 
BRANCH   6   7
ATOM      7  N   UNL     1      -1.339  -1.876  -0.082  0.00  0.00    +0.387 N 
ATOM      8  H   UNL     1      -0.704  -2.062  -0.844  0.00  0.00    -0.081 HD
BRANCH   7   9
ATOM      9  C   UNL     1      -1.369  -0.433   0.189  0.00  0.00    -0.078 C 
BRANCH   9  11
ATOM     10  C   UNL     1       0.040   1.593   0.585  0.00  0.00    +0.002 C 
ATOM     11  C   UNL     1       0.056   0.070   0.431  0.00  0.00    -0.022 C 
ENDBRANCH   9  11
ENDBRANCH   7   9
BRANCH   7  12
ATOM     12  C   UNL     1      -2.686  -2.334  -0.446  0.00  0.00    -0.039 C 
BRANCH  12  13
ATOM     13  C   UNL     1      -3.102  -1.693  -1.745  0.00  0.00    -0.019 A 
ATOM     14  C   UNL     1      -3.938  -0.592  -1.736  0.00  0.00    +0.005 A 
ATOM     15  C   UNL     1      -4.321  -0.001  -2.925  0.00  0.00    +0.004 A 
ATOM     16  C   UNL     1      -3.869  -0.509  -4.130  0.00  0.00    +0.049 A 
ATOM     17  C   UNL     1      -3.032  -1.613  -4.146  0.00  0.00    +0.162 A 
ATOM     18  C   UNL     1      -2.641  -2.203  -2.947  0.00  0.00    +0.163 A 
BRANCH  18  19
ATOM     19  O   UNL     1      -1.815  -3.283  -2.958  0.00  0.00    -0.491 OA
ATOM     20  C   UNL     1      -2.430  -4.571  -3.021  0.00  0.00    +0.277 C 
ENDBRANCH  18  19
BRANCH  17  21
ATOM     21  O   UNL     1      -2.587  -2.114  -5.329  0.00  0.00    -0.491 OA
ATOM     22  C   UNL     1      -3.024  -1.453  -6.519  0.00  0.00    +0.277 C 
ENDBRANCH  17  21
ENDBRANCH  12  13
ENDBRANCH   7  12
ENDBRANCH   6   7
ENDBRANCH   1   6
BRANCH   4  23
ATOM     23  C   UNL     1      -2.974  -0.361   5.132  0.00  0.00    +0.186 C 
BRANCH  23  24
ATOM     24  C   UNL     1      -1.655   0.196   5.604  0.00  0.00    +0.034 A 
ATOM     25  C   UNL     1      -1.301   0.618   6.842  0.00  0.00    +0.015 A 
ATOM     26  C   UNL     1      -0.020   1.096   7.047  0.00  0.00    +0.008 A 
ATOM     27  C   UNL     1       0.843   1.129   6.002  0.00  0.00    +0.045 A 
ATOM     28  S   UNL     1      -0.153   0.465   4.678  0.00  0.00    -0.098 S 
ENDBRANCH  23  24
BRANCH  23  29
ATOM     29  C   UNL     1      -3.850   0.765   4.647  0.00  0.00    +0.034 A 
ATOM     30  C   UNL     1      -4.737   1.518   5.343  0.00  0.00    +0.015 A 
ATOM     31  C   UNL     1      -5.439   2.509   4.683  0.00  0.00    +0.008 A 
ATOM     32  C   UNL     1      -5.220   2.699   3.359  0.00  0.00    +0.045 A 
ATOM     33  S   UNL     1      -3.985   1.459   3.007  0.00  0.00    -0.098 S 
ENDBRANCH  23  29
BRANCH  23  34
ATOM     34  O   UNL     1      -3.620  -1.036   6.213  0.00  0.00    -0.371 OA
ATOM     35  H   UNL     1      -4.476  -1.420   5.981  0.00  0.00    +0.212 HD
ENDBRANCH  23  34
ENDBRANCH   4  23
TORSDOF 12
