REMARK  Name = ZINC46686067
REMARK  9 active torsions:
REMARK  status: ('A' for Active; 'I' for Inactive)
REMARK    1  A    between atoms: C_1  and  C_2
REMARK    2  A    between atoms: C_3  and  C_13
REMARK    3  A    between atoms: C_13  and  C_14
REMARK    4  A    between atoms: N_16  and  C_17
REMARK    5  A    between atoms: C_17  and  C_18
REMARK    6  A    between atoms: C_18  and  S_19
REMARK    7  A    between atoms: S_19  and  N_22
REMARK    8  A    between atoms: C_24  and  C_31
REMARK    9  A    between atoms: C_27  and  C_30
REMARK                            x       y       z     vdW  Elec       q    Type
REMARK                         _______ _______ _______ _____ _____    ______ ____
ROOT
ATOM      1  C   UNL     1       1.409  -0.102  -3.011  0.00  0.00    +0.217 C 
ATOM      2  O   UNL     1       2.338  -0.343  -2.270  0.00  0.00    -0.275 OA
ATOM      3  N   UNL     1       1.643   0.328  -4.267  0.00  0.00    -0.313 N 
ATOM      4  H   UNL     1       0.899   0.520  -4.860  0.00  0.00    +0.149 HD
ENDROOT
BRANCH   1   5
ATOM      5  C   UNL     1      -0.007  -0.284  -2.528  0.00  0.00    +0.133 C 
BRANCH   5   8
ATOM      6  C   UNL     1      -0.018   1.503   0.010  0.00  0.00    +0.063 C 
ATOM      7  C   UNL     1       0.002  -0.004   0.002  0.00  0.00    +0.018 A 
ATOM      8  C   UNL     1       0.007  -0.769  -1.101  0.00  0.00    -0.011 A 
ATOM      9  C   UNL     1       0.029  -2.164  -0.656  0.00  0.00    +0.005 A 
ATOM     10  C   UNL     1       0.043  -3.394  -1.317  0.00  0.00    +0.025 A 
ATOM     11  C   UNL     1       0.062  -4.553  -0.593  0.00  0.00    +0.019 A 
ATOM     12  C   UNL     1       0.067  -4.517   0.796  0.00  0.00    +0.017 A 
ATOM     13  C   UNL     1       0.054  -3.315   1.467  0.00  0.00    +0.027 A 
ATOM     14  C   UNL     1       0.035  -2.123   0.750  0.00  0.00    +0.047 A 
ATOM     15  N   UNL     1       0.024  -0.795   1.118  0.00  0.00    -0.358 N 
ATOM     16  H   UNL     1       0.028  -0.470   2.032  0.00  0.00    +0.166 HD
ATOM     17 BR   UNL     1       0.080  -6.218  -1.489  0.00  0.00    -0.050 Br
ENDBRANCH   5   8
ENDBRANCH   1   5
BRANCH   3  18
ATOM     18  C   UNL     1       3.019   0.504  -4.737  0.00  0.00    +0.128 C 
BRANCH  18  19
ATOM     19  C   UNL     1       3.004   0.997  -6.185  0.00  0.00    +0.204 C 
BRANCH  19  20
ATOM     20  S   UNL     1       4.709   1.216  -6.767  0.00  0.00    +0.033 S 
ATOM     21  O   UNL     1       5.327   2.292  -6.076  0.00  0.00    -0.158 OA
ATOM     22  O   UNL     1       5.356  -0.045  -6.871  0.00  0.00    -0.158 OA
BRANCH  20  23
ATOM     23  N   UNL     1       4.561   1.745  -8.329  0.00  0.00    -0.176 NA
ATOM     24  C   UNL     1       4.502   0.793  -9.449  0.00  0.00    +0.140 C 
ATOM     25  C   UNL     1       3.289   1.144 -10.319  0.00  0.00    +0.131 C 
ATOM     26  O   UNL     1       3.345   2.530 -10.666  0.00  0.00    -0.371 OA
ATOM     27  C   UNL     1       3.273   3.417  -9.547  0.00  0.00    +0.131 C 
ATOM     28  C   UNL     1       4.479   3.181  -8.637  0.00  0.00    +0.140 C 
ATOM     29  C   UNL     1       1.985   3.149  -8.765  0.00  0.00    +0.039 C 
ATOM     30  C   UNL     1       3.311   0.296 -11.592  0.00  0.00    +0.039 C 
ENDBRANCH  20  23
ENDBRANCH  19  20
ENDBRANCH  18  19
ENDBRANCH   3  18
TORSDOF 6
