REMARK  Name = ZINC41679673
REMARK  12 active torsions:
REMARK  status: ('A' for Active; 'I' for Inactive)
REMARK    1  A    between atoms: C_1  and  C_2
REMARK    2  A    between atoms: C_2  and  N_3
REMARK    3  A    between atoms: N_3  and  C_4
REMARK    4  A    between atoms: N_3  and  C_6
REMARK    5  A    between atoms: C_4  and  C_5
REMARK    6  A    between atoms: C_6  and  C_7
REMARK    7  A    between atoms: C_7  and  C_9
REMARK    8  A    between atoms: C_7  and  N_10
REMARK    9  A    between atoms: C_11  and  C_22
REMARK   10  A    between atoms: C_12  and  C_21
REMARK   11  A    between atoms: C_16  and  C_20
REMARK   12  A    between atoms: C_18  and  N_19
REMARK                            x       y       z     vdW  Elec       q    Type
REMARK                         _______ _______ _______ _____ _____    ______ ____
ROOT
ATOM      1  N   UNL     1      -2.861  -3.821  -0.791  0.00  0.00    -0.328 N 
ATOM      2  C   UNL     1      -3.398  -4.309  -1.954  0.00  0.00    +0.021 A 
ATOM      3  C   UNL     1      -3.235  -5.641  -2.007  0.00  0.00    -0.017 A 
ATOM      4  C   UNL     1      -2.539  -6.030  -0.782  0.00  0.00    +0.062 A 
ATOM      5  C   UNL     1      -2.325  -4.843  -0.058  0.00  0.00    +0.147 A 
ATOM      6  N   UNL     1      -1.696  -4.917   1.114  0.00  0.00    -0.214 NA
ATOM      7  C   UNL     1      -1.281  -6.074   1.582  0.00  0.00    +0.130 A 
ATOM      8  N   UNL     1      -1.457  -7.211   0.934  0.00  0.00    -0.217 NA
ATOM      9  C   UNL     1      -2.082  -7.241  -0.240  0.00  0.00    +0.129 A 
ATOM     10  C   UNL     1      -0.573  -6.103   2.912  0.00  0.00    +0.088 C 
ATOM     11  C   UNL     1      -3.682  -6.558  -3.116  0.00  0.00    +0.046 C 
ATOM     12  C   UNL     1      -4.072  -3.476  -3.014  0.00  0.00    +0.064 C 
ENDROOT
BRANCH   9  13
ATOM     13  N   UNL     1      -2.264  -8.434  -0.916  0.00  0.00    -0.343 N 
ATOM     14  H   UNL     1      -2.712  -8.441  -1.776  0.00  0.00    +0.144 HD
ATOM     15  H   UNL     1      -1.943  -9.264  -0.530  0.00  0.00    +0.144 HD
ENDBRANCH   9  13
BRANCH   1  16
ATOM     16  C   UNL     1      -2.857  -2.410  -0.395  0.00  0.00    +0.069 C 
ATOM     17  C   UNL     1      -3.605  -2.250   0.930  0.00  0.00    +0.029 C 
BRANCH  16  18
ATOM     18  C   UNL     1      -1.413  -1.932  -0.227  0.00  0.00    -0.054 C 
BRANCH  18  19
ATOM     19  N   UNL     1      -1.406  -0.499   0.095  0.00  0.00    +0.381 N 
ATOM     20  H   UNL     1      -1.987  -0.333   0.903  0.00  0.00    -0.082 HD
BRANCH  19  22
ATOM     21  C   UNL     1      -0.040   1.392   0.838  0.00  0.00    -0.017 C 
ATOM     22  C   UNL     1      -0.032  -0.069   0.383  0.00  0.00    -0.082 C 
ENDBRANCH  19  22
BRANCH  19  23
ATOM     23  C   UNL     1      -1.928   0.262  -1.049  0.00  0.00    -0.082 C 
ATOM     24  C   UNL     1      -1.056  -0.001  -2.277  0.00  0.00    -0.017 C 
ENDBRANCH  19  23
ENDBRANCH  18  19
ENDBRANCH  16  18
ENDBRANCH   1  16
TORSDOF 6
