REMARK  Name = ZINC04703933
REMARK  6 active torsions:
REMARK  status: ('A' for Active; 'I' for Inactive)
REMARK    1  A    between atoms: C_1  and  C_2
REMARK    2  A    between atoms: C_5  and  C_8
REMARK    3  A    between atoms: N_13  and  C_14
REMARK    4  A    between atoms: C_14  and  N_16
REMARK    5  A    between atoms: C_17  and  C_19
REMARK    6  A    between atoms: C_23  and  N_25
REMARK                            x       y       z     vdW  Elec       q    Type
REMARK                         _______ _______ _______ _____ _____    ______ ____
ROOT
ATOM      1  C   UNL     1       0.015  -8.498   1.702  0.00  0.00    +0.163 C 
ATOM      2  S   UNL     1       0.022  -9.023   0.072  0.00  0.00    -0.016 S 
ENDROOT
BRANCH   1   8
ATOM      3  C   UNL     1       0.041  -4.228  -0.020  0.00  0.00    +0.055 A 
ATOM      4  C   UNL     1       0.051  -4.994  -1.279  0.00  0.00    +0.074 A 
ATOM      5  S   UNL     1       0.080  -6.589  -0.747  0.00  0.00    -0.060 S 
ATOM      6  C   UNL     1       0.081  -6.300   1.011  0.00  0.00    +0.162 A 
ATOM      7  N   UNL     1       0.062  -4.931   1.107  0.00  0.00    -0.335 N 
ATOM      8  N   UNL     1       0.099  -7.187   1.985  0.00  0.00    -0.169 NA
ATOM      9  H   UNL     1       0.062  -4.491   1.971  0.00  0.00    +0.168 HD
BRANCH   3  14
ATOM     10  C   UNL     1      -0.061   1.503   0.014  0.00  0.00    +0.044 C 
ATOM     11  C   UNL     1      -0.034  -0.004   0.005  0.00  0.00    -0.050 A 
ATOM     12  C   UNL     1      -0.031  -0.685  -1.204  0.00  0.00    +0.004 A 
ATOM     13  C   UNL     1      -0.007  -2.051  -1.224  0.00  0.00    +0.010 A 
ATOM     14  C   UNL     1       0.016  -2.767  -0.011  0.00  0.00    -0.001 A 
ATOM     15  C   UNL     1       0.013  -2.065   1.210  0.00  0.00    +0.010 A 
ATOM     16  C   UNL     1      -0.007  -0.699   1.206  0.00  0.00    +0.004 A 
ENDBRANCH   3  14
ENDBRANCH   1   8
BRANCH   1  17
ATOM     17  N   UNL     1      -0.074  -9.399   2.700  0.00  0.00    -0.262 N 
ATOM     18  C   UNL     1      -0.158 -10.713   2.416  0.00  0.00    +0.250 C 
ATOM     19  O   UNL     1      -0.153 -11.086   1.259  0.00  0.00    -0.270 OA
ATOM     20  H   UNL     1      -0.078  -9.101   3.623  0.00  0.00    +0.157 HD
BRANCH  18  21
ATOM     21  C   UNL     1      -0.256 -11.701   3.511  0.00  0.00    +0.039 A 
ATOM     22  C   UNL     1      -0.268 -11.275   4.840  0.00  0.00    +0.013 A 
ATOM     23  C   UNL     1      -0.359 -12.203   5.857  0.00  0.00    +0.003 A 
ATOM     24  C   UNL     1      -0.439 -13.552   5.562  0.00  0.00    +0.033 A 
ATOM     25  C   UNL     1      -0.428 -13.981   4.247  0.00  0.00    +0.127 A 
ATOM     26  C   UNL     1      -0.343 -13.064   3.220  0.00  0.00    +0.045 A 
BRANCH  25  27
ATOM     27  N   UNL     1      -0.514 -15.426   3.941  0.00  0.00    +0.056 N 
ATOM     28  O   UNL     1      -0.601 -16.303   4.920  0.00  0.00    -0.126 OA
ATOM     29  O   UNL     1      -0.504 -15.836   2.689  0.00  0.00    -0.126 OA
ENDBRANCH  25  27
ENDBRANCH  18  21
ENDBRANCH   1  17
TORSDOF 5
