REMARK  Name = ZINC25734865
REMARK  5 active torsions:
REMARK  status: ('A' for Active; 'I' for Inactive)
REMARK    1  A    between atoms: C_3  and  N_15
REMARK    2  A    between atoms: C_5  and  S_7
REMARK    3  A    between atoms: S_7  and  C_10
REMARK    4  A    between atoms: N_15  and  C_16
REMARK    5  A    between atoms: C_16  and  C_17
REMARK                            x       y       z     vdW  Elec       q    Type
REMARK                         _______ _______ _______ _____ _____    ______ ____
ROOT
ATOM      1  C   UNL     1      -0.017   1.378   0.010  0.00  0.00    +0.004 A 
ATOM      2  C   UNL     1       1.169   2.087   0.002  0.00  0.00    +0.023 A 
ATOM      3  C   UNL     1       2.381   1.409  -0.013  0.00  0.00    +0.029 A 
ATOM      4  C   UNL     1       2.396   0.020  -0.021  0.00  0.00    +0.050 A 
ATOM      5  C   UNL     1       1.207  -0.682  -0.013  0.00  0.00    +0.090 A 
ATOM      6  C   UNL     1       0.002  -0.004   0.002  0.00  0.00    +0.027 A 
ENDROOT
BRANCH   5   7
ATOM      7  S   UNL     1       1.225  -2.444  -0.023  0.00  0.00    -0.000 S 
ATOM      8  O   UNL     1      -0.011  -2.816  -0.616  0.00  0.00    -0.169 OA
ATOM      9  O   UNL     1       2.458  -2.791  -0.640  0.00  0.00    -0.169 OA
BRANCH   7  10
ATOM     10  C   UNL     1       1.247  -2.920   1.727  0.00  0.00    +0.136 C 
ATOM     11  C   UNL     1       2.475  -2.302   2.427  0.00  0.00    +0.026 C 
ATOM     12  C   UNL     1       2.933  -3.394   3.425  0.00  0.00    +0.002 C 
ATOM     13  C   UNL     1       2.700  -4.703   2.631  0.00  0.00    +0.002 C 
ATOM     14  C   UNL     1       1.390  -4.447   1.856  0.00  0.00    +0.026 C 
ENDBRANCH   7  10
ENDBRANCH   5   7
BRANCH   3  15
ATOM     15  N   UNL     1       3.582   2.122  -0.021  0.00  0.00    -0.338 N 
ATOM     16  H   UNL     1       4.428   1.647  -0.032  0.00  0.00    +0.146 HD
BRANCH  15  17
ATOM     17  C   UNL     1       3.564   3.587  -0.014  0.00  0.00    +0.155 C 
BRANCH  17  18
ATOM     18  C   UNL     1       4.979   4.107  -0.025  0.00  0.00    +0.040 A 
ATOM     19  C   UNL     1       5.452   4.830  -1.099  0.00  0.00    +0.093 A 
ATOM     20  C   UNL     1       6.764   5.303  -1.091  0.00  0.00    +0.259 A 
ATOM     21  O   UNL     1       7.188   5.944  -2.039  0.00  0.00    -0.267 OA
ATOM     22  N   UNL     1       7.574   5.049  -0.020  0.00  0.00    -0.263 N 
ATOM     23  C   UNL     1       8.881   5.445   0.135  0.00  0.00    +0.104 A 
ATOM     24  C   UNL     1       9.569   5.133   1.232  0.00  0.00    +0.067 A 
ATOM     25  S   UNL     1       8.361   4.211   2.172  0.00  0.00    -0.059 S 
ATOM     26  C   UNL     1       7.024   4.324   1.003  0.00  0.00    +0.158 A 
ATOM     27  N   UNL     1       5.791   3.881   1.004  0.00  0.00    -0.337 N 
ATOM     28  H   UNL     1       5.466   3.376   1.767  0.00  0.00    +0.168 HD
ENDBRANCH  17  18
ENDBRANCH  15  17
ENDBRANCH   3  15
TORSDOF 5
