REMARK  Name = ZINC40147586
REMARK  4 active torsions:
REMARK  status: ('A' for Active; 'I' for Inactive)
REMARK    1  A    between atoms: C_14  and  C_15
REMARK    2  A    between atoms: N_16  and  N_17
REMARK    3  A    between atoms: C_22  and  C_25
REMARK    4  A    between atoms: C_25  and  C_26
REMARK                            x       y       z     vdW  Elec       q    Type
REMARK                         _______ _______ _______ _____ _____    ______ ____
ROOT
ATOM      1  N   UNL     1       7.176   0.291   0.030  0.00  0.00    -0.127 NA
ATOM      2  C   UNL     1       8.341  -0.321   0.115  0.00  0.00    +0.183 C 
ATOM      3  N   UNL     1       8.587  -1.673   0.210  0.00  0.00    -0.263 N 
ATOM      4  C   UNL     1       9.810  -2.169   0.289  0.00  0.00    +0.232 C 
ATOM      5  O   UNL     1      10.018  -3.361   0.372  0.00  0.00    -0.274 OA
ATOM      6  C   UNL     1      10.939  -1.151   0.267  0.00  0.00    +0.144 C 
ATOM      7  S   UNL     1       9.972   0.408   0.124  0.00  0.00    -0.075 S 
ATOM      8  H   UNL     1       7.834  -2.285   0.221  0.00  0.00    +0.157 HD
ENDROOT
BRANCH   1  10
ATOM      9  C   UNL     1       4.926   0.211  -0.046  0.00  0.00    +0.144 C 
ATOM     10  N   UNL     1       6.084  -0.397   0.038  0.00  0.00    -0.155 NA
BRANCH   9  24
ATOM     11  C   UNL     1       3.823  -4.741  -0.115  0.00  0.00    +0.001 A 
ATOM     12  C   UNL     1       5.005  -4.003  -0.124  0.00  0.00    +0.001 A 
ATOM     13  C   UNL     1       4.996  -2.642  -0.100  0.00  0.00    +0.009 A 
ATOM     14  C   UNL     1       3.771  -1.956  -0.065  0.00  0.00    -0.009 A 
ATOM     15  C   UNL     1       2.528  -2.729  -0.055  0.00  0.00    -0.017 A 
ATOM     16  C   UNL     1       2.606  -4.138  -0.082  0.00  0.00    +0.008 A 
ATOM     17  C   UNL     1       1.293  -2.078  -0.020  0.00  0.00    +0.017 A 
ATOM     18  C   UNL     1       1.239  -0.684   0.006  0.00  0.00    -0.017 A 
ATOM     19  C   UNL     1       0.003  -0.005   0.042  0.00  0.00    +0.008 A 
ATOM     20  C   UNL     1      -0.016   1.354   0.067  0.00  0.00    +0.001 A 
ATOM     21  C   UNL     1       1.161   2.101   0.058  0.00  0.00    +0.001 A 
ATOM     22  C   UNL     1       2.384   1.506   0.024  0.00  0.00    +0.009 A 
ATOM     23  C   UNL     1       2.473   0.104  -0.003  0.00  0.00    -0.009 A 
ATOM     24  C   UNL     1       3.727  -0.545  -0.038  0.00  0.00    +0.010 A 
ENDBRANCH   9  24
ENDBRANCH   1  10
BRANCH   6  25
ATOM     25  C   UNL     1      11.748  -1.192   1.565  0.00  0.00    +0.060 C 
BRANCH  25  26
ATOM     26  C   UNL     1      12.925  -0.258   1.453  0.00  0.00    -0.026 A 
ATOM     27  C   UNL     1      14.156  -0.743   1.053  0.00  0.00    +0.025 A 
ATOM     28  C   UNL     1      15.237   0.113   0.950  0.00  0.00    +0.041 A 
ATOM     29  C   UNL     1      15.086   1.456   1.248  0.00  0.00    +0.021 A 
ATOM     30  C   UNL     1      13.856   1.941   1.648  0.00  0.00    +0.022 A 
ATOM     31  C   UNL     1      12.773   1.085   1.746  0.00  0.00    +0.044 A 
ATOM     32 CL   UNL     1      11.226   1.696   2.242  0.00  0.00    -0.083 Cl
ATOM     33 CL   UNL     1      16.783  -0.496   0.448  0.00  0.00    -0.084 Cl
ENDBRANCH  25  26
ENDBRANCH   6  25
TORSDOF 4
