REMARK  Name = ZINC35730730
REMARK  10 active torsions:
REMARK  status: ('A' for Active; 'I' for Inactive)
REMARK    1  A    between atoms: C_1  and  C_2
REMARK    2  A    between atoms: C_2  and  C_3
REMARK    3  A    between atoms: C_2  and  N_4
REMARK    4  A    between atoms: C_5  and  N_15
REMARK    5  A    between atoms: N_15  and  C_16
REMARK    6  A    between atoms: C_19  and  C_22
REMARK    7  A    between atoms: N_24  and  C_25
REMARK    8  A    between atoms: C_25  and  C_27
REMARK    9  A    between atoms: C_25  and  C_34
REMARK   10  A    between atoms: C_27  and  C_28
REMARK                            x       y       z     vdW  Elec       q    Type
REMARK                         _______ _______ _______ _____ _____    ______ ____
ROOT
ATOM      1  C   UNL     1      -0.467  -2.895  -2.242  0.00  0.00    +0.029 A 
ATOM      2  C   UNL     1      -0.304  -1.918  -3.220  0.00  0.00    +0.024 A 
ATOM      3  C   UNL     1       0.460  -2.178  -4.334  0.00  0.00    +0.015 A 
ATOM      4  C   UNL     1       1.074  -3.426  -4.483  0.00  0.00    +0.037 A 
ATOM      5  C   UNL     1       0.909  -4.405  -3.499  0.00  0.00    +0.015 A 
ATOM      6  C   UNL     1       0.148  -4.136  -2.384  0.00  0.00    +0.024 A 
ENDROOT
BRANCH   4   7
ATOM      7  C   UNL     1       1.894  -3.708  -5.676  0.00  0.00    +0.245 C 
ATOM      8  O   UNL     1       2.037  -2.856  -6.532  0.00  0.00    -0.270 OA
ATOM      9  N   UNL     1       2.485  -4.911  -5.818  0.00  0.00    -0.304 N 
ATOM     10  H   UNL     1       2.371  -5.591  -5.136  0.00  0.00    +0.150 HD
BRANCH   9  11
ATOM     11  C   UNL     1       3.299  -5.192  -7.003  0.00  0.00    +0.108 C 
BRANCH  11  12
ATOM     12  C   UNL     1       4.702  -4.691  -6.779  0.00  0.00    -0.027 A 
ATOM     13  C   UNL     1       5.306  -4.853  -5.546  0.00  0.00    +0.005 A 
ATOM     14  C   UNL     1       6.593  -4.393  -5.341  0.00  0.00    +0.000 A 
ATOM     15  C   UNL     1       7.277  -3.771  -6.368  0.00  0.00    +0.000 A 
ATOM     16  C   UNL     1       6.674  -3.608  -7.601  0.00  0.00    +0.000 A 
ATOM     17  C   UNL     1       5.388  -4.072  -7.808  0.00  0.00    +0.005 A 
ENDBRANCH  11  12
BRANCH  11  18
ATOM     18  C   UNL     1       3.331  -6.701  -7.255  0.00  0.00    +0.062 C 
BRANCH  18  19
ATOM     19  C   UNL     1       1.945  -7.182  -7.600  0.00  0.00    -0.045 A 
ATOM     20  C   UNL     1       1.087  -7.595  -6.598  0.00  0.00    +0.004 A 
ATOM     21  C   UNL     1      -0.184  -8.037  -6.914  0.00  0.00    +0.000 A 
ATOM     22  C   UNL     1      -0.597  -8.065  -8.233  0.00  0.00    +0.000 A 
ATOM     23  C   UNL     1       0.260  -7.651  -9.235  0.00  0.00    +0.000 A 
ATOM     24  C   UNL     1       1.530  -7.205  -8.918  0.00  0.00    +0.004 A 
ENDBRANCH  18  19
ENDBRANCH  11  18
ENDBRANCH   9  11
ENDBRANCH   4   7
BRANCH   1  25
ATOM     25  N   UNL     1      -1.240  -2.628  -1.117  0.00  0.00    -0.322 N 
ATOM     26  H   UNL     1      -1.268  -3.265  -0.386  0.00  0.00    +0.148 HD
BRANCH  25  28
ATOM     27  N   UNL     1      -1.351  -0.439  -0.132  0.00  0.00    -0.272 N 
ATOM     28  C   UNL     1      -2.012  -1.386  -1.037  0.00  0.00    +0.193 C 
ATOM     29  C   UNL     1      -3.372  -1.657  -0.444  0.00  0.00    +0.003 A 
ATOM     30  C   UNL     1      -4.429  -2.447  -0.832  0.00  0.00    +0.008 A 
ATOM     31  C   UNL     1      -5.579  -2.492  -0.061  0.00  0.00    +0.000 A 
ATOM     32  C   UNL     1      -5.668  -1.744   1.099  0.00  0.00    +0.001 A 
ATOM     33  C   UNL     1      -4.614  -0.948   1.498  0.00  0.00    +0.013 A 
ATOM     34  C   UNL     1      -3.452  -0.898   0.726  0.00  0.00    +0.043 A 
ATOM     35  C   UNL     1      -2.183  -0.163   0.888  0.00  0.00    +0.249 C 
ATOM     36  O   UNL     1      -1.927   0.587   1.810  0.00  0.00    -0.270 OA
BRANCH  27  38
ATOM     37  C   UNL     1      -0.083   1.635  -0.404  0.00  0.00    +0.028 C 
ATOM     38  C   UNL     1      -0.004   0.110  -0.307  0.00  0.00    +0.072 C 
ATOM     39  C   UNL     1       0.866  -0.280   0.890  0.00  0.00    +0.028 C 
ENDBRANCH  27  38
ENDBRANCH  25  28
ENDBRANCH   1  25
TORSDOF 8
