REMARK  Name = ZINC41087123
REMARK  5 active torsions:
REMARK  status: ('A' for Active; 'I' for Inactive)
REMARK    1  A    between atoms: C_1  and  C_2
REMARK    2  A    between atoms: C_8  and  O_10
REMARK    3  A    between atoms: O_10  and  C_11
REMARK    4  A    between atoms: C_11  and  C_13
REMARK    5  A    between atoms: C_17  and  N_22
REMARK                            x       y       z     vdW  Elec       q    Type
REMARK                         _______ _______ _______ _____ _____    ______ ____
ROOT
ATOM      1  C   UNL     1       0.214   0.632   4.756  0.00  0.00    +0.213 A 
ATOM      2  C   UNL     1       0.878   0.881   5.915  0.00  0.00    +0.065 A 
ATOM      3  C   UNL     1      -0.132   1.328   6.873  0.00  0.00    +0.023 A 
ATOM      4  C   UNL     1      -0.093   1.727   8.211  0.00  0.00    +0.034 A 
ATOM      5  C   UNL     1      -1.263   2.100   8.845  0.00  0.00    +0.025 A 
ATOM      6  C   UNL     1      -2.473   2.077   8.153  0.00  0.00    +0.026 A 
ATOM      7  C   UNL     1      -2.520   1.685   6.834  0.00  0.00    +0.048 A 
ATOM      8  C   UNL     1      -1.355   1.306   6.177  0.00  0.00    +0.136 A 
ATOM      9  O   UNL     1      -1.101   0.891   4.919  0.00  0.00    -0.448 OA
ENDROOT
BRANCH   5  10
ATOM     10  N   UNL     1      -1.234   2.502  10.186  0.00  0.00    -0.358 N 
ATOM     11  H   UNL     1      -0.393   2.518  10.669  0.00  0.00    +0.142 HD
ATOM     12  H   UNL     1      -2.054   2.764  10.632  0.00  0.00    +0.142 HD
ENDBRANCH   5  10
BRANCH   1  13
ATOM     13  C   UNL     1       0.833   0.158   3.512  0.00  0.00    +0.375 C 
ATOM     14  O   UNL     1       2.031  -0.046   3.469  0.00  0.00    -0.241 OA
BRANCH  13  15
ATOM     15  O   UNL     1       0.073  -0.050   2.417  0.00  0.00    -0.455 OA
BRANCH  15  22
ATOM     16  C   UNL     1      -0.019   1.526   0.010  0.00  0.00    +0.011 C 
ATOM     17  C   UNL     1       0.002  -0.004   0.002  0.00  0.00    +0.027 C 
ATOM     18  C   UNL     1       0.718  -0.497  -1.257  0.00  0.00    +0.007 C 
ATOM     19  C   UNL     1       0.739  -2.027  -1.265  0.00  0.00    +0.000 C 
ATOM     20  C   UNL     1       1.479  -2.534  -0.026  0.00  0.00    +0.004 C 
ATOM     21  C   UNL     1       0.763  -2.041   1.233  0.00  0.00    +0.045 C 
ATOM     22  C   UNL     1       0.742  -0.511   1.242  0.00  0.00    +0.180 C 
ENDBRANCH  15  22
ENDBRANCH  13  15
ENDBRANCH   1  13
TORSDOF 4
