REMARK  Name = ZINC36801310
REMARK  8 active torsions:
REMARK  status: ('A' for Active; 'I' for Inactive)
REMARK    1  A    between atoms: C_1  and  C_2
REMARK    2  A    between atoms: C_16  and  C_17
REMARK    3  A    between atoms: C_17  and  O_19
REMARK    4  A    between atoms: O_19  and  C_20
REMARK    5  A    between atoms: C_20  and  C_22
REMARK    6  A    between atoms: C_20  and  C_23
REMARK    7  A    between atoms: N_25  and  C_26
REMARK    8  A    between atoms: C_32  and  C_34
REMARK                            x       y       z     vdW  Elec       q    Type
REMARK                         _______ _______ _______ _____ _____    ______ ____
ROOT
ATOM      1  C   UNL     1      -0.018   1.503   0.010  0.00  0.00    +0.046 C 
ATOM      2  C   UNL     1       0.002  -0.004   0.002  0.00  0.00    -0.015 A 
ATOM      3  C   UNL     1       0.005  -0.697  -1.210  0.00  0.00    +0.076 A 
ATOM      4  C   UNL     1       0.025  -2.108  -1.113  0.00  0.00    +0.116 A 
ATOM      5  N   UNL     1       0.025  -2.884  -2.188  0.00  0.00    -0.226 NA
ATOM      6  C   UNL     1       0.004  -2.387  -3.393  0.00  0.00    +0.114 A 
ATOM      7  N   UNL     1      -0.013  -1.041  -3.612  0.00  0.00    -0.296 N 
ATOM      8  C   UNL     1      -0.008  -0.165  -2.592  0.00  0.00    +0.263 A 
ATOM      9  O   UNL     1      -0.014   1.035  -2.799  0.00  0.00    -0.267 OA
ATOM     10  C   UNL     1      -0.040  -0.564  -5.001  0.00  0.00    +0.126 C 
ATOM     11  C   UNL     1      -1.432  -0.794  -5.583  0.00  0.00    +0.022 C 
ATOM     12  C   UNL     1      -1.537  -2.164  -6.231  0.00  0.00    +0.002 C 
ATOM     13  C   UNL     1      -1.402  -3.288  -5.218  0.00  0.00    +0.008 C 
ATOM     14  C   UNL     1      -0.008  -3.303  -4.595  0.00  0.00    +0.074 C 
ATOM     15  S   UNL     1       0.040  -2.396   0.639  0.00  0.00    -0.062 S 
ATOM     16  C   UNL     1       0.023  -0.695   1.179  0.00  0.00    +0.102 A 
ENDROOT
BRANCH  16  17
ATOM     17  C   UNL     1       0.028  -0.170   2.547  0.00  0.00    +0.347 C 
ATOM     18  O   UNL     1       0.012   1.031   2.737  0.00  0.00    -0.244 OA
BRANCH  17  19
ATOM     19  O   UNL     1       0.050  -1.019   3.595  0.00  0.00    -0.448 OA
BRANCH  19  20
ATOM     20  C   UNL     1       0.054  -0.438   4.900  0.00  0.00    +0.259 C 
ATOM     21  C   UNL     1      -1.387  -0.252   5.380  0.00  0.00    +0.062 C 
BRANCH  20  22
ATOM     22  C   UNL     1       0.787  -1.347   5.853  0.00  0.00    +0.254 C 
ATOM     23  O   UNL     1       1.259  -2.390   5.453  0.00  0.00    -0.272 OA
ATOM     24  N   UNL     1       0.917  -1.002   7.149  0.00  0.00    -0.309 N 
ATOM     25  H   UNL     1       0.539  -0.168   7.469  0.00  0.00    +0.149 HD
BRANCH  24  26
ATOM     26  C   UNL     1       1.629  -1.886   8.075  0.00  0.00    +0.076 C 
ATOM     27  C   UNL     1       3.130  -1.600   8.000  0.00  0.00    +0.022 C 
ATOM     28  C   UNL     1       3.874  -2.523   8.967  0.00  0.00    +0.002 C 
ATOM     29  C   UNL     1       3.378  -2.275  10.393  0.00  0.00    +0.000 C 
ATOM     30  C   UNL     1       1.877  -2.561  10.468  0.00  0.00    +0.005 C 
ATOM     31  C   UNL     1       1.133  -1.637   9.501  0.00  0.00    +0.006 C 
ATOM     32  C   UNL     1      -0.368  -1.923   9.576  0.00  0.00    +0.009 C 
ENDBRANCH  24  26
ENDBRANCH  20  22
ENDBRANCH  19  20
ENDBRANCH  17  19
ENDBRANCH  16  17
TORSDOF 5
