REMARK  Name = ZINC35729149
REMARK  11 active torsions:
REMARK  status: ('A' for Active; 'I' for Inactive)
REMARK    1  A    between atoms: C_1  and  C_2
REMARK    2  A    between atoms: C_2  and  C_3
REMARK    3  A    between atoms: C_2  and  C_4
REMARK    4  A    between atoms: C_2  and  C_5
REMARK    5  A    between atoms: C_8  and  S_11
REMARK    6  A    between atoms: S_11  and  N_14
REMARK    7  A    between atoms: C_18  and  C_20
REMARK    8  A    between atoms: C_26  and  C_28
REMARK    9  A    between atoms: C_31  and  N_34
REMARK   10  A    between atoms: N_34  and  C_35
REMARK   11  A    between atoms: N_34  and  C_36
REMARK                            x       y       z     vdW  Elec       q    Type
REMARK                         _______ _______ _______ _____ _____    ______ ____
ROOT
ATOM      1  N   UNL     1       2.574  -0.818  -6.165  0.00  0.00    -0.165 NA
ATOM      2  C   UNL     1       1.448  -0.783  -7.117  0.00  0.00    +0.110 C 
ATOM      3  C   UNL     1       1.323   0.705  -7.529  0.00  0.00    +0.019 C 
ATOM      4  C   UNL     1       2.811   1.140  -7.579  0.00  0.00    +0.031 C 
ATOM      5  C   UNL     1       3.443   0.340  -6.420  0.00  0.00    +0.166 C 
ENDROOT
BRANCH   5   6
ATOM      6  C   UNL     1       4.819  -0.129  -6.815  0.00  0.00    +0.238 C 
ATOM      7  O   UNL     1       5.060  -1.316  -6.880  0.00  0.00    -0.274 OA
ATOM      8  N   UNL     1       5.783   0.770  -7.097  0.00  0.00    -0.262 N 
ATOM      9  C   UNL     1       7.052   0.337  -7.462  0.00  0.00    +0.188 A 
ATOM     10  N   UNL     1       7.526  -0.894  -7.599  0.00  0.00    -0.125 NA
ATOM     11  N   UNL     1       8.719  -1.116  -7.941  0.00  0.00    -0.140 NA
ATOM     12  C   UNL     1       9.573  -0.129  -8.185  0.00  0.00    +0.134 A 
ATOM     13  S   UNL     1       8.512   1.282  -7.887  0.00  0.00    -0.030 S 
ATOM     14  H   UNL     1       5.590   1.719  -7.046  0.00  0.00    +0.157 HD
BRANCH  12  15
ATOM     15  C   UNL     1      10.993  -0.180  -8.591  0.00  0.00    +0.009 A 
ATOM     16  C   UNL     1      11.708   1.003  -8.788  0.00  0.00    +0.012 A 
ATOM     17  C   UNL     1      13.032   0.952  -9.167  0.00  0.00    +0.024 A 
ATOM     18  C   UNL     1      13.656  -0.276  -9.354  0.00  0.00    +0.029 A 
ATOM     19  C   UNL     1      12.947  -1.456  -9.159  0.00  0.00    +0.024 A 
ATOM     20  C   UNL     1      11.624  -1.412  -8.774  0.00  0.00    +0.012 A 
BRANCH  18  21
ATOM     21  N   UNL     1      14.996  -0.325  -9.738  0.00  0.00    -0.336 N 
ATOM     22  C   UNL     1      15.710   0.912 -10.066  0.00  0.00    +0.129 C 
ATOM     23  C   UNL     1      15.691  -1.613  -9.814  0.00  0.00    +0.129 C 
ENDBRANCH  18  21
ENDBRANCH  12  15
ENDBRANCH   5   6
BRANCH   1  24
ATOM     24  S   UNL     1       2.815  -1.966  -4.997  0.00  0.00    +0.062 S 
ATOM     25  O   UNL     1       4.205  -1.961  -4.702  0.00  0.00    -0.153 OA
ATOM     26  O   UNL     1       2.133  -3.135  -5.430  0.00  0.00    -0.153 OA
BRANCH  24  30
ATOM     27  C   UNL     1       0.696  -0.543  -1.258  0.00  0.00    -0.042 A 
ATOM     28  C   UNL     1       0.023  -1.324  -2.179  0.00  0.00    +0.006 A 
ATOM     29  C   UNL     1       0.670  -1.759  -3.321  0.00  0.00    +0.029 A 
ATOM     30  C   UNL     1       1.990  -1.412  -3.542  0.00  0.00    +0.106 A 
ATOM     31  C   UNL     1       2.662  -0.630  -2.622  0.00  0.00    +0.029 A 
ATOM     32  C   UNL     1       2.014  -0.192  -1.482  0.00  0.00    +0.006 A 
BRANCH  27  34
ATOM     33  C   UNL     1      -0.025   1.460   0.013  0.00  0.00    +0.015 C 
ATOM     34  C   UNL     1      -0.009  -0.070  -0.014  0.00  0.00    -0.013 C 
ATOM     35  C   UNL     1       0.727  -0.594   1.221  0.00  0.00    +0.015 C 
ATOM     36  C   UNL     1      -1.447  -0.595  -0.011  0.00  0.00    +0.015 C 
ENDBRANCH  27  34
ENDBRANCH  24  30
ENDBRANCH   1  24
TORSDOF 6
