REMARK  Name = ZINC15798863
REMARK  2 active torsions:
REMARK  status: ('A' for Active; 'I' for Inactive)
REMARK    1  A    between atoms: C_3  and  N_11
REMARK    2  A    between atoms: C_6  and  N_7
REMARK                            x       y       z     vdW  Elec       q    Type
REMARK                         _______ _______ _______ _____ _____    ______ ____
ROOT
ATOM      1  N   UNL     1       3.586   2.127  -0.021  0.00  0.00    -0.209 N 
ATOM      2  C   UNL     1       4.228   2.528  -1.169  0.00  0.00    +0.231 C 
ATOM      3  O   UNL     1       3.768   2.606  -2.287  0.00  0.00    -0.274 OA
ATOM      4  C   UNL     1       5.629   2.849  -0.725  0.00  0.00    +0.095 C 
ATOM      5  C   UNL     1       6.417   4.037  -1.288  0.00  0.00    +0.025 C 
ATOM      6  C   UNL     1       7.404   4.158  -0.039  0.00  0.00    +0.016 C 
ATOM      7  C   UNL     1       6.233   4.510   0.970  0.00  0.00    +0.025 C 
ATOM      8  C   UNL     1       5.146   3.528   0.622  0.00  0.00    +0.095 C 
ATOM      9  C   UNL     1       4.259   2.515   1.126  0.00  0.00    +0.231 C 
ATOM     10  O   UNL     1       4.134   2.106   2.261  0.00  0.00    -0.274 OA
ATOM     11  C   UNL     1       5.669   5.728   0.171  0.00  0.00    -0.027 C 
ATOM     12  C   UNL     1       5.710   5.369  -1.120  0.00  0.00    -0.027 C 
ENDROOT
BRANCH   1  15
ATOM     13  C   UNL     1      -0.017   1.378   0.010  0.00  0.00    +0.034 A 
ATOM     14  C   UNL     1       1.169   2.087   0.002  0.00  0.00    +0.027 A 
ATOM     15  C   UNL     1       2.381   1.410  -0.013  0.00  0.00    +0.058 A 
ATOM     16  C   UNL     1       2.397   0.021  -0.021  0.00  0.00    +0.042 A 
ATOM     17  C   UNL     1       1.207  -0.682  -0.013  0.00  0.00    +0.049 A 
ATOM     18  C   UNL     1       0.002  -0.004   0.002  0.00  0.00    +0.127 A 
ATOM     19 BR   UNL     1       4.045  -0.906  -0.042  0.00  0.00    -0.048 Br
BRANCH  18  20
ATOM     20  N   UNL     1      -1.270  -0.760   0.011  0.00  0.00    +0.056 N 
ATOM     21  O   UNL     1      -2.325  -0.169   0.024  0.00  0.00    -0.126 OA
ATOM     22  O   UNL     1      -1.256  -1.969   0.004  0.00  0.00    -0.126 OA
ENDBRANCH  18  20
ENDBRANCH   1  15
TORSDOF 2
