REMARK  Name = ZINC09461985
REMARK  9 active torsions:
REMARK  status: ('A' for Active; 'I' for Inactive)
REMARK    1  A    between atoms: C_1  and  C_2
REMARK    2  A    between atoms: C_9  and  N_27
REMARK    3  A    between atoms: C_10  and  C_13
REMARK    4  A    between atoms: N_17  and  C_21
REMARK    5  A    between atoms: C_21  and  C_22
REMARK    6  A    between atoms: N_27  and  C_28
REMARK    7  A    between atoms: C_28  and  C_29
REMARK    8  A    between atoms: C_29  and  C_31
REMARK    9  A    between atoms: C_29  and  O_37
REMARK                            x       y       z     vdW  Elec       q    Type
REMARK                         _______ _______ _______ _____ _____    ______ ____
ROOT
ATOM      1  C   UNL     1       5.155  -1.188  -4.875  0.00  0.00    +0.047 C 
ATOM      2  C   UNL     1       4.290  -0.638  -5.979  0.00  0.00    -0.007 A 
ATOM      3  C   UNL     1       4.551  -0.956  -7.279  0.00  0.00    +0.008 A 
ATOM      4  C   UNL     1       3.736  -0.436  -8.294  0.00  0.00    +0.019 A 
ATOM      5  C   UNL     1       2.700   0.375  -7.984  0.00  0.00    +0.096 A 
ATOM      6  N   UNL     1       2.431   0.699  -6.688  0.00  0.00    -0.267 N 
ATOM      7  C   UNL     1       3.208   0.207  -5.676  0.00  0.00    +0.145 A 
ATOM      8  N   UNL     1       2.961   0.513  -4.401  0.00  0.00    -0.214 NA
ATOM      9  C   UNL     1       1.955   1.304  -4.058  0.00  0.00    +0.134 A 
ATOM     10  C   UNL     1       1.113   1.838  -5.063  0.00  0.00    +0.081 A 
ATOM     11  C   UNL     1       1.388   1.511  -6.412  0.00  0.00    +0.267 A 
ATOM     12  O   UNL     1       0.691   1.951  -7.311  0.00  0.00    -0.267 OA
ENDROOT
BRANCH  10  13
ATOM     13  C   UNL     1       0.028   2.681  -4.728  0.00  0.00    +0.037 C 
ATOM     14  C   UNL     1       0.035   3.989  -5.115  0.00  0.00    +0.077 C 
ATOM     15  C   UNL     1       1.067   4.742  -5.744  0.00  0.00    +0.259 C 
ATOM     16  O   UNL     1       2.140   4.231  -6.015  0.00  0.00    -0.269 OA
ATOM     17  N   UNL     1       0.828   6.011  -6.028  0.00  0.00    -0.248 N 
ATOM     18  C   UNL     1      -0.359   6.580  -5.720  0.00  0.00    +0.121 C 
ATOM     19  S   UNL     1      -0.878   8.189  -5.987  0.00  0.00    -0.027 S 
ATOM     20  S   UNL     1      -1.247   5.226  -4.966  0.00  0.00    -0.061 S 
BRANCH  17  21
ATOM     21  C   UNL     1       1.866   6.813  -6.680  0.00  0.00    +0.189 C 
BRANCH  21  22
ATOM     22  C   UNL     1       2.732   7.463  -5.632  0.00  0.00    +0.122 A 
ATOM     23  C   UNL     1       3.846   6.936  -5.094  0.00  0.00    +0.046 A 
ATOM     24  C   UNL     1       4.335   7.877  -4.160  0.00  0.00    +0.041 A 
ATOM     25  C   UNL     1       3.490   8.923  -4.182  0.00  0.00    +0.195 A 
ATOM     26  O   UNL     1       2.524   8.669  -5.079  0.00  0.00    -0.466 OA
ENDBRANCH  21  22
ENDBRANCH  17  21
ENDBRANCH  10  13
BRANCH   9  27
ATOM     27  N   UNL     1       1.726   1.600  -2.732  0.00  0.00    -0.326 N 
ATOM     28  H   UNL     1       0.988   2.180  -2.485  0.00  0.00    +0.148 HD
BRANCH  27  29
ATOM     29  C   UNL     1       2.596   1.040  -1.696  0.00  0.00    +0.139 C 
BRANCH  29  30
ATOM     30  C   UNL     1       2.128   1.521  -0.321  0.00  0.00    +0.161 C 
BRANCH  30  31
ATOM     31  C   UNL     1       3.093   1.046   0.733  0.00  0.00    -0.018 A 
ATOM     32  C   UNL     1       3.018  -0.251   1.206  0.00  0.00    +0.006 A 
ATOM     33  C   UNL     1       3.907  -0.689   2.170  0.00  0.00    +0.000 A 
ATOM     34  C   UNL     1       4.865   0.174   2.669  0.00  0.00    +0.000 A 
ATOM     35  C   UNL     1       4.937   1.472   2.200  0.00  0.00    +0.000 A 
ATOM     36  C   UNL     1       4.051   1.908   1.232  0.00  0.00    +0.006 A 
ENDBRANCH  30  31
BRANCH  30  37
ATOM     37  O   UNL     1       0.828   0.993  -0.049  0.00  0.00    -0.386 OA
ATOM     38  H   UNL     1       0.789   0.027  -0.042  0.00  0.00    +0.210 HD
ENDBRANCH  30  37
ENDBRANCH  29  30
ENDBRANCH  27  29
ENDBRANCH   9  27
TORSDOF 8
