REMARK  Name = ZINC24104669
REMARK  17 active torsions:
REMARK  status: ('A' for Active; 'I' for Inactive)
REMARK    1  A    between atoms: C_1  and  C_2
REMARK    2  A    between atoms: C_2  and  C_3
REMARK    3  A    between atoms: C_3  and  C_4
REMARK    4  A    between atoms: C_4  and  N_5
REMARK    5  A    between atoms: N_5  and  C_6
REMARK    6  A    between atoms: C_7  and  N_18
REMARK    7  A    between atoms: N_8  and  C_15
REMARK    8  A    between atoms: C_15  and  C_16
REMARK    9  A    between atoms: C_16  and  C_17
REMARK   10  A    between atoms: C_19  and  C_21
REMARK   11  A    between atoms: C_21  and  N_22
REMARK   12  A    between atoms: N_22  and  C_23
REMARK   13  A    between atoms: N_22  and  C_25
REMARK   14  A    between atoms: C_23  and  C_24
REMARK   15  A    between atoms: C_25  and  C_26
REMARK   16  A    between atoms: C_29  and  O_33
REMARK   17  A    between atoms: O_33  and  C_34
REMARK                            x       y       z     vdW  Elec       q    Type
REMARK                         _______ _______ _______ _____ _____    ______ ____
ROOT
ATOM      1  N   UNL     1       1.466   1.372   0.026  0.00  0.00    -0.266 N 
ATOM      2  C   UNL     1       0.305   0.789  -0.339  0.00  0.00    +0.203 C 
ATOM      3  O   UNL     1       0.289  -0.380  -0.664  0.00  0.00    -0.277 OA
ENDROOT
BRANCH   1   4
ATOM      4  C   UNL     1       2.643   0.601   0.123  0.00  0.00    +0.140 A 
ATOM      5  C   UNL     1       2.740  -0.418   1.049  0.00  0.00    +0.127 A 
ATOM      6  N   UNL     1       3.901  -1.153   1.120  0.00  0.00    -0.280 N 
ATOM      7  C   UNL     1       4.929  -0.882   0.296  0.00  0.00    +0.331 A 
ATOM      8  O   UNL     1       5.947  -1.543   0.375  0.00  0.00    -0.246 OA
ATOM      9  N   UNL     1       4.853   0.106  -0.612  0.00  0.00    -0.273 N 
ATOM     10  H   UNL     1       5.708   0.314  -1.273  0.00  0.00    +0.173 HD
ATOM     11  C   UNL     1       3.737   0.852  -0.727  0.00  0.00    +0.277 A 
ATOM     12  O   UNL     1       3.676   1.743  -1.558  0.00  0.00    -0.266 OA
BRANCH   5  13
ATOM     13  N   UNL     1       1.690  -0.694   1.891  0.00  0.00    -0.343 N 
ATOM     14  H   UNL     1       1.774  -1.507   2.627  0.00  0.00    +0.144 HD
ATOM     15  H   UNL     1       0.765  -0.102   1.829  0.00  0.00    +0.144 HD
ENDBRANCH   5  13
BRANCH   6  16
ATOM     16  C   UNL     1       4.017  -2.237   2.099  0.00  0.00    +0.128 C 
BRANCH  16  17
ATOM     17  C   UNL     1       3.528  -3.544   1.472  0.00  0.00    +0.018 C 
ATOM     18  C   UNL     1       3.650  -4.676   2.494  0.00  0.00    +0.005 C 
ENDBRANCH  16  17
ENDBRANCH   6  16
ENDBRANCH   1   4
BRANCH   1  19
ATOM     19  C   UNL     1       1.504   2.807   0.321  0.00  0.00    +0.114 C 
BRANCH  19  20
ATOM     20  C   UNL     1       1.336   3.023   1.826  0.00  0.00    +0.019 C 
BRANCH  20  22
ATOM     21  C   UNL     1       1.207   4.737   3.639  0.00  0.00    +0.004 C 
ATOM     22  C   UNL     1       1.375   4.521   2.134  0.00  0.00    -0.002 C 
ENDBRANCH  20  22
ENDBRANCH  19  20
ENDBRANCH   1  19
BRANCH   2  23
ATOM     23  C   UNL     1      -0.970   1.592  -0.350  0.00  0.00    +0.020 C 
BRANCH  23  24
ATOM     24  N   UNL     1      -2.083   0.737  -0.786  0.00  0.00    +0.388 N 
ATOM     25  H   UNL     1      -1.790   0.259  -1.733  0.00  0.00    -0.081 HD
BRANCH  24  26
ATOM     26  C   UNL     1      -2.346  -0.325   0.193  0.00  0.00    -0.081 C 
ATOM     27  C   UNL     1      -3.216  -1.407  -0.450  0.00  0.00    -0.017 C 
ENDBRANCH  24  26
BRANCH  24  28
ATOM     28  C   UNL     1      -3.291   1.534  -1.037  0.00  0.00    -0.042 C 
BRANCH  28  29
ATOM     29  C   UNL     1      -3.148   2.266  -2.346  0.00  0.00    -0.061 A 
ATOM     30  C   UNL     1      -2.546   3.510  -2.378  0.00  0.00    +0.005 A 
ATOM     31  C   UNL     1      -2.408   4.183  -3.578  0.00  0.00    +0.049 A 
ATOM     32  C   UNL     1      -2.884   3.614  -4.749  0.00  0.00    +0.155 A 
ATOM     33  C   UNL     1      -3.493   2.366  -4.715  0.00  0.00    +0.165 A 
ATOM     34  C   UNL     1      -3.623   1.695  -3.512  0.00  0.00    +0.044 A 
ATOM     35  F   UNL     1      -3.958   1.808  -5.854  0.00  0.00    -0.202 F 
BRANCH  32  36
ATOM     36  O   UNL     1      -2.754   4.276  -5.929  0.00  0.00    -0.492 OA
ATOM     37  C   UNL     1      -2.118   5.555  -5.889  0.00  0.00    +0.277 C 
ENDBRANCH  32  36
ENDBRANCH  28  29
ENDBRANCH  24  28
ENDBRANCH  23  24
ENDBRANCH   2  23
TORSDOF 13
