REMARK  Name = ZINC02889013
REMARK  4 active torsions:
REMARK  status: ('A' for Active; 'I' for Inactive)
REMARK    1  A    between atoms: N_20  and  C_21
REMARK    2  A    between atoms: C_21  and  C_22
REMARK    3  A    between atoms: C_22  and  C_23
REMARK    4  A    between atoms: C_23  and  O_24
REMARK                            x       y       z     vdW  Elec       q    Type
REMARK                         _______ _______ _______ _____ _____    ______ ____
ROOT
ATOM      1  C   UNL     1       1.026  -4.934  -0.035  0.00  0.00    +0.001 A 
ATOM      2  C   UNL     1      -0.163  -4.218  -0.019  0.00  0.00    +0.001 A 
ATOM      3  C   UNL     1      -0.153  -2.840  -0.012  0.00  0.00    +0.012 A 
ATOM      4  C   UNL     1       1.064  -2.162  -0.020  0.00  0.00    +0.030 A 
ATOM      5  C   UNL     1       2.273  -2.888  -0.036  0.00  0.00    +0.027 A 
ATOM      6  C   UNL     1       2.241  -4.282  -0.043  0.00  0.00    +0.012 A 
ATOM      7  C   UNL     1       3.541  -2.145  -0.044  0.00  0.00    +0.148 A 
ATOM      8  N   UNL     1       3.535  -0.841  -0.036  0.00  0.00    -0.146 NA
ATOM      9  N   UNL     1       2.357  -0.087  -0.021  0.00  0.00    -0.176 N 
ATOM     10  C   UNL     1       1.128  -0.689  -0.012  0.00  0.00    +0.166 A 
ATOM     11  N   UNL     1       0.002  -0.004   0.002  0.00  0.00    -0.227 NA
ATOM     12  C   UNL     1      -0.016   1.338   0.009  0.00  0.00    +0.079 A 
ATOM     13  C   UNL     1      -1.216   2.059   0.030  0.00  0.00    +0.028 A 
ATOM     14  C   UNL     1      -1.184   3.424   0.033  0.00  0.00    +0.002 A 
ATOM     15  C   UNL     1       0.024   4.112   0.025  0.00  0.00    +0.001 A 
ATOM     16  C   UNL     1       1.213   3.438   0.009  0.00  0.00    +0.015 A 
ATOM     17  C   UNL     1       1.212   2.042   0.002  0.00  0.00    +0.067 A 
ATOM     18  C   UNL     1       2.453   1.265  -0.015  0.00  0.00    +0.282 A 
ATOM     19  O   UNL     1       3.539   1.816  -0.022  0.00  0.00    -0.265 OA
ATOM     20  N   UNL     1       4.746  -2.832  -0.059  0.00  0.00    -0.327 N 
ATOM     21  H   UNL     1       4.751  -3.802  -0.064  0.00  0.00    +0.148 HD
ENDROOT
BRANCH  20  22
ATOM     22  C   UNL     1       6.011  -2.093  -0.068  0.00  0.00    +0.105 C 
BRANCH  22  23
ATOM     23  C   UNL     1       7.179  -3.081  -0.085  0.00  0.00    +0.046 C 
BRANCH  23  24
ATOM     24  C   UNL     1       8.499  -2.308  -0.093  0.00  0.00    +0.157 C 
BRANCH  24  25
ATOM     25  O   UNL     1       9.591  -3.231  -0.109  0.00  0.00    -0.395 OA
ATOM     26  H   UNL     1      10.461  -2.810  -0.115  0.00  0.00    +0.209 HD
ENDBRANCH  24  25
ENDBRANCH  23  24
ENDBRANCH  22  23
ENDBRANCH  20  22
TORSDOF 4
