REMARK  Name = ZINC41095259
REMARK  8 active torsions:
REMARK  status: ('A' for Active; 'I' for Inactive)
REMARK    1  A    between atoms: C_1  and  C_2
REMARK    2  A    between atoms: C_2  and  C_3
REMARK    3  A    between atoms: C_3  and  O_4
REMARK    4  A    between atoms: O_4  and  C_5
REMARK    5  A    between atoms: C_10  and  S_15
REMARK    6  A    between atoms: S_15  and  N_18
REMARK    7  A    between atoms: N_18  and  C_19
REMARK    8  A    between atoms: C_25  and  C_27
REMARK                            x       y       z     vdW  Elec       q    Type
REMARK                         _______ _______ _______ _____ _____    ______ ____
ROOT
ATOM      1  C   UNL     1       1.341  -2.529  -2.322  0.00  0.00    +0.121 A 
ATOM      2  C   UNL     1       1.910  -1.746  -3.331  0.00  0.00    +0.046 A 
ATOM      3  C   UNL     1       2.521  -2.320  -4.402  0.00  0.00    +0.012 A 
ATOM      4  C   UNL     1       2.584  -3.721  -4.500  0.00  0.00    -0.016 A 
ATOM      5  C   UNL     1       3.208  -4.347  -5.592  0.00  0.00    +0.037 A 
ATOM      6  C   UNL     1       3.253  -5.706  -5.654  0.00  0.00    +0.106 A 
ATOM      7  C   UNL     1       2.687  -6.489  -4.650  0.00  0.00    +0.029 A 
ATOM      8  C   UNL     1       2.075  -5.918  -3.577  0.00  0.00    +0.010 A 
ATOM      9  C   UNL     1       2.009  -4.517  -3.478  0.00  0.00    -0.014 A 
ATOM     10  C   UNL     1       1.390  -3.893  -2.383  0.00  0.00    +0.054 A 
ENDROOT
BRANCH   6  11
ATOM     11  S   UNL     1       4.036  -6.487  -7.026  0.00  0.00    +0.059 S 
ATOM     12  O   UNL     1       3.470  -7.786  -7.131  0.00  0.00    -0.153 OA
ATOM     13  O   UNL     1       4.004  -5.553  -8.097  0.00  0.00    -0.153 OA
BRANCH  11  14
ATOM     14  N   UNL     1       5.629  -6.695  -6.627  0.00  0.00    -0.187 NA
ATOM     15  H   UNL     1       6.319  -6.224  -7.121  0.00  0.00    +0.148 HD
BRANCH  14  16
ATOM     16  C   UNL     1       5.998  -7.590  -5.527  0.00  0.00    +0.079 C 
ATOM     17  C   UNL     1       6.336  -8.973  -6.087  0.00  0.00    +0.020 C 
ATOM     18  C   UNL     1       7.507  -8.856  -7.064  0.00  0.00    +0.002 C 
ATOM     19  C   UNL     1       8.726  -8.290  -6.333  0.00  0.00    +0.000 C 
ATOM     20  C   UNL     1       8.389  -6.907  -5.773  0.00  0.00    +0.005 C 
ATOM     21  C   UNL     1       7.217  -7.024  -4.796  0.00  0.00    +0.005 C 
ATOM     22  C   UNL     1       6.879  -5.641  -4.236  0.00  0.00    +0.009 C 
ENDBRANCH  14  16
ENDBRANCH  11  14
ENDBRANCH   6  11
BRANCH   1  23
ATOM     23  O   UNL     1       0.738  -1.926  -1.265  0.00  0.00    -0.492 OA
BRANCH  23  24
ATOM     24  C   UNL     1       0.718  -0.497  -1.257  0.00  0.00    +0.229 C 
BRANCH  24  26
ATOM     25  C   UNL     1      -0.019   1.526   0.010  0.00  0.00    +0.007 C 
ATOM     26  C   UNL     1       0.002  -0.004   0.002  0.00  0.00    +0.038 C 
ENDBRANCH  24  26
ENDBRANCH  23  24
ENDBRANCH   1  23
TORSDOF 6
