REMARK  Name = ZINC04135009
REMARK  9 active torsions:
REMARK  status: ('A' for Active; 'I' for Inactive)
REMARK    1  A    between atoms: C_1  and  C_2
REMARK    2  A    between atoms: C_2  and  C_3
REMARK    3  A    between atoms: C_2  and  C_4
REMARK    4  A    between atoms: C_2  and  C_5
REMARK    5  A    between atoms: C_8  and  C_11
REMARK    6  A    between atoms: N_13  and  C_14
REMARK    7  A    between atoms: C_14  and  N_16
REMARK    8  A    between atoms: N_16  and  C_17
REMARK    9  A    between atoms: C_18  and  C_25
REMARK                            x       y       z     vdW  Elec       q    Type
REMARK                         _______ _______ _______ _____ _____    ______ ____
ROOT
ATOM      1  C   UNL     1       2.695  -1.859  -4.733  0.00  0.00    +0.250 C 
ATOM      2  O   UNL     1       2.105  -2.558  -5.533  0.00  0.00    -0.270 OA
ATOM      3  N   UNL     1       3.980  -1.519  -4.954  0.00  0.00    -0.264 N 
ATOM      4  H   UNL     1       4.451  -0.961  -4.315  0.00  0.00    +0.157 HD
ENDROOT
BRANCH   1   8
ATOM      5  C   UNL     1       0.707  -0.490  -1.238  0.00  0.00    -0.042 A 
ATOM      6  C   UNL     1       0.033  -1.285  -2.147  0.00  0.00    +0.005 A 
ATOM      7  C   UNL     1       0.672  -1.733  -3.285  0.00  0.00    +0.013 A 
ATOM      8  C   UNL     1       2.003  -1.382  -3.517  0.00  0.00    +0.037 A 
ATOM      9  C   UNL     1       2.679  -0.580  -2.595  0.00  0.00    +0.013 A 
ATOM     10  C   UNL     1       2.025  -0.135  -1.464  0.00  0.00    +0.005 A 
BRANCH   5  12
ATOM     11  C   UNL     1      -0.019   1.526   0.010  0.00  0.00    +0.015 C 
ATOM     12  C   UNL     1       0.002  -0.004   0.002  0.00  0.00    -0.013 C 
ATOM     13  C   UNL     1       0.742  -0.511   1.242  0.00  0.00    +0.015 C 
ATOM     14  C   UNL     1      -1.433  -0.534   0.013  0.00  0.00    +0.015 C 
ENDBRANCH   5  12
ENDBRANCH   1   8
BRANCH   3  15
ATOM     15  C   UNL     1       4.611  -1.954  -6.063  0.00  0.00    +0.141 C 
ATOM     16  S   UNL     1       3.780  -2.938  -7.190  0.00  0.00    -0.018 S 
BRANCH  15  17
ATOM     17  N   UNL     1       5.896  -1.613  -6.284  0.00  0.00    -0.290 N 
ATOM     18  H   UNL     1       6.367  -1.056  -5.645  0.00  0.00    +0.154 HD
BRANCH  17  19
ATOM     19  C   UNL     1       6.546  -2.061  -7.425  0.00  0.00    +0.089 A 
ATOM     20  C   UNL     1       7.851  -1.819  -7.810  0.00  0.00    +0.084 A 
ATOM     21  C   UNL     1       8.298  -2.411  -9.070  0.00  0.00    -0.018 A 
ATOM     22  C   UNL     1       7.354  -3.130  -9.704  0.00  0.00    -0.004 A 
ATOM     23  S   UNL     1       5.930  -3.026  -8.651  0.00  0.00    -0.077 S 
ATOM     24  C   UNL     1       7.865  -3.712 -10.994  0.00  0.00    +0.043 C 
ATOM     25  C   UNL     1       9.146  -2.906 -11.306  0.00  0.00    +0.010 C 
ATOM     26  C   UNL     1       9.580  -2.448  -9.899  0.00  0.00    +0.037 C 
BRANCH  20  27
ATOM     27  C   UNL     1       8.729  -1.021  -7.008  0.00  0.00    +0.102 C 
ATOM     28  N   UNL     1       9.425  -0.388  -6.372  0.00  0.00    -0.191 NA
ENDBRANCH  20  27
ENDBRANCH  17  19
ENDBRANCH  15  17
ENDBRANCH   3  15
TORSDOF 6
