REMARK  Name = ZINC05331392
REMARK  2 active torsions:
REMARK  status: ('A' for Active; 'I' for Inactive)
REMARK    1  A    between atoms: C_6  and  N_7
REMARK    2  A    between atoms: C_10  and  C_13
REMARK                            x       y       z     vdW  Elec       q    Type
REMARK                         _______ _______ _______ _____ _____    ______ ____
ROOT
ATOM      1  N   UNL     1       5.962   3.485  -0.034  0.00  0.00    -0.293 N 
ATOM      2  C   UNL     1       4.650   3.921   0.012  0.00  0.00    +0.183 A 
ATOM      3  N   UNL     1       3.544   3.224   0.223  0.00  0.00    -0.202 NA
ATOM      4  C   UNL     1       2.387   3.858   0.223  0.00  0.00    +0.190 A 
ATOM      5  N   UNL     1       2.361   5.160   0.009  0.00  0.00    -0.186 NA
ATOM      6  S   UNL     1       4.022   5.525  -0.191  0.00  0.00    +0.050 S 
ATOM      7  H   UNL     1       6.160   2.536   0.011  0.00  0.00    +0.154 HD
ENDROOT
BRANCH   1  13
ATOM      8  C   UNL     1       8.156   4.083  -0.847  0.00  0.00    +0.024 A 
ATOM      9  C   UNL     1       9.180   5.002  -0.959  0.00  0.00    +0.017 A 
ATOM     10  C   UNL     1       9.065   6.245  -0.361  0.00  0.00    +0.018 A 
ATOM     11  C   UNL     1       7.921   6.572   0.345  0.00  0.00    +0.017 A 
ATOM     12  C   UNL     1       6.891   5.659   0.455  0.00  0.00    +0.024 A 
ATOM     13  C   UNL     1       7.004   4.411  -0.144  0.00  0.00    +0.033 A 
ATOM     14 BR   UNL     1      10.473   7.498  -0.511  0.00  0.00    -0.050 Br
ENDBRANCH   1  13
BRANCH   4  15
ATOM     15  C   UNL     1       1.125   3.113   0.455  0.00  0.00    +0.126 A 
ATOM     16  C   UNL     1      -0.096   3.788   0.455  0.00  0.00    +0.142 A 
ATOM     17  N   UNL     1      -1.215   3.120   0.662  0.00  0.00    -0.260 NA
ATOM     18  C   UNL     1      -1.180   1.814   0.865  0.00  0.00    +0.130 A 
ATOM     19  C   UNL     1       0.030   1.142   0.871  0.00  0.00    +0.131 A 
ATOM     20  N   UNL     1       1.155   1.801   0.664  0.00  0.00    -0.249 NA
ENDBRANCH   4  15
TORSDOF 2
