REMARK  Name = ZINC12376922
REMARK  6 active torsions:
REMARK  status: ('A' for Active; 'I' for Inactive)
REMARK    1  A    between atoms: C_4  and  C_7
REMARK    2  A    between atoms: C_8  and  C_18
REMARK    3  A    between atoms: C_10  and  S_12
REMARK    4  A    between atoms: S_12  and  C_13
REMARK    5  A    between atoms: C_13  and  C_14
REMARK    6  A    between atoms: N_15  and  O_16
REMARK                            x       y       z     vdW  Elec       q    Type
REMARK                         _______ _______ _______ _____ _____    ______ ____
ROOT
ATOM      1  C   UNL     1       3.580  -0.548  -0.164  0.00  0.00    +0.118 A 
ATOM      2  C   UNL     1       3.822  -1.665   0.608  0.00  0.00    +0.164 A 
ATOM      3  O   UNL     1       5.114  -2.011   0.396  0.00  0.00    -0.430 OA
ATOM      4  C   UNL     1       5.640  -1.135  -0.475  0.00  0.00    +0.258 A 
ATOM      5  N   UNL     1       4.726  -0.260  -0.819  0.00  0.00    -0.203 NA
ENDROOT
BRANCH   1   9
ATOM      6  C   UNL     1      -0.089   1.579  -0.442  0.00  0.00    +0.000 A 
ATOM      7  C   UNL     1       0.361   1.140   0.790  0.00  0.00    +0.001 A 
ATOM      8  C   UNL     1       1.551   0.449   0.887  0.00  0.00    +0.010 A 
ATOM      9  C   UNL     1       2.301   0.193  -0.261  0.00  0.00    +0.004 A 
ATOM     10  C   UNL     1       1.842   0.638  -1.500  0.00  0.00    +0.010 A 
ATOM     11  C   UNL     1       0.650   1.328  -1.584  0.00  0.00    +0.001 A 
ENDBRANCH   1   9
BRANCH   2  12
ATOM     12  C   UNL     1       2.862  -2.349   1.493  0.00  0.00    +0.020 A 
ATOM     13  C   UNL     1       1.580  -2.660   1.031  0.00  0.00    +0.011 A 
ATOM     14  C   UNL     1       0.687  -3.300   1.865  0.00  0.00    +0.001 A 
ATOM     15  C   UNL     1       1.058  -3.635   3.155  0.00  0.00    +0.000 A 
ATOM     16  C   UNL     1       2.325  -3.330   3.619  0.00  0.00    +0.001 A 
ATOM     17  C   UNL     1       3.231  -2.695   2.796  0.00  0.00    +0.011 A 
ENDBRANCH   2  12
BRANCH   4  18
ATOM     18  S   UNL     1       7.298  -1.161  -1.070  0.00  0.00    -0.059 S 
BRANCH  18  19
ATOM     19  C   UNL     1       7.383   0.259  -2.197  0.00  0.00    +0.153 C 
BRANCH  19  20
ATOM     20  C   UNL     1       8.768   0.353  -2.783  0.00  0.00    +0.142 C 
ATOM     21  N   UNL     1       9.085   1.356  -3.533  0.00  0.00    -0.076 NA
ATOM     22  N   UNL     1       9.695  -0.630  -2.519  0.00  0.00    -0.343 N 
ATOM     23  H   UNL     1       9.457  -1.383  -1.956  0.00  0.00    +0.144 HD
ATOM     24  H   UNL     1      10.587  -0.569  -2.897  0.00  0.00    +0.144 HD
BRANCH  21  25
ATOM     25  O   UNL     1       8.101   2.308  -3.894  0.00  0.00    -0.408 OA
ATOM     26  H   UNL     1       8.433   3.022  -4.457  0.00  0.00    +0.328 HD
ENDBRANCH  21  25
ENDBRANCH  19  20
ENDBRANCH  18  19
ENDBRANCH   4  18
TORSDOF 6
