REMARK  Name = ZINC63572459
REMARK  2 active torsions:
REMARK  status: ('A' for Active; 'I' for Inactive)
REMARK    1  A    between atoms: C_6  and  C_7
REMARK    2  A    between atoms: N_25  and  C_26
REMARK                            x       y       z     vdW  Elec       q    Type
REMARK                         _______ _______ _______ _____ _____    ______ ____
ROOT
ATOM      1  C   UNL     1      -1.150  -1.614   0.572  0.00  0.00    +0.134 C 
ATOM      2  C   UNL     1      -1.583  -2.577   1.683  0.00  0.00    +0.131 C 
ATOM      3  C   UNL     1      -2.854  -3.260   1.195  0.00  0.00    -0.035 C 
ATOM      4  C   UNL     1      -3.780  -3.034   2.120  0.00  0.00    +0.001 A 
ATOM      5  C   UNL     1      -5.174  -3.491   2.242  0.00  0.00    +0.030 A 
ATOM      6  C   UNL     1      -5.855  -3.051   3.334  0.00  0.00    +0.042 A 
ATOM      7  C   UNL     1      -5.295  -2.213   4.304  0.00  0.00    +0.022 A 
ATOM      8  C   UNL     1      -4.021  -1.748   4.273  0.00  0.00    +0.027 A 
ATOM      9  C   UNL     1      -3.204  -2.146   3.175  0.00  0.00    +0.043 A 
ATOM     10  N   UNL     1      -1.940  -1.865   2.912  0.00  0.00    -0.375 N 
ATOM     11 CL   UNL     1      -7.504  -3.556   3.534  0.00  0.00    -0.084 Cl
ATOM     12  C   UNL     1      -2.938  -3.957  -0.141  0.00  0.00    +0.052 C 
ATOM     13  C   UNL     1      -2.404  -2.967  -1.192  0.00  0.00    +0.114 C 
ATOM     14  N   UNL     1      -1.166  -2.354  -0.699  0.00  0.00    -0.276 N 
ATOM     15  C   UNL     1      -0.032  -2.471  -1.418  0.00  0.00    +0.307 C 
ATOM     16  O   UNL     1       1.028  -2.109  -0.945  0.00  0.00    -0.252 OA
ATOM     17  N   UNL     1      -0.073  -2.989  -2.662  0.00  0.00    -0.269 N 
ATOM     18  H   UNL     1      -0.927  -3.190  -3.075  0.00  0.00    +0.156 HD
ATOM     19  H   UNL     1      -1.350  -1.292   3.427  0.00  0.00    +0.160 HD
ENDROOT
BRANCH  17  20
ATOM     20  C   UNL     1       1.118  -3.237  -3.356  0.00  0.00    +0.036 A 
ATOM     21  C   UNL     1       2.236  -2.447  -3.124  0.00  0.00    +0.026 A 
ATOM     22  C   UNL     1       3.409  -2.693  -3.809  0.00  0.00    +0.041 A 
ATOM     23  C   UNL     1       3.472  -3.727  -4.729  0.00  0.00    +0.142 A 
ATOM     24  C   UNL     1       2.358  -4.516  -4.963  0.00  0.00    +0.078 A 
ATOM     25  C   UNL     1       1.183  -4.277  -4.274  0.00  0.00    +0.046 A 
ATOM     26 CL   UNL     1       2.438  -5.810  -6.117  0.00  0.00    -0.081 Cl
ATOM     27  F   UNL     1       4.621  -3.965  -5.398  0.00  0.00    -0.204 F 
ENDBRANCH  17  20
BRANCH   1  33
ATOM     28  C   UNL     1       0.576   0.198   0.546  0.00  0.00    +0.008 A 
ATOM     29  C   UNL     1       1.852   0.663   0.801  0.00  0.00    +0.038 A 
ATOM     30  C   UNL     1       2.797  -0.180   1.360  0.00  0.00    +0.123 A 
ATOM     31  C   UNL     1       2.462  -1.489   1.664  0.00  0.00    +0.038 A 
ATOM     32  C   UNL     1       1.185  -1.952   1.409  0.00  0.00    +0.008 A 
ATOM     33  C   UNL     1       0.242  -1.108   0.850  0.00  0.00    -0.025 A 
ATOM     34  F   UNL     1       4.045   0.273   1.609  0.00  0.00    -0.205 F 
ENDBRANCH   1  33
TORSDOF 2
