REMARK  Name = ZINC19782980
REMARK  2 active torsions:
REMARK  status: ('A' for Active; 'I' for Inactive)
REMARK    1  A    between atoms: C_3  and  S_6
REMARK    2  A    between atoms: S_6  and  N_9
REMARK                            x       y       z     vdW  Elec       q    Type
REMARK                         _______ _______ _______ _____ _____    ______ ____
ROOT
ATOM      1  S   UNL     1      -1.351  -1.132   0.009  0.00  0.00    +0.067 S 
ATOM      2  O   UNL     1      -2.466  -0.433  -0.527  0.00  0.00    -0.152 OA
ATOM      3  O   UNL     1      -0.871  -2.346  -0.552  0.00  0.00    -0.152 OA
ENDROOT
BRANCH   1   4
ATOM      4  N   UNL     1      -1.712  -1.454   1.593  0.00  0.00    -0.176 NA
ATOM      5  C   UNL     1      -1.071  -2.574   2.295  0.00  0.00    +0.111 C 
ATOM      6  C   UNL     1      -2.152  -3.464   2.904  0.00  0.00    +0.036 C 
ATOM      7  C   UNL     1      -3.072  -2.616   3.784  0.00  0.00    +0.083 C 
ATOM      8  C   UNL     1      -3.752  -1.544   2.929  0.00  0.00    +0.036 C 
ATOM      9  C   UNL     1      -2.685  -0.628   2.322  0.00  0.00    +0.111 C 
ATOM     10 CL   UNL     1      -4.327  -3.671   4.534  0.00  0.00    -0.122 Cl
ENDBRANCH   1   4
BRANCH   1  13
ATOM     11  C   UNL     1       2.223   0.790  -0.015  0.00  0.00    +0.010 A 
ATOM     12  C   UNL     1       1.332  -0.266  -0.012  0.00  0.00    +0.036 A 
ATOM     13  C   UNL     1       0.002  -0.004   0.002  0.00  0.00    +0.143 A 
ATOM     14  S   UNL     1      -0.022   1.781   0.012  0.00  0.00    -0.077 S 
ATOM     15  C   UNL     1       1.742   2.057  -0.004  0.00  0.00    +0.047 A 
ENDBRANCH   1  13
TORSDOF 2
