REMARK  Name = ZINC35574443
REMARK  8 active torsions:
REMARK  status: ('A' for Active; 'I' for Inactive)
REMARK    1  A    between atoms: C_1  and  C_2
REMARK    2  A    between atoms: C_2  and  C_3
REMARK    3  A    between atoms: C_3  and  C_4
REMARK    4  A    between atoms: C_4  and  C_5
REMARK    5  A    between atoms: C_5  and  C_6
REMARK    6  A    between atoms: C_6  and  C_7
REMARK    7  A    between atoms: C_21  and  C_23
REMARK    8  A    between atoms: C_23  and  N_24
REMARK                            x       y       z     vdW  Elec       q    Type
REMARK                         _______ _______ _______ _____ _____    ______ ____
ROOT
ATOM      1  C   UNL     1      -4.306  -4.602   2.262  0.00  0.00    +0.216 C 
ATOM      2  O   UNL     1      -3.171  -4.175   2.260  0.00  0.00    -0.276 OA
ATOM      3  N   UNL     1      -4.526  -5.931   2.279  0.00  0.00    -0.298 N 
ATOM      4  C   UNL     1      -5.896  -6.463   2.276  0.00  0.00    +0.126 C 
ATOM      5  C   UNL     1      -6.044  -7.429   1.094  0.00  0.00    +0.127 C 
ATOM      6  N   UNL     1      -4.917  -8.373   1.115  0.00  0.00    -0.298 N 
ATOM      7  C   UNL     1      -3.547  -7.842   1.119  0.00  0.00    +0.127 C 
ATOM      8  C   UNL     1      -3.400  -6.875   2.295  0.00  0.00    +0.126 C 
ATOM      9  C   UNL     1      -5.141  -9.724   1.133  0.00  0.00    +0.198 A 
ATOM     10  N   UNL     1      -6.415 -10.190   1.238  0.00  0.00    -0.295 N 
ATOM     11  H   UNL     1      -7.157  -9.568   1.299  0.00  0.00    +0.172 HD
ATOM     12  C   UNL     1      -6.643 -11.520   1.255  0.00  0.00    +0.253 A 
ATOM     13  O   UNL     1      -7.779 -11.955   1.348  0.00  0.00    -0.268 OA
ATOM     14  C   UNL     1      -5.546 -12.395   1.163  0.00  0.00    +0.091 A 
ATOM     15  C   UNL     1      -4.290 -11.870   1.060  0.00  0.00    +0.034 A 
ATOM     16  N   UNL     1      -4.118 -10.551   1.042  0.00  0.00    -0.223 NA
ENDROOT
BRANCH   1  17
ATOM     17  C   UNL     1      -5.471  -3.646   2.245  0.00  0.00    +0.096 C 
BRANCH  17  18
ATOM     18  C   UNL     1      -4.950  -2.207   2.228  0.00  0.00    +0.009 C 
BRANCH  18  19
ATOM     19  C   UNL     1      -6.132  -1.236   2.212  0.00  0.00    +0.000 C 
BRANCH  19  20
ATOM     20  C   UNL     1      -5.611   0.202   2.194  0.00  0.00    -0.000 C 
BRANCH  20  22
ATOM     21  C   UNL     1      -6.273   2.611   2.160  0.00  0.00    +0.004 C 
ATOM     22  C   UNL     1      -6.794   1.173   2.177  0.00  0.00    -0.003 C 
ENDBRANCH  20  22
ENDBRANCH  19  20
ENDBRANCH  18  19
ENDBRANCH  17  18
ENDBRANCH   1  17
BRANCH  15  23
ATOM     23  C   UNL     1      -3.098 -12.786   0.960  0.00  0.00    -0.022 C 
BRANCH  23  24
ATOM     24  N   UNL     1      -2.459 -12.618  -0.352  0.00  0.00    +0.385 N 
ATOM     25  C   UNL     1      -1.925 -11.254  -0.463  0.00  0.00    -0.059 C 
ATOM     26  C   UNL     1      -1.361 -11.041  -1.871  0.00  0.00    +0.088 C 
ATOM     27  N   UNL     1      -0.379 -12.102  -2.146  0.00  0.00    -0.320 N 
ATOM     28  C   UNL     1      -0.780 -13.496  -1.904  0.00  0.00    +0.088 C 
ATOM     29  C   UNL     1      -1.372 -13.594  -0.494  0.00  0.00    -0.059 C 
ATOM     30  C   UNL     1       0.891 -11.795  -2.621  0.00  0.00    +0.099 A 
ATOM     31  C   UNL     1       1.752 -12.820  -2.998  0.00  0.00    +0.042 A 
ATOM     32  C   UNL     1       3.013 -12.501  -3.468  0.00  0.00    +0.005 A 
ATOM     33  C   UNL     1       3.371 -11.162  -3.546  0.00  0.00    +0.018 A 
ATOM     34  C   UNL     1       2.466 -10.195  -3.155  0.00  0.00    +0.084 A 
ATOM     35  N   UNL     1       1.268 -10.529  -2.715  0.00  0.00    -0.350 N 
ATOM     36  H   UNL     1       0.649  -9.831  -2.450  0.00  0.00    +0.166 HD
ATOM     37  H   UNL     1      -3.142 -12.769  -1.079  0.00  0.00    -0.081 HD
ENDBRANCH  23  24
ENDBRANCH  15  23
TORSDOF 7
