REMARK  Name = ZINC51101507
REMARK  12 active torsions:
REMARK  status: ('A' for Active; 'I' for Inactive)
REMARK    1  A    between atoms: C_1  and  C_2
REMARK    2  A    between atoms: C_7  and  N_12
REMARK    3  A    between atoms: C_9  and  C_11
REMARK    4  A    between atoms: C_13  and  C_15
REMARK    5  A    between atoms: C_15  and  C_17
REMARK    6  A    between atoms: C_15  and  N_18
REMARK    7  A    between atoms: C_22  and  C_25
REMARK    8  A    between atoms: C_25  and  N_26
REMARK    9  A    between atoms: N_26  and  S_27
REMARK   10  A    between atoms: S_27  and  C_30
REMARK   11  A    between atoms: C_30  and  C_31
REMARK   12  A    between atoms: C_30  and  C_32
REMARK                            x       y       z     vdW  Elec       q    Type
REMARK                         _______ _______ _______ _____ _____    ______ ____
ROOT
ATOM      1  N   UNL     1       1.388  -5.557   4.526  0.00  0.00    +0.387 N 
ATOM      2  C   UNL     1       2.009  -5.983   5.787  0.00  0.00    -0.078 C 
ATOM      3  C   UNL     1       1.384  -7.301   6.248  0.00  0.00    -0.018 C 
ATOM      4  C   UNL     1       1.615  -8.371   5.177  0.00  0.00    +0.001 C 
ATOM      5  C   UNL     1       1.029  -7.885   3.849  0.00  0.00    -0.012 C 
ATOM      6  C   UNL     1       1.667  -6.545   3.476  0.00  0.00    -0.073 C 
ATOM      7  H   UNL     1       0.391  -5.477   4.655  0.00  0.00    -0.081 HD
ENDROOT
BRANCH   1   8
ATOM      8  C   UNL     1       1.936  -4.254   4.128  0.00  0.00    +0.016 C 
ATOM      9  C   UNL     1       1.695  -3.237   5.246  0.00  0.00    -0.004 C 
BRANCH   8  11
ATOM     10  N   UNL     1       1.897  -2.957   2.022  0.00  0.00    -0.314 N 
ATOM     11  C   UNL     1       1.254  -3.786   2.868  0.00  0.00    +0.199 C 
ATOM     12  O   UNL     1       0.127  -4.156   2.615  0.00  0.00    -0.278 OA
ATOM     13  H   UNL     1       2.798  -2.662   2.224  0.00  0.00    +0.149 HD
BRANCH  10  19
ATOM     14  C   UNL     1       1.754   0.638  -1.369  0.00  0.00    +0.008 C 
ATOM     15  C   UNL     1       1.148  -0.695  -0.925  0.00  0.00    -0.009 C 
ATOM     16  C   UNL     1       1.346  -1.737  -2.029  0.00  0.00    +0.003 C 
ATOM     17  C   UNL     1       0.740  -3.070  -1.585  0.00  0.00    +0.002 C 
ATOM     18  C   UNL     1       1.432  -3.545  -0.306  0.00  0.00    +0.022 C 
ATOM     19  C   UNL     1       1.234  -2.503   0.797  0.00  0.00    +0.076 C 
ATOM     20  C   UNL     1       1.840  -1.170   0.354  0.00  0.00    +0.009 C 
ATOM     21  C   UNL     1       1.643  -0.128   1.457  0.00  0.00    +0.009 C 
ENDBRANCH  10  19
ENDBRANCH   8  11
ENDBRANCH   1   8
BRANCH   5  22
ATOM     22  C   UNL     1       1.322  -8.913   2.754  0.00  0.00    +0.107 C 
BRANCH  22  23
ATOM     23  N   UNL     1       0.616 -10.161   3.054  0.00  0.00    -0.194 NA
ATOM     24  H   UNL     1       0.251 -10.310   3.941  0.00  0.00    +0.148 HD
BRANCH  23  25
ATOM     25  S   UNL     1       0.440 -11.316   1.881  0.00  0.00    +0.032 S 
ATOM     26  O   UNL     1      -0.300 -12.356   2.505  0.00  0.00    -0.158 OA
ATOM     27  O   UNL     1      -0.092 -10.618   0.763  0.00  0.00    -0.158 OA
BRANCH  25  28
ATOM     28  C   UNL     1       2.127 -11.877   1.523  0.00  0.00    +0.142 C 
ATOM     29  C   UNL     1       2.754 -12.453   2.794  0.00  0.00    +0.033 C 
ATOM     30  C   UNL     1       2.087 -12.957   0.440  0.00  0.00    +0.033 C 
ENDBRANCH  25  28
ENDBRANCH  23  25
ENDBRANCH  22  23
ENDBRANCH   5  22
TORSDOF 7
