REMARK  Name = ZINC32721111
REMARK  9 active torsions:
REMARK  status: ('A' for Active; 'I' for Inactive)
REMARK    1  A    between atoms: C_1  and  C_2
REMARK    2  A    between atoms: C_2  and  C_4
REMARK    3  A    between atoms: C_2  and  N_14
REMARK    4  A    between atoms: C_4  and  C_6
REMARK    5  A    between atoms: C_4  and  O_13
REMARK    6  A    between atoms: C_9  and  O_12
REMARK    7  A    between atoms: C_15  and  C_17
REMARK    8  A    between atoms: C_17  and  C_18
REMARK    9  A    between atoms: C_18  and  C_19
REMARK                            x       y       z     vdW  Elec       q    Type
REMARK                         _______ _______ _______ _____ _____    ______ ____
ROOT
ATOM      1  N   UNL     1      -3.502  -2.352  -2.575  0.00  0.00    -0.310 N 
ATOM      2  C   UNL     1      -2.893  -2.031  -1.417  0.00  0.00    +0.214 C 
ATOM      3  O   UNL     1      -3.309  -2.477  -0.368  0.00  0.00    -0.276 OA
ATOM      4  H   UNL     1      -3.124  -1.948  -3.526  0.00  0.00    +0.149 HD
ENDROOT
BRANCH   1   6
ATOM      5  C   UNL     1      -4.200  -4.696  -2.580  0.00  0.00    +0.031 C 
ATOM      6  C   UNL     1      -4.668  -3.239  -2.568  0.00  0.00    +0.103 C 
BRANCH   6   7
ATOM      7  C   UNL     1      -5.523  -2.968  -3.807  0.00  0.00    +0.164 C 
BRANCH   7   8
ATOM      8  C   UNL     1      -6.783  -3.792  -3.738  0.00  0.00    -0.017 A 
ATOM      9  C   UNL     1      -6.755  -5.126  -4.098  0.00  0.00    +0.010 A 
ATOM     10  C   UNL     1      -7.908  -5.885  -4.031  0.00  0.00    +0.046 A 
ATOM     11  C   UNL     1      -9.096  -5.304  -3.613  0.00  0.00    +0.117 A 
ATOM     12  C   UNL     1      -9.122  -3.963  -3.257  0.00  0.00    +0.046 A 
ATOM     13  C   UNL     1      -7.966  -3.210  -3.321  0.00  0.00    +0.010 A 
BRANCH  11  14
ATOM     14  O   UNL     1     -10.232  -6.047  -3.551  0.00  0.00    -0.507 OA
ATOM     15  H   UNL     1     -11.174  -5.585  -3.220  0.00  0.00    +0.292 HD
ENDBRANCH  11  14
ENDBRANCH   7   8
BRANCH   7  16
ATOM     16  O   UNL     1      -4.787  -3.320  -4.980  0.00  0.00    -0.385 OA
ATOM     17  H   UNL     1      -5.242  -3.193  -5.974  0.00  0.00    +0.210 HD
ENDBRANCH   7  16
ENDBRANCH   6   7
ENDBRANCH   1   6
BRANCH   2  18
ATOM     18  C   UNL     1      -1.694  -1.118  -1.424  0.00  0.00    +0.100 C 
BRANCH  18  19
ATOM     19  C   UNL     1      -1.197  -0.917   0.009  0.00  0.00    +0.046 C 
BRANCH  19  20
ATOM     20  C   UNL     1       0.002  -0.004   0.002  0.00  0.00    -0.022 A 
ATOM     21  C   UNL     1       1.291  -0.379  -0.012  0.00  0.00    +0.087 A 
ATOM     22  N   UNL     1       2.098   0.726  -0.014  0.00  0.00    -0.360 N 
ATOM     23  H   UNL     1       3.192   0.608  -0.025  0.00  0.00    +0.165 HD
ATOM     24  C   UNL     1       1.329   1.868  -0.001  0.00  0.00    +0.047 A 
ATOM     25  C   UNL     1      -0.018   1.461   0.010  0.00  0.00    +0.003 A 
ATOM     26  C   UNL     1      -1.034   2.417   0.030  0.00  0.00    +0.010 A 
ATOM     27  C   UNL     1      -0.716   3.746   0.030  0.00  0.00    +0.001 A 
ATOM     28  C   UNL     1       0.611   4.153   0.019  0.00  0.00    +0.002 A 
ATOM     29  C   UNL     1       1.631   3.225   0.004  0.00  0.00    +0.026 A 
ENDBRANCH  19  20
ENDBRANCH  18  19
ENDBRANCH   2  18
TORSDOF 8
