REMARK  Name = ZINC66200111
REMARK  15 active torsions:
REMARK  status: ('A' for Active; 'I' for Inactive)
REMARK    1  A    between atoms: C_1  and  C_2
REMARK    2  A    between atoms: C_2  and  C_4
REMARK    3  A    between atoms: C_2  and  C_14
REMARK    4  A    between atoms: C_7  and  C_10
REMARK    5  A    between atoms: C_10  and  C_11
REMARK    6  A    between atoms: C_11  and  C_12
REMARK    7  A    between atoms: C_11  and  C_13
REMARK    8  A    between atoms: N_16  and  C_17
REMARK    9  A    between atoms: C_17  and  N_19
REMARK   10  A    between atoms: N_19  and  C_20
REMARK   11  A    between atoms: C_24  and  C_26
REMARK   12  A    between atoms: N_28  and  C_29
REMARK   13  A    between atoms: C_29  and  C_30
REMARK   14  A    between atoms: C_29  and  C_31
REMARK   15  A    between atoms: C_29  and  C_32
REMARK                            x       y       z     vdW  Elec       q    Type
REMARK                         _______ _______ _______ _____ _____    ______ ____
ROOT
ATOM      1  C   UNL     1       0.618  -0.909  -3.618  0.00  0.00    +0.141 C 
ATOM      2  S   UNL     1       1.705  -2.232  -3.567  0.00  0.00    -0.018 S 
ENDROOT
BRANCH   1   5
ATOM      3  C   UNL     1       0.229  -1.141  -1.327  0.00  0.00    +0.226 C 
ATOM      4  O   UNL     1       0.999  -2.078  -1.292  0.00  0.00    -0.275 OA
ATOM      5  N   UNL     1      -0.004  -0.505  -2.492  0.00  0.00    -0.267 N 
ATOM      6  H   UNL     1      -0.619   0.244  -2.521  0.00  0.00    +0.157 HD
BRANCH   3   8
ATOM      7  C   UNL     1      -0.095   0.766   0.224  0.00  0.00    +0.022 C 
ATOM      8  C   UNL     1      -0.466  -0.689  -0.069  0.00  0.00    +0.102 C 
BRANCH   8   9
ATOM      9  C   UNL     1      -0.036  -1.559   1.083  0.00  0.00    -0.036 A 
ATOM     10  C   UNL     1       1.297  -1.616   1.446  0.00  0.00    +0.004 A 
ATOM     11  C   UNL     1       1.692  -2.414   2.503  0.00  0.00    +0.004 A 
ATOM     12  C   UNL     1       0.754  -3.155   3.198  0.00  0.00    -0.047 A 
ATOM     13  C   UNL     1      -0.579  -3.097   2.836  0.00  0.00    +0.004 A 
ATOM     14  C   UNL     1      -0.974  -2.296   1.781  0.00  0.00    +0.004 A 
BRANCH  12  15
ATOM     15  C   UNL     1       1.185  -4.026   4.350  0.00  0.00    +0.038 C 
BRANCH  15  16
ATOM     16  C   UNL     1       1.132  -3.217   5.648  0.00  0.00    -0.013 C 
ATOM     17  C   UNL     1       1.448  -4.133   6.832  0.00  0.00    +0.007 C 
ATOM     18  C   UNL     1       2.162  -2.087   5.588  0.00  0.00    +0.007 C 
ENDBRANCH  15  16
ENDBRANCH  12  15
ENDBRANCH   8   9
ENDBRANCH   3   8
ENDBRANCH   1   5
BRANCH   1  19
ATOM     19  N   UNL     1       0.385  -0.273  -4.782  0.00  0.00    -0.297 N 
ATOM     20  H   UNL     1      -0.276   0.436  -4.824  0.00  0.00    +0.154 HD
BRANCH  19  21
ATOM     21  C   UNL     1       1.097  -0.635  -5.932  0.00  0.00    +0.033 A 
ATOM     22  C   UNL     1       1.257  -1.977  -6.256  0.00  0.00    +0.023 A 
ATOM     23  C   UNL     1       1.959  -2.339  -7.390  0.00  0.00    +0.003 A 
ATOM     24  C   UNL     1       2.504  -1.371  -8.209  0.00  0.00    +0.013 A 
ATOM     25  C   UNL     1       2.348  -0.021  -7.892  0.00  0.00    +0.038 A 
ATOM     26  C   UNL     1       1.636   0.345  -6.750  0.00  0.00    +0.036 A 
BRANCH  25  27
ATOM     27  C   UNL     1       2.931   1.018  -8.768  0.00  0.00    +0.245 C 
ATOM     28  O   UNL     1       2.794   2.194  -8.490  0.00  0.00    -0.270 OA
ATOM     29  N   UNL     1       3.615   0.662  -9.873  0.00  0.00    -0.307 N 
ATOM     30  H   UNL     1       3.724  -0.276 -10.095  0.00  0.00    +0.150 HD
BRANCH  29  31
ATOM     31  C   UNL     1       4.193   1.692 -10.741  0.00  0.00    +0.026 C 
ATOM     32  C   UNL     1       5.193   2.529  -9.941  0.00  0.00    +0.031 C 
ATOM     33  C   UNL     1       4.910   1.025 -11.916  0.00  0.00    +0.031 C 
ATOM     34  C   UNL     1       3.078   2.597 -11.270  0.00  0.00    +0.031 C 
ENDBRANCH  29  31
ENDBRANCH  25  27
ENDBRANCH  19  21
ENDBRANCH   1  19
TORSDOF 9
