REMARK  Name = ZINC04524198
REMARK  5 active torsions:
REMARK  status: ('A' for Active; 'I' for Inactive)
REMARK    1  A    between atoms: C_1  and  C_2
REMARK    2  A    between atoms: C_5  and  C_7
REMARK    3  A    between atoms: N_9  and  N_10
REMARK    4  A    between atoms: C_11  and  C_12
REMARK    5  A    between atoms: C_15  and  C_17
REMARK                            x       y       z     vdW  Elec       q    Type
REMARK                         _______ _______ _______ _____ _____    ______ ____
ROOT
ATOM      1  N   UNL     1       1.607   6.801   0.023  0.00  0.00    -0.184 NA
ATOM      2  C   UNL     1       1.026   7.966   0.035  0.00  0.00    +0.176 C 
ENDROOT
BRANCH   2   3
ATOM      3  C   UNL     1       1.835   9.187   0.034  0.00  0.00    +0.148 A 
ATOM      4  C   UNL     1       1.351  10.477   0.045  0.00  0.00    +0.051 A 
ATOM      5  C   UNL     1       2.465  11.327   0.039  0.00  0.00    +0.050 A 
ATOM      6  C   UNL     1       3.574  10.533   0.025  0.00  0.00    +0.136 A 
ATOM      7  O   UNL     1       3.182   9.245   0.027  0.00  0.00    -0.454 OA
BRANCH   6   8
ATOM      8  C   UNL     1       4.971  11.008   0.014  0.00  0.00    +0.017 A 
ATOM      9  C   UNL     1       5.248  12.377   0.013  0.00  0.00    +0.012 A 
ATOM     10  C   UNL     1       6.556  12.813   0.007  0.00  0.00    +0.016 A 
ATOM     11  C   UNL     1       7.594  11.898  -0.007  0.00  0.00    +0.018 A 
ATOM     12  C   UNL     1       7.328  10.539  -0.012  0.00  0.00    +0.016 A 
ATOM     13  C   UNL     1       6.024  10.089  -0.001  0.00  0.00    +0.012 A 
ATOM     14 BR   UNL     1       9.385  12.505  -0.022  0.00  0.00    -0.050 Br
ENDBRANCH   6   8
ENDBRANCH   2   3
BRANCH   1  17
ATOM     15  C   UNL     1       1.436   4.427   0.012  0.00  0.00    +0.299 C 
ATOM     16  O   UNL     1       2.651   4.352   0.000  0.00  0.00    -0.265 OA
ATOM     17  N   UNL     1       0.834   5.633   0.024  0.00  0.00    -0.200 N 
ATOM     18  H   UNL     1      -0.134   5.692   0.034  0.00  0.00    +0.178 HD
BRANCH  15  23
ATOM     19  C   UNL     1      -2.538   1.380   0.020  0.00  0.00    +0.086 C 
ATOM     20  C   UNL     1      -1.110   1.864   0.017  0.00  0.00    +0.103 A 
ATOM     21  C   UNL     1      -0.013   1.076   0.008  0.00  0.00    +0.045 A 
ATOM     22  C   UNL     1       1.105   1.925   0.002  0.00  0.00    +0.055 A 
ATOM     23  C   UNL     1       0.627   3.204   0.013  0.00  0.00    +0.191 A 
ATOM     24  O   UNL     1      -0.721   3.145   0.026  0.00  0.00    -0.455 OA
ENDBRANCH  15  23
ENDBRANCH   1  17
TORSDOF 4
