REMARK  Name = ZINC35701520
REMARK  11 active torsions:
REMARK  status: ('A' for Active; 'I' for Inactive)
REMARK    1  A    between atoms: C_1  and  C_2
REMARK    2  A    between atoms: C_3  and  C_32
REMARK    3  A    between atoms: C_4  and  C_23
REMARK    4  A    between atoms: C_7  and  C_12
REMARK    5  A    between atoms: C_13  and  N_15
REMARK    6  A    between atoms: N_15  and  C_16
REMARK    7  A    between atoms: C_16  and  C_17
REMARK    8  A    between atoms: C_27  and  N_29
REMARK    9  A    between atoms: C_32  and  O_34
REMARK   10  A    between atoms: O_34  and  C_35
REMARK   11  A    between atoms: C_35  and  C_36
REMARK                            x       y       z     vdW  Elec       q    Type
REMARK                         _______ _______ _______ _____ _____    ______ ____
ROOT
ATOM      1  C   UNL     1       0.711   1.307  -1.738  0.00  0.00    +0.066 C 
ATOM      2  C   UNL     1       0.476  -0.159  -1.478  0.00  0.00    +0.053 C 
ATOM      3  C   UNL     1      -0.815  -0.634  -1.347  0.00  0.00    +0.082 C 
ATOM      4  C   UNL     1      -0.999  -2.113  -1.088  0.00  0.00    +0.150 C 
ATOM      5  N   UNL     1       0.232  -2.942  -0.994  0.00  0.00    -0.267 N 
ATOM      6  C   UNL     1       0.303  -4.301  -0.765  0.00  0.00    +0.048 C 
ATOM      7  C   UNL     1       1.530  -4.866  -0.717  0.00  0.00    +0.072 C 
ATOM      8  S   UNL     1       2.592  -3.463  -0.997  0.00  0.00    -0.060 S 
ATOM      9  C   UNL     1       1.416  -2.276  -1.153  0.00  0.00    +0.166 C 
ATOM     10  N   UNL     1       1.506  -0.983  -1.383  0.00  0.00    -0.230 NA
ENDROOT
BRANCH   4  11
ATOM     11  C   UNL     1      -1.760  -2.266   0.204  0.00  0.00    -0.020 A 
ATOM     12  C   UNL     1      -1.111  -2.099   1.413  0.00  0.00    +0.006 A 
ATOM     13  C   UNL     1      -1.809  -2.240   2.598  0.00  0.00    +0.003 A 
ATOM     14  C   UNL     1      -3.156  -2.547   2.573  0.00  0.00    +0.033 A 
ATOM     15  C   UNL     1      -3.806  -2.712   1.365  0.00  0.00    +0.127 A 
ATOM     16  C   UNL     1      -3.109  -2.568   0.180  0.00  0.00    +0.038 A 
BRANCH  15  17
ATOM     17  N   UNL     1      -5.249  -3.042   1.339  0.00  0.00    +0.056 N 
ATOM     18  O   UNL     1      -5.881  -3.071   2.369  0.00  0.00    -0.126 OA
ATOM     19  O   UNL     1      -5.796  -3.281   0.287  0.00  0.00    -0.126 OA
ENDBRANCH  15  17
ENDBRANCH   4  11
BRANCH   6  20
ATOM     20  C   UNL     1      -0.913  -5.106  -0.581  0.00  0.00    +0.091 C 
ATOM     21  C   UNL     1      -0.815  -6.404  -0.234  0.00  0.00    +0.239 C 
ATOM     22  O   UNL     1       0.395  -6.937   0.062  0.00  0.00    -0.271 OA
BRANCH  21  23
ATOM     23  N   UNL     1      -1.951  -7.194  -0.179  0.00  0.00    -0.309 N 
ATOM     24  H   UNL     1      -2.825  -6.796  -0.318  0.00  0.00    +0.149 HD
BRANCH  23  25
ATOM     25  C   UNL     1      -1.833  -8.629   0.089  0.00  0.00    +0.136 C 
BRANCH  25  26
ATOM     26  C   UNL     1      -3.211  -9.284  -0.028  0.00  0.00    +0.135 C 
ATOM     27  C   UNL     1      -3.091 -10.804   0.219  0.00  0.00    +0.035 C 
ATOM     28  C   UNL     1      -4.079 -11.387  -0.828  0.00  0.00    +0.031 C 
ATOM     29  C   UNL     1      -3.909 -10.375  -1.989  0.00  0.00    +0.160 C 
ATOM     30  O   UNL     1      -3.727  -9.098  -1.351  0.00  0.00    -0.375 OA
ENDBRANCH  25  26
ENDBRANCH  23  25
ENDBRANCH  21  23
ENDBRANCH   6  20
BRANCH   3  31
ATOM     31  C   UNL     1      -1.916   0.225  -1.450  0.00  0.00    +0.339 C 
ATOM     32  O   UNL     1      -1.744   1.413  -1.659  0.00  0.00    -0.245 OA
BRANCH  31  33
ATOM     33  O   UNL     1      -3.169  -0.264  -1.319  0.00  0.00    -0.457 OA
BRANCH  33  34
ATOM     34  C   UNL     1      -4.245   0.669  -1.436  0.00  0.00    +0.259 C 
BRANCH  34  35
ATOM     35  C   UNL     1      -5.557  -0.053  -1.262  0.00  0.00    +0.006 C 
ATOM     36  C   UNL     1      -6.490   0.460  -0.498  0.00  0.00    +0.007 C 
ENDBRANCH  34  35
ENDBRANCH  33  34
ENDBRANCH  31  33
ENDBRANCH   3  31
TORSDOF 10
