REMARK  Name = ZINC54219836
REMARK  8 active torsions:
REMARK  status: ('A' for Active; 'I' for Inactive)
REMARK    1  A    between atoms: C_1  and  C_2
REMARK    2  A    between atoms: N_10  and  N_11
REMARK    3  A    between atoms: C_12  and  C_13
REMARK    4  A    between atoms: C_16  and  O_21
REMARK    5  A    between atoms: C_17  and  O_19
REMARK    6  A    between atoms: O_19  and  C_20
REMARK    7  A    between atoms: O_21  and  C_22
REMARK    8  A    between atoms: C_22  and  C_23
REMARK                            x       y       z     vdW  Elec       q    Type
REMARK                         _______ _______ _______ _____ _____    ______ ____
ROOT
ATOM      1  C   UNL     1      -6.010  -0.980   0.027  0.00  0.00    -0.002 A 
ATOM      2  C   UNL     1      -5.970  -2.377   0.024  0.00  0.00    +0.013 A 
ATOM      3  C   UNL     1      -7.144  -3.100   0.026  0.00  0.00    +0.050 A 
ATOM      4  C   UNL     1      -8.367  -2.445   0.030  0.00  0.00    +0.162 A 
ATOM      5  C   UNL     1      -8.415  -1.052   0.033  0.00  0.00    +0.162 A 
ATOM      6  C   UNL     1      -7.242  -0.320   0.037  0.00  0.00    +0.059 A 
ENDROOT
BRANCH   1   8
ATOM      7  N   UNL     1      -3.613  -0.820   0.015  0.00  0.00    -0.189 NA
ATOM      8  C   UNL     1      -4.756  -0.205   0.025  0.00  0.00    +0.138 C 
BRANCH   7  18
ATOM      9  C   UNL     1      -0.018   1.503   0.010  0.00  0.00    +0.071 C 
ATOM     10  C   UNL     1       0.002  -0.004   0.002  0.00  0.00    +0.100 A 
ATOM     11  C   UNL     1      -1.210  -0.734   0.004  0.00  0.00    +0.166 A 
ATOM     12  N   UNL     1      -1.155  -2.062  -0.004  0.00  0.00    -0.174 NA
ATOM     13  C   UNL     1       0.038  -2.662  -0.013  0.00  0.00    +0.364 A 
ATOM     14  O   UNL     1       0.104  -3.880  -0.021  0.00  0.00    -0.243 OA
ATOM     15  N   UNL     1       1.169  -1.933  -0.015  0.00  0.00    -0.226 N 
ATOM     16  H   UNL     1       2.026  -2.386  -0.022  0.00  0.00    +0.194 HD
ATOM     17  N   UNL     1       1.138  -0.647  -0.012  0.00  0.00    -0.172 NA
ATOM     18  N   UNL     1      -2.421  -0.083   0.014  0.00  0.00    -0.219 N 
ATOM     19  H   UNL     1      -2.451   0.886   0.020  0.00  0.00    +0.176 HD
ENDBRANCH   7  18
ENDBRANCH   1   8
BRANCH   5  20
ATOM     20  O   UNL     1      -9.615  -0.413   0.036  0.00  0.00    -0.491 OA
ATOM     21  C   UNL     1      -9.589   1.016   0.039  0.00  0.00    +0.277 C 
ENDBRANCH   5  20
BRANCH   4  22
ATOM     22  O   UNL     1      -9.521  -3.163   0.032  0.00  0.00    -0.484 OA
BRANCH  22  23
ATOM     23  C   UNL     1      -9.400  -4.586   0.029  0.00  0.00    +0.267 C 
BRANCH  23  24
ATOM     24  C   UNL     1     -10.773  -5.208   0.031  0.00  0.00    +0.028 A 
ATOM     25  C   UNL     1     -11.402  -5.490   1.230  0.00  0.00    +0.049 A 
ATOM     26  C   UNL     1     -12.663  -6.060   1.232  0.00  0.00    +0.022 A 
ATOM     27  C   UNL     1     -13.294  -6.348   0.037  0.00  0.00    +0.023 A 
ATOM     28  C   UNL     1     -12.665  -6.066  -1.163  0.00  0.00    +0.060 A 
ATOM     29  C   UNL     1     -11.406  -5.490  -1.165  0.00  0.00    +0.067 A 
ATOM     30 CL   UNL     1     -10.619  -5.130  -2.671  0.00  0.00    -0.082 Cl
ATOM     31 CL   UNL     1     -13.458  -6.428  -2.664  0.00  0.00    -0.082 Cl
ATOM     32 CL   UNL     1     -10.610  -5.130   2.732  0.00  0.00    -0.083 Cl
ENDBRANCH  23  24
ENDBRANCH  22  23
ENDBRANCH   4  22
TORSDOF 6
