REMARK  Name = ZINC38686940
REMARK  7 active torsions:
REMARK  status: ('A' for Active; 'I' for Inactive)
REMARK    1  A    between atoms: C_1  and  C_2
REMARK    2  A    between atoms: C_5  and  C_8
REMARK    3  A    between atoms: C_13  and  O_22
REMARK    4  A    between atoms: C_17  and  N_21
REMARK    5  A    between atoms: C_18  and  C_19
REMARK    6  A    between atoms: O_22  and  C_23
REMARK    7  A    between atoms: C_23  and  C_25
REMARK                            x       y       z     vdW  Elec       q    Type
REMARK                         _______ _______ _______ _____ _____    ______ ____
ROOT
ATOM      1  C   UNL     1       0.096  -4.312   0.017  0.00  0.00    +0.098 C 
ATOM      2  C   UNL     1      -1.137  -4.822   0.714  0.00  0.00    +0.008 A 
ATOM      3  C   UNL     1      -2.369  -4.697   0.096  0.00  0.00    +0.012 A 
ATOM      4  C   UNL     1      -3.511  -5.159   0.720  0.00  0.00    +0.047 A 
ATOM      5  C   UNL     1      -3.425  -5.751   1.972  0.00  0.00    +0.135 A 
ATOM      6  C   UNL     1      -2.194  -5.877   2.594  0.00  0.00    +0.093 A 
ATOM      7  C   UNL     1      -1.046  -5.412   1.965  0.00  0.00    +0.138 A 
ATOM      8  O   UNL     1       0.151  -5.542   2.587  0.00  0.00    -0.441 OA
ATOM      9  C   UNL     1       1.288  -5.468   1.874  0.00  0.00    +0.199 C 
ATOM     10  C   UNL     1       1.327  -4.897   0.650  0.00  0.00    +0.098 C 
ENDROOT
BRANCH   1  15
ATOM     11  C   UNL     1       0.282   1.449   0.429  0.00  0.00    +0.044 C 
ATOM     12  C   UNL     1       0.234  -0.053   0.322  0.00  0.00    -0.050 A 
ATOM     13  C   UNL     1       0.185  -0.656  -0.921  0.00  0.00    +0.003 A 
ATOM     14  C   UNL     1       0.141  -2.034  -1.020  0.00  0.00    +0.005 A 
ATOM     15  C   UNL     1       0.145  -2.810   0.124  0.00  0.00    -0.035 A 
ATOM     16  C   UNL     1       0.195  -2.207   1.367  0.00  0.00    +0.005 A 
ATOM     17  C   UNL     1       0.244  -0.829   1.466  0.00  0.00    +0.003 A 
ENDBRANCH   1  15
BRANCH   9  18
ATOM     18  N   UNL     1       2.442  -5.987   2.406  0.00  0.00    -0.328 N 
ATOM     19  H   UNL     1       2.429  -6.400   3.284  0.00  0.00    +0.145 HD
ATOM     20  H   UNL     1       3.271  -5.942   1.904  0.00  0.00    +0.145 HD
ENDBRANCH   9  18
BRANCH  10  21
ATOM     21  C   UNL     1       2.571  -4.850  -0.057  0.00  0.00    +0.101 C 
ATOM     22  N   UNL     1       3.557  -4.812  -0.619  0.00  0.00    -0.191 NA
ENDBRANCH  10  21
BRANCH   5  23
ATOM     23  O   UNL     1      -4.548  -6.206   2.588  0.00  0.00    -0.422 OA
BRANCH  23  24
ATOM     24  C   UNL     1      -4.981  -5.548   3.683  0.00  0.00    +0.353 C 
ATOM     25  O   UNL     1      -4.433  -4.520   4.031  0.00  0.00    -0.244 OA
BRANCH  24  26
ATOM     26  C   UNL     1      -6.112  -6.073   4.455  0.00  0.00    +0.116 A 
ATOM     27  C   UNL     1      -6.690  -5.554   5.574  0.00  0.00    +0.070 A 
ATOM     28  C   UNL     1      -7.778  -6.216   6.171  0.00  0.00    +0.008 A 
ATOM     29  C   UNL     1      -8.507  -5.838   7.328  0.00  0.00    +0.012 A 
ATOM     30  C   UNL     1      -9.540  -6.596   7.777  0.00  0.00    +0.021 A 
ATOM     31  C   UNL     1      -9.923  -7.764   7.127  0.00  0.00    +0.042 A 
ATOM     32  C   UNL     1      -9.240  -8.168   5.997  0.00  0.00    +0.035 A 
ATOM     33  C   UNL     1      -8.189  -7.408   5.530  0.00  0.00    +0.023 A 
ATOM     34  S   UNL     1      -7.075  -7.545   4.155  0.00  0.00    -0.080 S 
ATOM     35 CL   UNL     1     -11.249  -8.708   7.732  0.00  0.00    -0.084 Cl
ATOM     36 CL   UNL     1      -6.084  -4.079   6.261  0.00  0.00    -0.082 Cl
ENDBRANCH  24  26
ENDBRANCH  23  24
ENDBRANCH   5  23
TORSDOF 6
