REMARK  Name = ZINC14579135
REMARK  11 active torsions:
REMARK  status: ('A' for Active; 'I' for Inactive)
REMARK    1  A    between atoms: C_1  and  C_2
REMARK    2  A    between atoms: C_2  and  C_3
REMARK    3  A    between atoms: C_2  and  C_4
REMARK    4  A    between atoms: C_4  and  C_5
REMARK    5  A    between atoms: C_5  and  N_6
REMARK    6  A    between atoms: N_6  and  C_7
REMARK    7  A    between atoms: C_8  and  N_23
REMARK    8  A    between atoms: N_9  and  C_16
REMARK    9  A    between atoms: C_16  and  C_17
REMARK   10  A    between atoms: C_24  and  C_26
REMARK   11  A    between atoms: C_31  and  C_32
REMARK                            x       y       z     vdW  Elec       q    Type
REMARK                         _______ _______ _______ _____ _____    ______ ____
ROOT
ATOM      1  C   UNL     1      -4.089   6.160  -2.845  0.00  0.00    +0.140 A 
ATOM      2  C   UNL     1      -4.383   4.830  -3.071  0.00  0.00    +0.128 A 
ATOM      3  N   UNL     1      -5.185   4.159  -2.178  0.00  0.00    -0.276 N 
ATOM      4  C   UNL     1      -5.670   4.788  -1.092  0.00  0.00    +0.331 A 
ATOM      5  O   UNL     1      -6.374   4.175  -0.312  0.00  0.00    -0.246 OA
ATOM      6  N   UNL     1      -5.391   6.081  -0.853  0.00  0.00    -0.273 N 
ATOM      7  H   UNL     1      -5.764   6.525  -0.038  0.00  0.00    +0.173 HD
ATOM      8  C   UNL     1      -4.614   6.786  -1.698  0.00  0.00    +0.277 A 
ATOM      9  O   UNL     1      -4.367   7.959  -1.472  0.00  0.00    -0.266 OA
ENDROOT
BRANCH   1  10
ATOM     10  N   UNL     1      -3.274   6.877  -3.744  0.00  0.00    -0.260 N 
ATOM     11  C   UNL     1      -2.176   7.517  -3.295  0.00  0.00    +0.252 C 
ATOM     12  O   UNL     1      -1.495   8.169  -4.064  0.00  0.00    -0.270 OA
BRANCH  11  13
ATOM     13  C   UNL     1      -1.800   7.427  -1.869  0.00  0.00    +0.049 A 
ATOM     14  C   UNL     1      -2.163   6.308  -1.117  0.00  0.00    +0.013 A 
ATOM     15  C   UNL     1      -1.805   6.229   0.213  0.00  0.00    +0.001 A 
ATOM     16  C   UNL     1      -1.096   7.259   0.804  0.00  0.00    +0.001 A 
ATOM     17  C   UNL     1      -0.738   8.373   0.067  0.00  0.00    +0.013 A 
ATOM     18  C   UNL     1      -1.085   8.463  -1.266  0.00  0.00    +0.067 A 
BRANCH  18  19
ATOM     19  C   UNL     1      -0.695   9.678  -2.067  0.00  0.00    +0.418 C 
ATOM     20  F   UNL     1       0.009  10.570  -1.251  0.00  0.00    -0.166 F 
ATOM     21  F   UNL     1       0.116   9.288  -3.139  0.00  0.00    -0.166 F 
ATOM     22  F   UNL     1      -1.846  10.303  -2.558  0.00  0.00    -0.166 F 
ENDBRANCH  18  19
ENDBRANCH  11  13
BRANCH  10  23
ATOM     23  C   UNL     1      -3.620   6.926  -5.167  0.00  0.00    +0.114 C 
BRANCH  23  24
ATOM     24  C   UNL     1      -4.408   8.206  -5.456  0.00  0.00    +0.022 C 
BRANCH  24  26
ATOM     25  C   UNL     1      -5.725   7.110  -7.274  0.00  0.00    +0.007 C 
ATOM     26  C   UNL     1      -4.769   8.258  -6.942  0.00  0.00    -0.016 C 
ATOM     27  C   UNL     1      -5.447   9.593  -7.256  0.00  0.00    +0.007 C 
ENDBRANCH  24  26
ENDBRANCH  23  24
ENDBRANCH  10  23
ENDBRANCH   1  10
BRANCH   2  28
ATOM     28  N   UNL     1      -3.883   4.186  -4.177  0.00  0.00    -0.343 N 
ATOM     29  H   UNL     1      -4.164   3.280  -4.379  0.00  0.00    +0.144 HD
ATOM     30  H   UNL     1      -3.249   4.637  -4.755  0.00  0.00    +0.144 HD
ENDBRANCH   2  28
BRANCH   3  31
ATOM     31  C   UNL     1      -5.509   2.748  -2.407  0.00  0.00    +0.163 C 
BRANCH  31  32
ATOM     32  C   UNL     1      -6.772   2.649  -3.223  0.00  0.00    -0.028 A 
ATOM     33  C   UNL     1      -8.000   2.595  -2.592  0.00  0.00    +0.005 A 
ATOM     34  C   UNL     1      -9.159   2.499  -3.340  0.00  0.00    +0.000 A 
ATOM     35  C   UNL     1      -9.089   2.468  -4.720  0.00  0.00    +0.000 A 
ATOM     36  C   UNL     1      -7.861   2.528  -5.352  0.00  0.00    +0.000 A 
ATOM     37  C   UNL     1      -6.702   2.619  -4.604  0.00  0.00    +0.005 A 
ENDBRANCH  31  32
ENDBRANCH   3  31
TORSDOF 9
