REMARK  Name = ZINC39697342
REMARK  7 active torsions:
REMARK  status: ('A' for Active; 'I' for Inactive)
REMARK    1  A    between atoms: C_4  and  N_7
REMARK    2  A    between atoms: C_8  and  S_21
REMARK    3  A    between atoms: C_12  and  C_13
REMARK    4  A    between atoms: C_13  and  O_14
REMARK    5  A    between atoms: O_14  and  C_15
REMARK    6  A    between atoms: S_21  and  C_22
REMARK    7  A    between atoms: C_22  and  C_23
REMARK                            x       y       z     vdW  Elec       q    Type
REMARK                         _______ _______ _______ _____ _____    ______ ____
ROOT
ATOM      1  N   UNL     1       3.620  -0.649  -0.037  0.00  0.00    -0.255 N 
ATOM      2  C   UNL     1       3.817  -2.106   0.050  0.00  0.00    +0.241 C 
ATOM      3  N   UNL     1       5.281  -2.266  -0.012  0.00  0.00    -0.237 N 
ATOM      4  N   UNL     1       5.808  -0.974  -0.124  0.00  0.00    -0.170 NA
ATOM      5  C   UNL     1       4.883  -0.086  -0.143  0.00  0.00    +0.160 C 
ATOM      6  H   UNL     1       5.779  -3.098   0.019  0.00  0.00    +0.171 HD
ENDROOT
BRANCH   1  10
ATOM      7  C   UNL     1      -0.017   1.378   0.004  0.00  0.00    +0.000 A 
ATOM      8  C   UNL     1       1.169   2.089   0.017  0.00  0.00    +0.002 A 
ATOM      9  C   UNL     1       2.377   1.420   0.003  0.00  0.00    +0.023 A 
ATOM     10  C   UNL     1       2.400   0.031  -0.023  0.00  0.00    +0.038 A 
ATOM     11  C   UNL     1       1.206  -0.680  -0.036  0.00  0.00    +0.023 A 
ATOM     12  C   UNL     1       0.002  -0.004  -0.022  0.00  0.00    +0.002 A 
ENDBRANCH   1  10
BRANCH   5  13
ATOM     13  C   UNL     1       5.137   1.395  -0.262  0.00  0.00    +0.302 C 
BRANCH  13  14
ATOM     14  O   UNL     1       6.533   1.623  -0.470  0.00  0.00    -0.484 OA
BRANCH  14  15
ATOM     15  C   UNL     1       6.934   2.915  -0.599  0.00  0.00    +0.121 A 
ATOM     16  C   UNL     1       6.005   3.942  -0.522  0.00  0.00    +0.045 A 
ATOM     17  C   UNL     1       6.416   5.255  -0.653  0.00  0.00    +0.004 A 
ATOM     18  C   UNL     1       7.752   5.545  -0.862  0.00  0.00    +0.000 A 
ATOM     19  C   UNL     1       8.679   4.522  -0.940  0.00  0.00    +0.004 A 
ATOM     20  C   UNL     1       8.274   3.209  -0.803  0.00  0.00    +0.045 A 
ENDBRANCH  14  15
ENDBRANCH  13  14
ENDBRANCH   5  13
BRANCH   2  21
ATOM     21  S   UNL     1       3.022  -2.942  -1.349  0.00  0.00    -0.113 S 
BRANCH  21  22
ATOM     22  C   UNL     1       3.845  -2.241  -2.805  0.00  0.00    +0.108 C 
BRANCH  22  23
ATOM     23  C   UNL     1       3.270  -2.859  -4.054  0.00  0.00    -0.023 A 
ATOM     24  C   UNL     1       2.420  -2.159  -4.845  0.00  0.00    +0.075 A 
ATOM     25  C   UNL     1       1.887  -2.748  -6.012  0.00  0.00    +0.249 A 
ATOM     26  O   UNL     1       1.126  -2.101  -6.710  0.00  0.00    -0.268 OA
ATOM     27  N   UNL     1       2.199  -4.005  -6.374  0.00  0.00    -0.322 N 
ATOM     28  H   UNL     1       1.815  -4.379  -7.182  0.00  0.00    +0.169 HD
ATOM     29  C   UNL     1       3.058  -4.769  -5.613  0.00  0.00    +0.049 A 
ATOM     30  C   UNL     1       3.621  -4.227  -4.442  0.00  0.00    +0.002 A 
ATOM     31  C   UNL     1       4.496  -4.996  -3.669  0.00  0.00    +0.010 A 
ATOM     32  C   UNL     1       4.803  -6.269  -4.059  0.00  0.00    +0.001 A 
ATOM     33  C   UNL     1       4.254  -6.806  -5.215  0.00  0.00    +0.002 A 
ATOM     34  C   UNL     1       3.380  -6.069  -5.986  0.00  0.00    +0.026 A 
ENDBRANCH  22  23
ENDBRANCH  21  22
ENDBRANCH   2  21
TORSDOF 7
