REMARK  Name = ZINC04860665
REMARK  3 active torsions:
REMARK  status: ('A' for Active; 'I' for Inactive)
REMARK    1  A    between atoms: C_7  and  C_11
REMARK    2  A    between atoms: N_12  and  N_13
REMARK    3  A    between atoms: C_16  and  C_19
REMARK                            x       y       z     vdW  Elec       q    Type
REMARK                         _______ _______ _______ _____ _____    ______ ____
ROOT
ATOM      1  N   UNL     1      -1.115  -1.772   0.104  0.00  0.00    -0.215 N 
ATOM      2  C   UNL     1      -2.466  -1.569   0.327  0.00  0.00    +0.178 A 
ATOM      3  N   UNL     1      -3.145  -0.437   0.372  0.00  0.00    -0.224 NA
ATOM      4  C   UNL     1      -4.450  -0.427   0.600  0.00  0.00    +0.080 A 
ATOM      5  C   UNL     1      -5.106  -1.611   0.792  0.00  0.00    +0.077 A 
ATOM      6  S   UNL     1      -3.756  -2.770   0.624  0.00  0.00    -0.059 S 
ATOM      7  H   UNL     1      -0.529  -1.013  -0.044  0.00  0.00    +0.176 HD
ENDROOT
BRANCH   4   8
ATOM      8  C   UNL     1      -5.193   0.856   0.646  0.00  0.00    +0.001 A 
ATOM      9  C   UNL     1      -6.565   0.861   0.892  0.00  0.00    +0.011 A 
ATOM     10  C   UNL     1      -7.251   2.058   0.935  0.00  0.00    +0.020 A 
ATOM     11  C   UNL     1      -6.579   3.251   0.734  0.00  0.00    +0.041 A 
ATOM     12  C   UNL     1      -5.216   3.251   0.489  0.00  0.00    +0.020 A 
ATOM     13  C   UNL     1      -4.520   2.061   0.450  0.00  0.00    +0.011 A 
ATOM     14 CL   UNL     1      -7.448   4.753   0.788  0.00  0.00    -0.084 Cl
ENDBRANCH   4   8
BRANCH   1  16
ATOM     15  C   UNL     1       0.687  -3.258  -0.015  0.00  0.00    +0.140 C 
ATOM     16  N   UNL     1      -0.595  -3.072   0.091  0.00  0.00    -0.188 NA
BRANCH  15  23
ATOM     17  C   UNL     1       5.001  -2.440  -1.616  0.00  0.00    +0.001 A 
ATOM     18  C   UNL     1       5.489  -1.201  -1.226  0.00  0.00    +0.002 A 
ATOM     19  C   UNL     1       4.724  -0.358  -0.450  0.00  0.00    +0.026 A 
ATOM     20  C   UNL     1       3.450  -0.751  -0.052  0.00  0.00    +0.047 A 
ATOM     21  C   UNL     1       2.962  -2.007  -0.451  0.00  0.00    +0.008 A 
ATOM     22  C   UNL     1       3.752  -2.845  -1.236  0.00  0.00    +0.010 A 
ATOM     23  C   UNL     1       1.610  -2.119   0.123  0.00  0.00    +0.020 A 
ATOM     24  C   UNL     1       1.380  -0.965   0.805  0.00  0.00    +0.093 A 
ATOM     25  N   UNL     1       2.469  -0.148   0.705  0.00  0.00    -0.360 N 
ATOM     26  H   UNL     1       2.542   0.731   1.110  0.00  0.00    +0.165 HD
ENDBRANCH  15  23
ENDBRANCH   1  16
TORSDOF 3
