REMARK  Name = ZINC39354332
REMARK  8 active torsions:
REMARK  status: ('A' for Active; 'I' for Inactive)
REMARK    1  A    between atoms: C_1  and  C_2
REMARK    2  A    between atoms: C_2  and  N_3
REMARK    3  A    between atoms: C_4  and  C_24
REMARK    4  A    between atoms: C_8  and  S_10
REMARK    5  A    between atoms: S_10  and  C_11
REMARK    6  A    between atoms: C_11  and  C_12
REMARK    7  A    between atoms: C_24  and  O_25
REMARK    8  A    between atoms: O_25  and  C_26
REMARK                            x       y       z     vdW  Elec       q    Type
REMARK                         _______ _______ _______ _____ _____    ______ ____
ROOT
ATOM      1  N   UNL     1       0.713  -0.491   1.192  0.00  0.00    -0.259 NA
ATOM      2  C   UNL     1       0.591  -1.958   1.318  0.00  0.00    +0.178 C 
ATOM      3  N   UNL     1       1.970  -2.498   1.297  0.00  0.00    -0.234 NA
ATOM      4  N   UNL     1       2.812  -1.375   1.738  0.00  0.00    -0.229 NA
ATOM      5  C   UNL     1       2.162  -0.199   1.101  0.00  0.00    +0.200 C 
ATOM      6  H   UNL     1       2.060  -3.284   1.923  0.00  0.00    +0.142 HD
ATOM      7  H   UNL     1       2.806  -1.291   2.743  0.00  0.00    +0.143 HD
ENDROOT
BRANCH   1   9
ATOM      8  C   UNL     1      -0.019   1.526   0.010  0.00  0.00    +0.020 C 
ATOM      9  C   UNL     1       0.002  -0.004   0.002  0.00  0.00    +0.085 C 
ENDBRANCH   1   9
BRANCH   5  10
ATOM     10  S   UNL     1       2.562   1.318   2.013  0.00  0.00    -0.117 S 
BRANCH  10  11
ATOM     11  C   UNL     1       2.057   0.953   3.716  0.00  0.00    +0.146 C 
BRANCH  11  12
ATOM     12  C   UNL     1       2.339   2.147   4.591  0.00  0.00    +0.120 A 
ATOM     13  N   UNL     1       2.032   2.066   5.912  0.00  0.00    -0.310 N 
ATOM     14  H   UNL     1       1.641   1.251   6.265  0.00  0.00    +0.170 HD
ATOM     15  C   UNL     1       2.266   3.110   6.739  0.00  0.00    +0.259 A 
ATOM     16  O   UNL     1       1.996   3.051   7.925  0.00  0.00    -0.267 OA
ATOM     17  C   UNL     1       2.859   4.321   6.151  0.00  0.00    +0.065 A 
ATOM     18  C   UNL     1       3.139   5.451   6.915  0.00  0.00    +0.015 A 
ATOM     19  C   UNL     1       3.694   6.558   6.312  0.00  0.00    +0.001 A 
ATOM     20  C   UNL     1       3.976   6.555   4.952  0.00  0.00    +0.002 A 
ATOM     21  C   UNL     1       3.706   5.448   4.179  0.00  0.00    +0.028 A 
ATOM     22  C   UNL     1       3.144   4.314   4.767  0.00  0.00    +0.078 A 
ATOM     23  N   UNL     1       2.867   3.200   4.044  0.00  0.00    -0.233 NA
ENDBRANCH  11  12
ENDBRANCH  10  11
ENDBRANCH   5  10
BRANCH   2  24
ATOM     24  C   UNL     1      -0.093  -2.316   2.639  0.00  0.00    +0.265 C 
BRANCH  24  25
ATOM     25  O   UNL     1       0.682  -1.813   3.729  0.00  0.00    -0.489 OA
BRANCH  25  26
ATOM     26  C   UNL     1       0.210  -2.048   4.982  0.00  0.00    +0.121 A 
ATOM     27  C   UNL     1      -0.972  -2.752   5.161  0.00  0.00    +0.046 A 
ATOM     28  C   UNL     1      -1.443  -2.981   6.436  0.00  0.00    +0.007 A 
ATOM     29  C   UNL     1      -0.745  -2.516   7.543  0.00  0.00    -0.044 A 
ATOM     30  C   UNL     1       0.431  -1.822   7.368  0.00  0.00    -0.041 A 
ATOM     31  C   UNL     1       0.909  -1.590   6.085  0.00  0.00    +0.049 A 
ATOM     32  C   UNL     1       1.247  -1.304   8.524  0.00  0.00    +0.035 C 
ATOM     33  C   UNL     1       0.406  -1.258   9.797  0.00  0.00    +0.005 C 
ATOM     34  C   UNL     1      -0.260  -2.625   9.988  0.00  0.00    +0.005 C 
ATOM     35  C   UNL     1      -1.324  -2.798   8.905  0.00  0.00    +0.035 C 
ENDBRANCH  25  26
ENDBRANCH  24  25
ENDBRANCH   2  24
TORSDOF 7
