REMARK  Name = ZINC04281268
REMARK  7 active torsions:
REMARK  status: ('A' for Active; 'I' for Inactive)
REMARK    1  A    between atoms: C_1  and  C_2
REMARK    2  A    between atoms: C_2  and  C_27
REMARK    3  A    between atoms: C_5  and  C_25
REMARK    4  A    between atoms: C_6  and  N_12
REMARK    5  A    between atoms: C_9  and  C_10
REMARK    6  A    between atoms: C_9  and  C_11
REMARK    7  A    between atoms: C_13  and  C_15
REMARK                            x       y       z     vdW  Elec       q    Type
REMARK                         _______ _______ _______ _____ _____    ______ ____
ROOT
ATOM      1  C   UNL     1      -5.125  11.551   2.163  0.00  0.00    -0.010 C 
ATOM      2  C   UNL     1      -5.205  11.931   0.681  0.00  0.00    -0.069 C 
ATOM      3  C   UNL     1      -5.724  10.732  -0.121  0.00  0.00    +0.024 C 
ATOM      4  C   UNL     1      -4.653   9.650  -0.069  0.00  0.00    -0.021 A 
ATOM      5  C   UNL     1      -4.886   8.222  -0.104  0.00  0.00    +0.084 A 
ATOM      6  C   UNL     1      -3.774   7.392  -0.024  0.00  0.00    +0.090 A 
ATOM      7  S   UNL     1      -2.452   8.507   0.083  0.00  0.00    -0.078 S 
ATOM      8  C   UNL     1      -3.356  10.027   0.024  0.00  0.00    -0.015 A 
ATOM      9  C   UNL     1      -2.838  11.428   0.064  0.00  0.00    -0.041 C 
ATOM     10  C   UNL     1      -1.851  11.573   1.230  0.00  0.00    -0.005 C 
ATOM     11  C   UNL     1      -2.071  11.700  -1.244  0.00  0.00    -0.005 C 
ATOM     12  C   UNL     1      -6.231  13.071   0.541  0.00  0.00    -0.010 C 
ATOM     13  N   UNL     1      -3.911  12.458   0.176  0.00  0.00    +0.389 N 
ATOM     14  H   UNL     1      -3.589  13.191   0.819  0.00  0.00    -0.084 HD
ATOM     15  H   UNL     1      -4.069  12.863  -0.754  0.00  0.00    -0.084 HD
ENDROOT
BRANCH   6  16
ATOM     16  N   UNL     1      -3.734   6.006  -0.031  0.00  0.00    -0.275 N 
ATOM     17  C   UNL     1      -2.552   5.365   0.055  0.00  0.00    +0.249 C 
ATOM     18  O   UNL     1      -1.520   6.003   0.140  0.00  0.00    -0.270 OA
ATOM     19  H   UNL     1      -4.558   5.497  -0.098  0.00  0.00    +0.156 HD
BRANCH  17  20
ATOM     20  C   UNL     1      -2.510   3.892   0.048  0.00  0.00    +0.045 A 
ATOM     21  C   UNL     1      -3.683   3.149   0.073  0.00  0.00    +0.014 A 
ATOM     22  C   UNL     1      -3.640   1.761   0.065  0.00  0.00    +0.001 A 
ATOM     23  C   UNL     1      -2.463   1.079   0.033  0.00  0.00    +0.008 A 
ATOM     24  C   UNL     1      -1.238   1.766   0.000  0.00  0.00    -0.017 A 
ATOM     25  C   UNL     1      -1.233   3.183   0.013  0.00  0.00    -0.006 A 
ATOM     26  C   UNL     1      -0.014   3.871  -0.013  0.00  0.00    +0.009 A 
ATOM     27  C   UNL     1       1.155   3.170  -0.044  0.00  0.00    +0.001 A 
ATOM     28  C   UNL     1       1.154   1.777  -0.050  0.00  0.00    +0.001 A 
ATOM     29  C   UNL     1      -0.013   1.076  -0.026  0.00  0.00    +0.008 A 
ENDBRANCH  17  20
ENDBRANCH   6  16
BRANCH   5  30
ATOM     30  C   UNL     1      -6.204   7.673  -0.218  0.00  0.00    +0.102 C 
ATOM     31  N   UNL     1      -7.249   7.238  -0.309  0.00  0.00    -0.191 NA
ENDBRANCH   5  30
TORSDOF 3
