REMARK  Name = ZINC12565930
REMARK  8 active torsions:
REMARK  status: ('A' for Active; 'I' for Inactive)
REMARK    1  A    between atoms: C_1  and  C_2
REMARK    2  A    between atoms: C_3  and  C_19
REMARK    3  A    between atoms: C_4  and  C_10
REMARK    4  A    between atoms: C_13  and  N_16
REMARK    5  A    between atoms: N_21  and  C_22
REMARK    6  A    between atoms: C_23  and  C_30
REMARK    7  A    between atoms: C_30  and  O_32
REMARK    8  A    between atoms: O_32  and  C_33
REMARK                            x       y       z     vdW  Elec       q    Type
REMARK                         _______ _______ _______ _____ _____    ______ ____
ROOT
ATOM      1  C   UNL     1      -1.218  -0.878   0.021  0.00  0.00    +0.061 C 
ATOM      2  C   UNL     1       0.038  -0.045   0.022  0.00  0.00    +0.017 C 
ATOM      3  C   UNL     1      -0.059   1.301  -0.010  0.00  0.00    +0.056 C 
ATOM      4  C   UNL     1       1.229   2.100  -0.008  0.00  0.00    +0.139 C 
ATOM      5  N   UNL     1       2.488   1.338   0.029  0.00  0.00    -0.315 N 
ATOM      6  C   UNL     1       2.421  -0.008   0.058  0.00  0.00    +0.135 C 
ATOM      7  S   UNL     1       3.877  -0.908   0.102  0.00  0.00    -0.019 S 
ATOM      8  N   UNL     1       1.254  -0.664   0.055  0.00  0.00    -0.300 N 
ATOM      9  H   UNL     1       3.344   1.793   0.032  0.00  0.00    +0.149 HD
ATOM     10  H   UNL     1       1.274  -1.634   0.077  0.00  0.00    +0.154 HD
ENDROOT
BRANCH   4  11
ATOM     11  C   UNL     1       1.205   3.016   1.189  0.00  0.00    -0.023 A 
ATOM     12  C   UNL     1       1.574   2.539   2.432  0.00  0.00    +0.008 A 
ATOM     13  C   UNL     1       1.558   3.381   3.529  0.00  0.00    +0.033 A 
ATOM     14  C   UNL     1       1.160   4.697   3.384  0.00  0.00    +0.126 A 
ATOM     15  C   UNL     1       0.785   5.173   2.141  0.00  0.00    +0.033 A 
ATOM     16  C   UNL     1       0.808   4.333   1.044  0.00  0.00    +0.008 A 
BRANCH  14  17
ATOM     17  N   UNL     1       1.136   5.596   4.559  0.00  0.00    +0.056 N 
ATOM     18  O   UNL     1       0.786   6.756   4.431  0.00  0.00    -0.126 OA
ATOM     19  O   UNL     1       1.466   5.177   5.654  0.00  0.00    -0.126 OA
ENDBRANCH  14  17
ENDBRANCH   4  11
BRANCH   3  20
ATOM     20  C   UNL     1      -1.319   1.944  -0.051  0.00  0.00    +0.248 C 
ATOM     21  O   UNL     1      -1.724   2.427  -1.093  0.00  0.00    -0.270 OA
ATOM     22  N   UNL     1      -2.072   2.022   1.065  0.00  0.00    -0.275 N 
ATOM     23  H   UNL     1      -1.789   1.569   1.874  0.00  0.00    +0.156 HD
BRANCH  22  24
ATOM     24  C   UNL     1      -3.251   2.749   1.055  0.00  0.00    +0.087 A 
ATOM     25  C   UNL     1      -4.151   2.944   2.091  0.00  0.00    +0.091 A 
ATOM     26  C   UNL     1      -5.332   3.763   1.815  0.00  0.00    -0.021 A 
ATOM     27  C   UNL     1      -5.412   4.246   0.562  0.00  0.00    -0.004 A 
ATOM     28  S   UNL     1      -3.954   3.640  -0.251  0.00  0.00    -0.077 S 
ATOM     29  C   UNL     1      -6.649   5.078   0.357  0.00  0.00    +0.043 C 
ATOM     30  C   UNL     1      -7.133   5.415   1.785  0.00  0.00    +0.010 C 
ATOM     31  C   UNL     1      -6.557   4.238   2.597  0.00  0.00    +0.037 C 
BRANCH  25  32
ATOM     32  C   UNL     1      -3.929   2.353   3.411  0.00  0.00    +0.342 C 
ATOM     33  O   UNL     1      -3.308   2.969   4.257  0.00  0.00    -0.245 OA
BRANCH  32  34
ATOM     34  O   UNL     1      -4.412   1.125   3.690  0.00  0.00    -0.464 OA
ATOM     35  C   UNL     1      -4.154   0.602   5.020  0.00  0.00    +0.280 C 
ENDBRANCH  32  34
ENDBRANCH  25  32
ENDBRANCH  22  24
ENDBRANCH   3  20
TORSDOF 6
