REMARK  Name = ZINC03841056
REMARK  9 active torsions:
REMARK  status: ('A' for Active; 'I' for Inactive)
REMARK    1  A    between atoms: C_1  and  C_2
REMARK    2  A    between atoms: C_5  and  O_37
REMARK    3  A    between atoms: C_7  and  C_34
REMARK    4  A    between atoms: C_7  and  C_35
REMARK    5  A    between atoms: C_14  and  C_16
REMARK    6  A    between atoms: C_22  and  C_24
REMARK    7  A    between atoms: C_24  and  C_25
REMARK    8  A    between atoms: N_27  and  C_28
REMARK    9  A    between atoms: C_35  and  O_36
REMARK                            x       y       z     vdW  Elec       q    Type
REMARK                         _______ _______ _______ _____ _____    ______ ____
ROOT
ATOM      1  C   UNL     1       7.147   0.678  -1.990  0.00  0.00    +0.012 C 
ATOM      2  C   UNL     1       7.236   1.684  -0.841  0.00  0.00    -0.020 C 
ATOM      3  C   UNL     1       7.593   0.958   0.461  0.00  0.00    +0.010 C 
ATOM      4  C   UNL     1       8.964   0.321   0.370  0.00  0.00    +0.032 C 
ATOM      5  C   UNL     1      10.005   1.416   0.116  0.00  0.00    +0.123 C 
ATOM      6  C   UNL     1       9.686   2.096  -1.214  0.00  0.00    +0.021 C 
ATOM      7  C   UNL     1       8.296   2.739  -1.164  0.00  0.00    +0.011 C 
ATOM      8  C   UNL     1       8.004   3.331  -2.556  0.00  0.00    +0.049 C 
ATOM      9  C   UNL     1       6.554   3.651  -2.654  0.00  0.00    +0.014 A 
ATOM     10  C   UNL     1       5.551   3.242  -1.827  0.00  0.00    +0.056 A 
ATOM     11  N   UNL     1       4.324   3.655  -2.117  0.00  0.00    -0.243 NA
ATOM     12  C   UNL     1       4.062   4.432  -3.154  0.00  0.00    +0.109 A 
ATOM     13  S   UNL     1       5.697   4.643  -3.849  0.00  0.00    -0.072 S 
ATOM     14  C   UNL     1       5.870   2.351  -0.634  0.00  0.00    +0.053 C 
ATOM     15  C   UNL     1      10.734   3.176  -1.490  0.00  0.00    +0.016 C 
ENDROOT
BRANCH  12  16
ATOM     16  C   UNL     1       2.767   4.978  -3.615  0.00  0.00    +0.007 A 
ATOM     17  C   UNL     1       1.594   4.681  -2.921  0.00  0.00    +0.010 A 
ATOM     18  C   UNL     1       0.390   5.198  -3.354  0.00  0.00    +0.001 A 
ATOM     19  C   UNL     1       0.343   6.001  -4.479  0.00  0.00    +0.000 A 
ATOM     20  C   UNL     1       1.502   6.296  -5.175  0.00  0.00    +0.001 A 
ATOM     21  C   UNL     1       2.713   5.789  -4.750  0.00  0.00    +0.010 A 
ENDBRANCH  12  16
BRANCH   5  22
ATOM     22  O   UNL     1      11.308   0.833   0.055  0.00  0.00    -0.391 OA
ATOM     23  H   UNL     1      11.576   0.383   0.868  0.00  0.00    +0.210 HD
ENDBRANCH   5  22
BRANCH  14  24
ATOM     24  C   UNL     1       4.792   1.274  -0.500  0.00  0.00    +0.106 C 
BRANCH  24  25
ATOM     25  C   UNL     1       3.498   1.910  -0.063  0.00  0.00    +0.218 C 
ATOM     26  O   UNL     1       3.443   3.108   0.123  0.00  0.00    -0.275 OA
ATOM     27  N   UNL     1       2.401   1.149   0.121  0.00  0.00    -0.285 N 
ATOM     28  H   UNL     1       2.460   0.185   0.035  0.00  0.00    +0.155 HD
BRANCH  27  29
ATOM     29  C   UNL     1       1.177   1.750   0.437  0.00  0.00    +0.033 A 
ATOM     30  C   UNL     1       1.143   2.871   1.256  0.00  0.00    +0.023 A 
ATOM     31  C   UNL     1      -0.067   3.458   1.569  0.00  0.00    +0.002 A 
ATOM     32  C   UNL     1      -1.242   2.938   1.060  0.00  0.00    +0.000 A 
ATOM     33  C   UNL     1      -1.212   1.822   0.245  0.00  0.00    +0.002 A 
ATOM     34  C   UNL     1      -0.005   1.226  -0.068  0.00  0.00    +0.023 A 
ENDBRANCH  27  29
ENDBRANCH  24  25
ENDBRANCH  14  24
BRANCH   6  35
ATOM     35  C   UNL     1       9.722   1.056  -2.336  0.00  0.00    +0.165 C 
BRANCH  35  36
ATOM     36  O   UNL     1      11.057   0.571  -2.492  0.00  0.00    -0.394 OA
ATOM     37  H   UNL     1      11.155  -0.093  -3.188  0.00  0.00    +0.209 HD
ENDBRANCH  35  36
ENDBRANCH   6  35
TORSDOF 7
