REMARK  Name = ZINC12155080
REMARK  12 active torsions:
REMARK  status: ('A' for Active; 'I' for Inactive)
REMARK    1  A    between atoms: C_1  and  C_2
REMARK    2  A    between atoms: C_2  and  C_4
REMARK    3  A    between atoms: C_2  and  C_10
REMARK    4  A    between atoms: C_4  and  C_5
REMARK    5  A    between atoms: C_5  and  C_6
REMARK    6  A    between atoms: C_7  and  C_8
REMARK    7  A    between atoms: C_7  and  C_9
REMARK    8  A    between atoms: C_10  and  N_67
REMARK    9  A    between atoms: C_13  and  C_16
REMARK   10  A    between atoms: C_16  and  C_23
REMARK   11  A    between atoms: C_23  and  C_24
REMARK   12  A    between atoms: C_24  and  C_25
REMARK                            x       y       z     vdW  Elec       q    Type
REMARK                         _______ _______ _______ _____ _____    ______ ____
ROOT
ATOM      1  C   UNL     1      -4.490   0.720   1.979  0.00  0.00    +0.115 C 
ATOM      2  C   UNL     1      -4.633   2.219   1.800  0.00  0.00    +0.244 C 
ATOM      3  O   UNL     1      -3.814   2.982   1.333  0.00  0.00    -0.273 OA
ATOM      4  N   UNL     1      -5.858   2.527   2.268  0.00  0.00    -0.238 N 
ATOM      5  C   UNL     1      -6.503   1.442   2.713  0.00  0.00    +0.307 C 
ATOM      6  O   UNL     1      -7.624   1.468   3.183  0.00  0.00    -0.252 OA
ATOM      7  N   UNL     1      -5.772   0.320   2.584  0.00  0.00    -0.285 N 
ATOM      8  H   UNL     1      -6.228   3.424   2.281  0.00  0.00    +0.159 HD
ATOM      9  H   UNL     1      -6.038  -0.577   2.839  0.00  0.00    +0.151 HD
ENDROOT
BRANCH   1  12
ATOM     10  C   UNL     1      -2.408   0.720   5.218  0.00  0.00    -0.078 C 
ATOM     11  C   UNL     1      -3.545   1.094   4.263  0.00  0.00    -0.013 C 
ATOM     12  C   UNL     1      -3.325   0.399   2.917  0.00  0.00    +0.018 C 
ATOM     13  C   UNL     1      -3.250  -1.115   3.139  0.00  0.00    -0.013 C 
ATOM     14  C   UNL     1      -2.123  -1.425   4.127  0.00  0.00    -0.078 C 
ATOM     15  N   UNL     1      -2.406  -0.746   5.409  0.00  0.00    +0.380 N 
ATOM     16  H   UNL     1      -3.331  -1.039   5.744  0.00  0.00    -0.082 HD
BRANCH  15  17
ATOM     17  C   UNL     1      -1.391  -1.122   6.414  0.00  0.00    -0.076 C 
BRANCH  17  19
ATOM     18  C   UNL     1      -3.211  -1.640   8.046  0.00  0.00    +0.005 C 
ATOM     19  C   UNL     1      -1.944  -0.815   7.807  0.00  0.00    -0.030 C 
BRANCH  19  20
ATOM     20  C   UNL     1      -0.896  -1.172   8.863  0.00  0.00    +0.005 C 
BRANCH  20  21
ATOM     21  C   UNL     1      -1.400  -0.750  10.245  0.00  0.00    +0.027 C 
BRANCH  21  22
ATOM     22  C   UNL     1      -0.367  -1.102  11.284  0.00  0.00    -0.028 C 
ATOM     23  C   UNL     1       0.135  -0.166  12.052  0.00  0.00    -0.080 C 
ATOM     24  C   UNL     1      -0.216   1.279  11.806  0.00  0.00    +0.038 C 
ATOM     25  C   UNL     1       1.064  -0.534  13.179  0.00  0.00    +0.038 C 
ENDBRANCH  21  22
ENDBRANCH  20  21
ENDBRANCH  19  20
ENDBRANCH  17  19
ENDBRANCH  15  17
ENDBRANCH   1  12
BRANCH   1  26
ATOM     26  C   UNL     1      -4.295   0.033   0.626  0.00  0.00    +0.040 C 
BRANCH  26  27
ATOM     27  C   UNL     1      -5.498   0.327  -0.273  0.00  0.00    +0.038 C 
BRANCH  27  28
ATOM     28  C   UNL     1      -5.306  -0.350  -1.606  0.00  0.00    -0.047 A 
ATOM     29  C   UNL     1      -4.671   0.319  -2.636  0.00  0.00    +0.003 A 
ATOM     30  C   UNL     1      -4.491  -0.304  -3.857  0.00  0.00    +0.000 A 
ATOM     31  C   UNL     1      -4.954  -1.592  -4.051  0.00  0.00    +0.000 A 
ATOM     32  C   UNL     1      -5.593  -2.259  -3.022  0.00  0.00    +0.000 A 
ATOM     33  C   UNL     1      -5.769  -1.638  -1.800  0.00  0.00    +0.003 A 
ENDBRANCH  27  28
ENDBRANCH  26  27
ENDBRANCH   1  26
TORSDOF 9
