REMARK  Name = ZINC10251828
REMARK  4 active torsions:
REMARK  status: ('A' for Active; 'I' for Inactive)
REMARK    1  A    between atoms: C_3  and  N_15
REMARK    2  A    between atoms: C_6  and  C_7
REMARK    3  A    between atoms: N_15  and  S_16
REMARK    4  A    between atoms: S_16  and  C_19
REMARK                            x       y       z     vdW  Elec       q    Type
REMARK                         _______ _______ _______ _____ _____    ______ ____
ROOT
ATOM      1  N   UNL     1      -5.696   0.501   0.948  0.00  0.00    -0.216 N 
ATOM      2  H   UNL     1      -5.596  -0.448   1.120  0.00  0.00    +0.174 HD
ENDROOT
BRANCH   1   5
ATOM      3  C   UNL     1      -7.889   2.689   2.924  0.00  0.00    +0.012 A 
ATOM      4  C   UNL     1      -7.442   1.851   1.924  0.00  0.00    +0.025 A 
ATOM      5  C   UNL     1      -6.146   1.350   1.962  0.00  0.00    +0.048 A 
ATOM      6  C   UNL     1      -5.299   1.688   3.011  0.00  0.00    +0.025 A 
ATOM      7  C   UNL     1      -5.740   2.530   4.011  0.00  0.00    +0.012 A 
ATOM      8  C   UNL     1      -7.039   3.034   3.974  0.00  0.00    +0.002 A 
BRANCH   8   9
ATOM      9  C   UNL     1      -7.517   3.934   5.052  0.00  0.00    +0.090 A 
ATOM     10  C   UNL     1      -6.801   4.345   6.121  0.00  0.00    +0.116 A 
ATOM     11  N   UNL     1      -7.622   5.178   6.883  0.00  0.00    -0.324 N 
ATOM     12  C   UNL     1      -8.806   5.223   6.219  0.00  0.00    +0.170 A 
ATOM     13  N   UNL     1      -8.748   4.495   5.135  0.00  0.00    -0.222 NA
ATOM     14  S   UNL     1      -9.884   6.278   7.161  0.00  0.00    -0.086 S 
ATOM     15  C   UNL     1      -8.747   6.714   8.529  0.00  0.00    +0.099 C 
ATOM     16  C   UNL     1      -7.485   5.937   8.124  0.00  0.00    +0.135 C 
ENDBRANCH   8   9
ENDBRANCH   1   5
BRANCH   1  17
ATOM     17  S   UNL     1      -5.335   1.116  -0.546  0.00  0.00    +0.072 S 
ATOM     18  O   UNL     1      -6.451   1.901  -0.943  0.00  0.00    -0.150 OA
ATOM     19  O   UNL     1      -4.850   0.031  -1.325  0.00  0.00    -0.150 OA
BRANCH  17  20
ATOM     20  C   UNL     1      -3.985   2.229  -0.339  0.00  0.00    +0.109 A 
ATOM     21  C   UNL     1      -4.222   3.584  -0.183  0.00  0.00    +0.029 A 
ATOM     22  C   UNL     1      -3.168   4.468  -0.009  0.00  0.00    +0.006 A 
ATOM     23  C   UNL     1      -1.864   4.006  -0.007  0.00  0.00    -0.037 A 
ATOM     24  C   UNL     1      -1.624   2.639  -0.166  0.00  0.00    +0.022 A 
ATOM     25  C   UNL     1      -2.691   1.752  -0.331  0.00  0.00    +0.040 A 
ATOM     26  C   UNL     1      -0.240   2.126  -0.154  0.00  0.00    +0.163 C 
ATOM     27  O   UNL     1      -0.012   0.938  -0.082  0.00  0.00    -0.292 OA
ATOM     28  C   UNL     1       0.885   3.137  -0.242  0.00  0.00    +0.080 C 
ATOM     29  C   UNL     1       0.522   4.307   0.681  0.00  0.00    +0.012 C 
ATOM     30  C   UNL     1      -0.740   4.991   0.160  0.00  0.00    +0.036 C 
ENDBRANCH  17  20
ENDBRANCH   1  17
TORSDOF 4
