REMARK  Name = ZINC51871509
REMARK  5 active torsions:
REMARK  status: ('A' for Active; 'I' for Inactive)
REMARK    1  A    between atoms: C_3  and  O_11
REMARK    2  A    between atoms: C_6  and  N_7
REMARK    3  A    between atoms: O_11  and  C_12
REMARK    4  A    between atoms: C_12  and  C_13
REMARK    5  A    between atoms: C_13  and  C_14
REMARK                            x       y       z     vdW  Elec       q    Type
REMARK                         _______ _______ _______ _____ _____    ______ ____
ROOT
ATOM      1  O   UNL     1       3.548   2.105  -0.021  0.00  0.00    -0.491 OA
ENDROOT
BRANCH   1   4
ATOM      2  C   UNL     1      -0.017   1.378   0.010  0.00  0.00    +0.036 A 
ATOM      3  C   UNL     1       1.170   2.087   0.002  0.00  0.00    +0.049 A 
ATOM      4  C   UNL     1       2.380   1.410  -0.013  0.00  0.00    +0.135 A 
ATOM      5  C   UNL     1       2.397   0.022  -0.021  0.00  0.00    +0.062 A 
ATOM      6  C   UNL     1       1.208  -0.682  -0.013  0.00  0.00    +0.051 A 
ATOM      7  C   UNL     1       0.002  -0.004   0.002  0.00  0.00    +0.127 A 
ATOM      8 BR   UNL     1       4.045  -0.905  -0.042  0.00  0.00    -0.046 Br
BRANCH   7   9
ATOM      9  N   UNL     1      -1.270  -0.760   0.011  0.00  0.00    +0.056 N 
ATOM     10  O   UNL     1      -2.325  -0.169   0.024  0.00  0.00    -0.126 OA
ATOM     11  O   UNL     1      -1.255  -1.969   0.004  0.00  0.00    -0.126 OA
ENDBRANCH   7   9
ENDBRANCH   1   4
BRANCH   1  12
ATOM     12  C   UNL     1       3.455   3.531  -0.013  0.00  0.00    +0.227 C 
BRANCH  12  13
ATOM     13  C   UNL     1       4.861   4.134  -0.024  0.00  0.00    +0.025 C 
BRANCH  13  14
ATOM     14  C   UNL     1       4.761   5.661  -0.015  0.00  0.00    -0.069 C 
ATOM     15  C   UNL     1       6.163   6.263   0.102  0.00  0.00    -0.016 C 
ATOM     16  C   UNL     1       6.058   7.790   0.110  0.00  0.00    -0.003 C 
ATOM     17  C   UNL     1       5.333   8.250  -1.158  0.00  0.00    -0.019 C 
ATOM     18  C   UNL     1       3.962   7.574  -1.228  0.00  0.00    -0.082 C 
ATOM     19  N   UNL     1       4.132   6.117  -1.260  0.00  0.00    +0.381 N 
ATOM     20  H   UNL     1       4.716   5.864  -2.043  0.00  0.00    -0.086 HD
ATOM     21  H   UNL     1       3.230   5.676  -1.361  0.00  0.00    -0.086 HD
ENDBRANCH  13  14
ENDBRANCH  12  13
ENDBRANCH   1  12
TORSDOF 5
