REMARK  Name = ZINC38671194
REMARK  12 active torsions:
REMARK  status: ('A' for Active; 'I' for Inactive)
REMARK    1  A    between atoms: C_1  and  C_2
REMARK    2  A    between atoms: C_2  and  C_3
REMARK    3  A    between atoms: C_3  and  O_4
REMARK    4  A    between atoms: O_4  and  C_5
REMARK    5  A    between atoms: C_8  and  S_12
REMARK    6  A    between atoms: C_10  and  C_11
REMARK    7  A    between atoms: S_12  and  N_15
REMARK    8  A    between atoms: N_15  and  C_16
REMARK    9  A    between atoms: C_16  and  C_17
REMARK   10  A    between atoms: C_17  and  C_19
REMARK   11  A    between atoms: C_17  and  N_30
REMARK   12  A    between atoms: N_28  and  C_29
REMARK                            x       y       z     vdW  Elec       q    Type
REMARK                         _______ _______ _______ _____ _____    ______ ____
ROOT
ATOM      1  C   UNL     1      -7.389  -6.067  -3.428  0.00  0.00    -0.022 C 
ENDROOT
BRANCH   1   2
ATOM      2  C   UNL     1      -6.572  -6.892  -4.389  0.00  0.00    -0.059 A 
ATOM      3  C   UNL     1      -5.676  -6.272  -5.241  0.00  0.00    +0.004 A 
ATOM      4  C   UNL     1      -4.929  -7.028  -6.122  0.00  0.00    +0.023 A 
ATOM      5  C   UNL     1      -5.077  -8.410  -6.152  0.00  0.00    +0.033 A 
ATOM      6  C   UNL     1      -5.973  -9.031  -5.296  0.00  0.00    -0.026 A 
ATOM      7  C   UNL     1      -6.716  -8.266  -4.413  0.00  0.00    +0.007 A 
ATOM      8  C   UNL     1      -6.152 -10.526  -5.293  0.00  0.00    +0.038 C 
ATOM      9  C   UNL     1      -5.661 -11.127  -6.611  0.00  0.00    +0.024 C 
ATOM     10  C   UNL     1      -4.241 -10.615  -6.890  0.00  0.00    +0.105 C 
ATOM     11  N   UNL     1      -4.314  -9.157  -7.056  0.00  0.00    -0.333 N 
ATOM     12  C   UNL     1      -3.599  -8.497  -8.151  0.00  0.00    +0.129 C 
ENDBRANCH   1   2
BRANCH   1  13
ATOM     13  N   UNL     1      -7.838  -4.838  -4.096  0.00  0.00    +0.385 N 
ATOM     14  C   UNL     1      -8.654  -4.048  -3.167  0.00  0.00    -0.078 C 
ATOM     15  C   UNL     1      -9.056  -2.729  -3.831  0.00  0.00    -0.019 C 
ATOM     16  C   UNL     1      -9.865  -3.027  -5.097  0.00  0.00    -0.004 C 
ATOM     17  C   UNL     1      -9.031  -3.914  -6.026  0.00  0.00    -0.019 C 
ATOM     18  C   UNL     1      -8.630  -5.189  -5.281  0.00  0.00    -0.078 C 
ATOM     19  H   UNL     1      -7.034  -4.298  -4.378  0.00  0.00    -0.081 HD
ENDBRANCH   1  13
BRANCH   1  20
ATOM     20  C   UNL     1      -6.534  -5.704  -2.213  0.00  0.00    +0.095 C 
BRANCH  20  21
ATOM     21  N   UNL     1      -6.142  -6.927  -1.508  0.00  0.00    -0.191 NA
ATOM     22  H   UNL     1      -6.591  -7.765  -1.704  0.00  0.00    +0.148 HD
BRANCH  21  23
ATOM     23  S   UNL     1      -4.932  -6.881  -0.379  0.00  0.00    +0.058 S 
ATOM     24  O   UNL     1      -3.844  -6.191  -0.977  0.00  0.00    -0.153 OA
ATOM     25  O   UNL     1      -4.808  -8.199   0.138  0.00  0.00    -0.153 OA
BRANCH  23  29
ATOM     26  C   UNL     1      -6.388  -4.286   3.035  0.00  0.00    +0.123 A 
ATOM     27  C   UNL     1      -6.630  -5.652   3.049  0.00  0.00    +0.048 A 
ATOM     28  C   UNL     1      -6.184  -6.442   2.007  0.00  0.00    +0.032 A 
ATOM     29  C   UNL     1      -5.499  -5.871   0.950  0.00  0.00    +0.106 A 
ATOM     30  C   UNL     1      -5.257  -4.510   0.934  0.00  0.00    +0.035 A 
ATOM     31  C   UNL     1      -5.705  -3.716   1.972  0.00  0.00    -0.007 A 
ATOM     32  C   UNL     1      -5.446  -2.231   1.951  0.00  0.00    +0.047 C 
BRANCH  26  33
ATOM     33  O   UNL     1      -6.825  -3.507   4.060  0.00  0.00    -0.492 OA
BRANCH  33  34
ATOM     34  C   UNL     1      -7.522  -4.163   5.122  0.00  0.00    +0.229 C 
BRANCH  34  36
ATOM     35  C   UNL     1      -8.679  -3.834   7.311  0.00  0.00    +0.007 C 
ATOM     36  C   UNL     1      -7.933  -3.132   6.175  0.00  0.00    +0.038 C 
ENDBRANCH  34  36
ENDBRANCH  33  34
ENDBRANCH  26  33
ENDBRANCH  23  29
ENDBRANCH  21  23
ENDBRANCH  20  21
ENDBRANCH   1  20
TORSDOF 9
