REMARK  Name = ZINC20149733
REMARK  13 active torsions:
REMARK  status: ('A' for Active; 'I' for Inactive)
REMARK    1  A    between atoms: C_1  and  C_2
REMARK    2  A    between atoms: C_2  and  C_3
REMARK    3  A    between atoms: C_3  and  C_5
REMARK    4  A    between atoms: C_3  and  O_6
REMARK    5  A    between atoms: O_6  and  C_7
REMARK    6  A    between atoms: C_7  and  C_9
REMARK    7  A    between atoms: C_10  and  C_39
REMARK    8  A    between atoms: C_14  and  C_16
REMARK    9  A    between atoms: C_19  and  O_25
REMARK   10  A    between atoms: C_20  and  O_22
REMARK   11  A    between atoms: O_22  and  C_23
REMARK   12  A    between atoms: C_23  and  C_24
REMARK   13  A    between atoms: C_29  and  C_32
REMARK                            x       y       z     vdW  Elec       q    Type
REMARK                         _______ _______ _______ _____ _____    ______ ____
ROOT
ATOM      1  C   UNL     1       2.631  -3.623  -1.288  0.00  0.00    +0.065 C 
ATOM      2  C   UNL     1       2.425  -4.952  -1.265  0.00  0.00    +0.016 C 
ATOM      3  N   UNL     1       2.134  -5.587  -0.090  0.00  0.00    -0.321 N 
ATOM      4  C   UNL     1       2.427  -5.001   1.112  0.00  0.00    +0.016 C 
ATOM      5  C   UNL     1       2.638  -3.670   1.191  0.00  0.00    +0.024 C 
ATOM      6  C   UNL     1       2.543  -2.800  -0.037  0.00  0.00    +0.092 C 
ATOM      7  C   UNL     1       2.954  -3.058   2.417  0.00  0.00    +0.162 C 
ATOM      8  O   UNL     1       3.132  -1.856   2.455  0.00  0.00    -0.292 OA
ATOM      9  C   UNL     1       3.077  -3.862   3.682  0.00  0.00    +0.088 C 
ATOM     10  C   UNL     1       3.514  -5.287   3.326  0.00  0.00    +0.032 C 
ATOM     11  C   UNL     1       2.502  -5.874   2.339  0.00  0.00    +0.059 C 
ATOM     12  C   UNL     1       2.516  -5.746  -2.543  0.00  0.00    +0.061 C 
ATOM     13  H   UNL     1       1.659  -6.579  -0.105  0.00  0.00    +0.152 HD
ENDROOT
BRANCH  10  14
ATOM     14  C   UNL     1       3.553  -6.131   4.574  0.00  0.00    -0.043 A 
ATOM     15  C   UNL     1       2.410  -6.293   5.335  0.00  0.00    +0.005 A 
ATOM     16  C   UNL     1       2.444  -7.071   6.476  0.00  0.00    +0.020 A 
ATOM     17  C   UNL     1       3.624  -7.680   6.863  0.00  0.00    +0.041 A 
ATOM     18  C   UNL     1       4.769  -7.513   6.105  0.00  0.00    +0.020 A 
ATOM     19  C   UNL     1       4.733  -6.739   4.960  0.00  0.00    +0.005 A 
ATOM     20 CL   UNL     1       3.669  -8.652   8.301  0.00  0.00    -0.084 Cl
ENDBRANCH  10  14
BRANCH   6  21
ATOM     21  C   UNL     1       1.227  -2.064  -0.021  0.00  0.00    -0.032 A 
ATOM     22  C   UNL     1       0.041  -2.773  -0.013  0.00  0.00    +0.008 A 
ATOM     23  C   UNL     1      -1.168  -2.103   0.002  0.00  0.00    +0.049 A 
ATOM     24  C   UNL     1      -1.192  -0.718   0.015  0.00  0.00    +0.158 A 
ATOM     25  C   UNL     1       0.002  -0.004   0.002  0.00  0.00    +0.162 A 
ATOM     26  C   UNL     1       1.210  -0.682  -0.013  0.00  0.00    +0.054 A 
BRANCH  24  27
ATOM     27  O   UNL     1      -2.381  -0.057   0.036  0.00  0.00    -0.503 OA
ATOM     28  H   UNL     1      -2.399   1.043   0.047  0.00  0.00    +0.292 HD
ENDBRANCH  24  27
BRANCH  25  29
ATOM     29  O   UNL     1      -0.016   1.356   0.009  0.00  0.00    -0.489 OA
BRANCH  29  30
ATOM     30  C   UNL     1       1.248   2.022   0.001  0.00  0.00    +0.226 C 
ATOM     31  C   UNL     1       1.027   3.536   0.011  0.00  0.00    +0.048 C 
ENDBRANCH  29  30
ENDBRANCH  25  29
ENDBRANCH   6  21
BRANCH   1  32
ATOM     32  C   UNL     1       2.938  -2.990  -2.515  0.00  0.00    +0.338 C 
ATOM     33  O   UNL     1       3.013  -3.647  -3.537  0.00  0.00    -0.245 OA
BRANCH  32  34
ATOM     34  O   UNL     1       3.147  -1.658  -2.553  0.00  0.00    -0.458 OA
BRANCH  34  35
ATOM     35  C   UNL     1       3.452  -1.085  -3.826  0.00  0.00    +0.173 C 
ATOM     36  C   UNL     1       4.967  -1.094  -4.040  0.00  0.00    +0.052 C 
BRANCH  35  38
ATOM     37  C   UNL     1       1.413   0.357  -3.784  0.00  0.00    +0.007 C 
ATOM     38  C   UNL     1       2.940   0.356  -3.873  0.00  0.00    +0.041 C 
ENDBRANCH  35  38
ENDBRANCH  34  35
ENDBRANCH  32  34
ENDBRANCH   1  32
TORSDOF 9
