REMARK  Name = ZINC39970911
REMARK  11 active torsions:
REMARK  status: ('A' for Active; 'I' for Inactive)
REMARK    1  A    between atoms: C_1  and  C_2
REMARK    2  A    between atoms: C_5  and  C_37
REMARK    3  A    between atoms: N_8  and  S_10
REMARK    4  A    between atoms: S_10  and  C_13
REMARK    5  A    between atoms: C_16  and  N_19
REMARK    6  A    between atoms: N_19  and  C_20
REMARK    7  A    between atoms: C_20  and  N_22
REMARK    8  A    between atoms: N_22  and  C_23
REMARK    9  A    between atoms: N_22  and  C_30
REMARK   10  A    between atoms: C_23  and  C_24
REMARK   11  A    between atoms: C_30  and  C_31
REMARK                            x       y       z     vdW  Elec       q    Type
REMARK                         _______ _______ _______ _____ _____    ______ ____
ROOT
ATOM      1  N   UNL     1       2.057   6.504   1.312  0.00  0.00    -0.297 N 
ATOM      2  H   UNL     1       1.915   7.119   2.049  0.00  0.00    +0.154 HD
ENDROOT
BRANCH   1   6
ATOM      3  C   UNL     1       2.664   2.453   2.069  0.00  0.00    +0.106 A 
ATOM      4  C   UNL     1       3.428   3.098   1.115  0.00  0.00    +0.030 A 
ATOM      5  C   UNL     1       3.229   4.441   0.861  0.00  0.00    +0.025 A 
ATOM      6  C   UNL     1       2.261   5.144   1.566  0.00  0.00    +0.033 A 
ATOM      7  C   UNL     1       1.495   4.492   2.524  0.00  0.00    +0.025 A 
ATOM      8  C   UNL     1       1.694   3.148   2.769  0.00  0.00    +0.030 A 
BRANCH   3   9
ATOM      9  S   UNL     1       2.921   0.740   2.389  0.00  0.00    +0.061 S 
ATOM     10  O   UNL     1       2.448   0.497   3.708  0.00  0.00    -0.153 OA
ATOM     11  O   UNL     1       4.253   0.447   1.992  0.00  0.00    -0.153 OA
BRANCH   9  17
ATOM     12  C   UNL     1      -0.394   1.568   0.669  0.00  0.00    +0.009 C 
ATOM     13  C   UNL     1      -0.419   0.038   0.710  0.00  0.00    +0.002 C 
ATOM     14  C   UNL     1      -0.007  -0.516  -0.655  0.00  0.00    +0.009 C 
ATOM     15  C   UNL     1       1.393  -0.011  -1.011  0.00  0.00    +0.002 C 
ATOM     16  C   UNL     1       2.394  -0.511   0.036  0.00  0.00    +0.112 C 
ATOM     17  N   UNL     1       1.927  -0.104   1.368  0.00  0.00    -0.176 NA
ATOM     18  C   UNL     1       0.561  -0.460   1.778  0.00  0.00    +0.112 C 
ATOM     19  C   UNL     1       1.791  -0.539  -2.391  0.00  0.00    +0.009 C 
ENDBRANCH   9  17
ENDBRANCH   3   9
ENDBRANCH   1   6
BRANCH   1  20
ATOM     20  C   UNL     1       2.058   6.960   0.044  0.00  0.00    +0.138 C 
ATOM     21  S   UNL     1       2.166   5.859  -1.262  0.00  0.00    -0.018 S 
BRANCH  20  22
ATOM     22  N   UNL     1       1.974   8.284  -0.196  0.00  0.00    -0.304 N 
BRANCH  22  23
ATOM     23  C   UNL     1       1.976   8.780  -1.575  0.00  0.00    +0.142 C 
BRANCH  23  24
ATOM     24  C   UNL     1       0.559   8.854  -2.083  0.00  0.00    -0.030 A 
ATOM     25  C   UNL     1      -0.006   7.762  -2.716  0.00  0.00    +0.005 A 
ATOM     26  C   UNL     1      -1.305   7.830  -3.182  0.00  0.00    +0.000 A 
ATOM     27  C   UNL     1      -2.040   8.989  -3.016  0.00  0.00    +0.000 A 
ATOM     28  C   UNL     1      -1.475  10.080  -2.383  0.00  0.00    +0.000 A 
ATOM     29  C   UNL     1      -0.177  10.011  -1.913  0.00  0.00    +0.005 A 
ENDBRANCH  23  24
ENDBRANCH  22  23
BRANCH  22  30
ATOM     30  C   UNL     1       1.882   9.227   0.921  0.00  0.00    +0.142 C 
BRANCH  30  31
ATOM     31  C   UNL     1       3.267   9.646   1.341  0.00  0.00    -0.030 A 
ATOM     32  C   UNL     1       3.947   8.923   2.302  0.00  0.00    +0.005 A 
ATOM     33  C   UNL     1       5.218   9.307   2.687  0.00  0.00    +0.000 A 
ATOM     34  C   UNL     1       5.809  10.416   2.109  0.00  0.00    +0.000 A 
ATOM     35  C   UNL     1       5.130  11.139   1.147  0.00  0.00    +0.000 A 
ATOM     36  C   UNL     1       3.860  10.752   0.759  0.00  0.00    +0.005 A 
ENDBRANCH  30  31
ENDBRANCH  22  30
ENDBRANCH  20  22
ENDBRANCH   1  20
TORSDOF 9
