REMARK  Name = ZINC09325293
REMARK  7 active torsions:
REMARK  status: ('A' for Active; 'I' for Inactive)
REMARK    1  A    between atoms: C_1  and  O_2
REMARK    2  A    between atoms: O_2  and  C_3
REMARK    3  A    between atoms: C_11  and  N_16
REMARK    4  A    between atoms: C_12  and  C_13
REMARK    5  A    between atoms: C_17  and  C_19
REMARK    6  A    between atoms: C_22  and  S_25
REMARK    7  A    between atoms: S_25  and  N_28
REMARK                            x       y       z     vdW  Elec       q    Type
REMARK                         _______ _______ _______ _____ _____    ______ ____
ROOT
ATOM      1  C   UNL     1       4.227   2.562  -4.429  0.00  0.00    +0.403 C 
ATOM      2  O   UNL     1       3.783   2.103  -5.462  0.00  0.00    -0.226 OA
ATOM      3  N   UNL     1       3.388   3.015  -3.477  0.00  0.00    -0.262 N 
ATOM      4  C   UNL     1       1.930   2.966  -3.659  0.00  0.00    +0.116 C 
ATOM      5  C   UNL     1       1.315   2.024  -2.622  0.00  0.00    +0.056 C 
ATOM      6  C   UNL     1       1.880   2.355  -1.247  0.00  0.00    -0.020 A 
ATOM      7  C   UNL     1       3.034   3.045  -1.109  0.00  0.00    +0.013 A 
ATOM      8  S   UNL     1       3.284   3.172   0.638  0.00  0.00    -0.076 S 
ATOM      9  C   UNL     1       1.871   2.330   1.184  0.00  0.00    +0.085 A 
ATOM     10  C   UNL     1       1.245   1.963   0.001  0.00  0.00    +0.068 A 
ATOM     11  C   UNL     1       3.899   3.579  -2.211  0.00  0.00    +0.153 C 
ENDROOT
BRANCH  10  12
ATOM     12  C   UNL     1      -0.014   1.213   0.009  0.00  0.00    +0.244 C 
ATOM     13  O   UNL     1       0.002  -0.004   0.002  0.00  0.00    -0.270 OA
ATOM     14  N   UNL     1      -1.191   1.871   0.018  0.00  0.00    -0.325 N 
ATOM     15  H   UNL     1      -2.024   1.375   0.019  0.00  0.00    +0.145 HD
ATOM     16  H   UNL     1      -1.204   2.841   0.023  0.00  0.00    +0.145 HD
ENDBRANCH  10  12
BRANCH   9  17
ATOM     17  N   UNL     1       1.467   2.081   2.485  0.00  0.00    -0.275 N 
ATOM     18  C   UNL     1       2.212   2.520   3.518  0.00  0.00    +0.249 C 
ATOM     19  O   UNL     1       3.240   3.134   3.309  0.00  0.00    -0.270 OA
ATOM     20  H   UNL     1       0.647   1.591   2.653  0.00  0.00    +0.156 HD
BRANCH  18  21
ATOM     21  C   UNL     1       1.781   2.254   4.907  0.00  0.00    +0.037 A 
ATOM     22  C   UNL     1       0.598   1.554   5.151  0.00  0.00    +0.015 A 
ATOM     23  C   UNL     1       0.204   1.304   6.449  0.00  0.00    +0.029 A 
ATOM     24  C   UNL     1       0.972   1.756   7.508  0.00  0.00    +0.106 A 
ATOM     25  C   UNL     1       2.142   2.456   7.273  0.00  0.00    +0.029 A 
ATOM     26  C   UNL     1       2.551   2.707   5.979  0.00  0.00    +0.015 A 
BRANCH  24  27
ATOM     27  S   UNL     1       0.457   1.439   9.163  0.00  0.00    +0.061 S 
ATOM     28  O   UNL     1      -0.385   0.295   9.115  0.00  0.00    -0.153 OA
ATOM     29  O   UNL     1       1.626   1.490   9.969  0.00  0.00    -0.153 OA
BRANCH  27  30
ATOM     30  N   UNL     1      -0.497   2.709   9.631  0.00  0.00    -0.177 NA
ATOM     31  C   UNL     1      -0.026   3.937  10.289  0.00  0.00    +0.109 C 
ATOM     32  C   UNL     1      -1.265   4.818  10.556  0.00  0.00    +0.018 C 
ATOM     33  C   UNL     1      -2.427   3.789  10.554  0.00  0.00    +0.018 C 
ATOM     34  C   UNL     1      -1.959   2.794   9.463  0.00  0.00    +0.109 C 
ENDBRANCH  27  30
ENDBRANCH  24  27
ENDBRANCH  18  21
ENDBRANCH   9  17
BRANCH   1  36
ATOM     35  C   UNL     1       6.402   2.114  -5.304  0.00  0.00    +0.282 C 
ATOM     36  O   UNL     1       5.559   2.620  -4.236  0.00  0.00    -0.454 OA
ENDBRANCH   1  36
TORSDOF 6
