REMARK  Name = ZINC32902995
REMARK  12 active torsions:
REMARK  status: ('A' for Active; 'I' for Inactive)
REMARK    1  A    between atoms: C_1  and  C_2
REMARK    2  A    between atoms: C_11  and  N_22
REMARK    3  A    between atoms: C_13  and  C_15
REMARK    4  A    between atoms: C_15  and  N_16
REMARK    5  A    between atoms: N_22  and  C_23
REMARK    6  A    between atoms: C_23  and  C_24
REMARK    7  A    between atoms: C_24  and  C_26
REMARK    8  A    between atoms: C_24  and  N_29
REMARK    9  A    between atoms: C_26  and  C_27
REMARK   10  A    between atoms: C_26  and  C_28
REMARK   11  A    between atoms: N_29  and  C_30
REMARK   12  A    between atoms: N_29  and  C_31
REMARK                            x       y       z     vdW  Elec       q    Type
REMARK                         _______ _______ _______ _____ _____    ______ ____
ROOT
ATOM      1  C   UNL     1      -4.691   6.361  -4.632  0.00  0.00    +0.008 C 
ATOM      2  C   UNL     1      -4.351   5.277  -3.607  0.00  0.00    -0.009 C 
ATOM      3  C   UNL     1      -4.010   3.972  -4.332  0.00  0.00    +0.008 C 
ATOM      4  C   UNL     1      -3.911   2.828  -3.323  0.00  0.00    +0.037 C 
ATOM      5  C   UNL     1      -2.948   3.234  -2.211  0.00  0.00    -0.025 A 
ATOM      6  C   UNL     1      -2.634   4.530  -2.011  0.00  0.00    -0.004 A 
ATOM      7  S   UNL     1      -1.506   4.526  -0.642  0.00  0.00    -0.073 S 
ATOM      8  C   UNL     1      -1.459   2.780  -0.339  0.00  0.00    +0.114 A 
ATOM      9  C   UNL     1      -2.326   2.254  -1.319  0.00  0.00    +0.051 A 
ATOM     10  C   UNL     1      -2.478   0.840  -1.305  0.00  0.00    +0.131 A 
ATOM     11  N   UNL     1      -1.814   0.130  -0.406  0.00  0.00    -0.216 NA
ATOM     12  C   UNL     1      -1.020   0.692   0.488  0.00  0.00    +0.146 A 
ATOM     13  N   UNL     1      -0.840   1.998   0.524  0.00  0.00    -0.223 NA
ATOM     14  C   UNL     1      -3.132   5.714  -2.781  0.00  0.00    +0.046 C 
ENDROOT
BRANCH  10  15
ATOM     15  N   UNL     1      -3.303   0.215  -2.222  0.00  0.00    -0.330 N 
ATOM     16  H   UNL     1      -3.768   0.798  -3.031  0.00  0.00    +0.147 HD
BRANCH  15  17
ATOM     17  C   UNL     1      -3.559  -1.224  -2.115  0.00  0.00    +0.088 C 
BRANCH  17  18
ATOM     18  C   UNL     1      -4.538  -1.650  -3.211  0.00  0.00    -0.049 C 
BRANCH  18  19
ATOM     19  N   UNL     1      -3.886  -1.533  -4.523  0.00  0.00    +0.379 N 
ATOM     20  C   UNL     1      -4.198  -0.243  -5.152  0.00  0.00    -0.096 C 
ATOM     21  C   UNL     1      -2.434  -1.726  -4.408  0.00  0.00    -0.096 C 
ATOM     22  H   UNL     1      -4.283  -2.329  -5.170  0.00  0.00    -0.082 HD
ENDBRANCH  18  19
BRANCH  18  23
ATOM     23  C   UNL     1      -4.961  -3.102  -2.980  0.00  0.00    -0.029 C 
ATOM     24  C   UNL     1      -6.071  -3.473  -3.966  0.00  0.00    +0.005 C 
ATOM     25  C   UNL     1      -3.759  -4.024  -3.195  0.00  0.00    +0.005 C 
ENDBRANCH  18  23
ENDBRANCH  17  18
ENDBRANCH  15  17
ENDBRANCH  10  15
BRANCH  12  26
ATOM     26  C   UNL     1      -0.301  -0.179   1.485  0.00  0.00    +0.160 C 
BRANCH  26  27
ATOM     27  N   UNL     1      -1.132  -0.339   2.685  0.00  0.00    -0.291 NA
ATOM     28  C   UNL     1      -1.285   0.940   3.394  0.00  0.00    +0.113 C 
ATOM     29  C   UNL     1      -2.204   0.740   4.602  0.00  0.00    +0.175 C 
ATOM     30  O   UNL     1      -1.664  -0.283   5.442  0.00  0.00    -0.377 OA
ATOM     31  C   UNL     1      -1.503  -1.543   4.784  0.00  0.00    +0.175 C 
ATOM     32  C   UNL     1      -0.576  -1.367   3.578  0.00  0.00    +0.113 C 
ENDBRANCH  26  27
ENDBRANCH  12  26
TORSDOF 7
