REMARK  Name = ZINC64798855
REMARK  9 active torsions:
REMARK  status: ('A' for Active; 'I' for Inactive)
REMARK    1  A    between atoms: C_1  and  O_2
REMARK    2  A    between atoms: O_2  and  C_3
REMARK    3  A    between atoms: C_5  and  C_13
REMARK    4  A    between atoms: C_6  and  O_11
REMARK    5  A    between atoms: C_8  and  O_9
REMARK    6  A    between atoms: O_9  and  C_10
REMARK    7  A    between atoms: O_11  and  C_12
REMARK    8  A    between atoms: C_23  and  S_24
REMARK    9  A    between atoms: S_24  and  C_27
REMARK                            x       y       z     vdW  Elec       q    Type
REMARK                         _______ _______ _______ _____ _____    ______ ____
ROOT
ATOM      1  C   UNL     1       2.653   0.264  -3.289  0.00  0.00    +0.070 C 
ATOM      2  C   UNL     1       1.506   0.969  -4.027  0.00  0.00    +0.109 C 
ATOM      3  C   UNL     1       2.045   1.970  -5.008  0.00  0.00    +0.218 C 
ATOM      4  O   UNL     1       1.480   2.095  -6.074  0.00  0.00    -0.275 OA
ATOM      5  N   UNL     1       3.123   2.734  -4.763  0.00  0.00    -0.283 N 
ATOM      6  C   UNL     1       3.917   2.452  -3.613  0.00  0.00    +0.070 A 
ATOM      7  C   UNL     1       3.678   1.288  -2.933  0.00  0.00    +0.021 A 
ATOM      8  S   UNL     1       4.844   1.329  -1.605  0.00  0.00    -0.097 S 
ATOM      9  C   UNL     1       5.630   2.880  -2.021  0.00  0.00    +0.074 A 
ATOM     10  C   UNL     1       4.944   3.258  -3.127  0.00  0.00    +0.122 A 
ATOM     11  H   UNL     1       3.356   3.464  -5.357  0.00  0.00    +0.155 HD
ENDROOT
BRANCH   1  14
ATOM     12  C   UNL     1       1.034  -0.212   0.091  0.00  0.00    +0.162 A 
ATOM     13  C   UNL     1       1.518   0.383  -1.062  0.00  0.00    +0.057 A 
ATOM     14  C   UNL     1       2.127  -0.386  -2.035  0.00  0.00    +0.006 A 
ATOM     15  C   UNL     1       2.256  -1.756  -1.860  0.00  0.00    +0.128 A 
ATOM     16  C   UNL     1       1.773  -2.356  -0.707  0.00  0.00    +0.095 A 
ATOM     17  C   UNL     1       1.167  -1.585   0.272  0.00  0.00    +0.165 A 
BRANCH  12  19
ATOM     18  C   UNL     1       0.332   1.948   0.796  0.00  0.00    +0.277 C 
ATOM     19  O   UNL     1       0.434   0.546   1.049  0.00  0.00    -0.491 OA
ENDBRANCH  12  19
BRANCH  17  20
ATOM     20  O   UNL     1       0.697  -2.171   1.406  0.00  0.00    -0.491 OA
ATOM     21  C   UNL     1       0.868  -3.585   1.525  0.00  0.00    +0.277 C 
ENDBRANCH  17  20
BRANCH  15  22
ATOM     22  O   UNL     1       2.856  -2.511  -2.819  0.00  0.00    -0.495 OA
ATOM     23  C   UNL     1       2.954  -3.915  -2.572  0.00  0.00    +0.277 C 
ENDBRANCH  15  22
ENDBRANCH   1  14
BRANCH  10  24
ATOM     24  S   UNL     1       5.350   4.762  -3.950  0.00  0.00    +0.027 S 
ATOM     25  O   UNL     1       6.412   5.354  -3.213  0.00  0.00    -0.164 OA
ATOM     26  O   UNL     1       5.463   4.452  -5.332  0.00  0.00    -0.164 OA
BRANCH  24  27
ATOM     27  C   UNL     1       3.964   5.837  -3.786  0.00  0.00    +0.094 A 
ATOM     28  C   UNL     1       3.031   5.922  -4.803  0.00  0.00    +0.029 A 
ATOM     29  C   UNL     1       1.943   6.764  -4.675  0.00  0.00    +0.022 A 
ATOM     30  C   UNL     1       1.788   7.523  -3.529  0.00  0.00    +0.041 A 
ATOM     31  C   UNL     1       2.721   7.438  -2.511  0.00  0.00    +0.022 A 
ATOM     32  C   UNL     1       3.805   6.591  -2.638  0.00  0.00    +0.029 A 
ATOM     33 CL   UNL     1       0.421   8.583  -3.368  0.00  0.00    -0.084 Cl
ENDBRANCH  24  27
ENDBRANCH  10  24
TORSDOF 6
