REMARK  Name = ZINC38687483
REMARK  10 active torsions:
REMARK  status: ('A' for Active; 'I' for Inactive)
REMARK    1  A    between atoms: C_1  and  C_2
REMARK    2  A    between atoms: C_2  and  C_3
REMARK    3  A    between atoms: C_3  and  O_4
REMARK    4  A    between atoms: O_4  and  C_5
REMARK    5  A    between atoms: C_8  and  C_11
REMARK    6  A    between atoms: C_16  and  O_25
REMARK    7  A    between atoms: C_20  and  N_24
REMARK    8  A    between atoms: C_21  and  C_22
REMARK    9  A    between atoms: O_25  and  C_26
REMARK   10  A    between atoms: C_26  and  C_28
REMARK                            x       y       z     vdW  Elec       q    Type
REMARK                         _______ _______ _______ _____ _____    ______ ____
ROOT
ATOM      1  C   UNL     1      -6.379  -4.537   0.075  0.00  0.00    +0.098 C 
ATOM      2  C   UNL     1      -6.489  -5.407   1.299  0.00  0.00    +0.008 A 
ATOM      3  C   UNL     1      -6.656  -4.818   2.540  0.00  0.00    +0.012 A 
ATOM      4  C   UNL     1      -6.760  -5.600   3.673  0.00  0.00    +0.047 A 
ATOM      5  C   UNL     1      -6.696  -6.982   3.570  0.00  0.00    +0.135 A 
ATOM      6  C   UNL     1      -6.527  -7.575   2.329  0.00  0.00    +0.093 A 
ATOM      7  C   UNL     1      -6.423  -6.787   1.190  0.00  0.00    +0.138 A 
ATOM      8  O   UNL     1      -6.259  -7.383  -0.017  0.00  0.00    -0.441 OA
ATOM      9  C   UNL     1      -6.540  -6.705  -1.142  0.00  0.00    +0.199 C 
ATOM     10  C   UNL     1      -6.610  -5.356  -1.164  0.00  0.00    +0.098 C 
ENDROOT
BRANCH   1  14
ATOM     11  C   UNL     1      -2.475  -2.804  -0.083  0.00  0.00    +0.121 A 
ATOM     12  C   UNL     1      -3.595  -1.989  -0.011  0.00  0.00    +0.046 A 
ATOM     13  C   UNL     1      -4.856  -2.551   0.039  0.00  0.00    +0.008 A 
ATOM     14  C   UNL     1      -5.002  -3.926   0.019  0.00  0.00    -0.034 A 
ATOM     15  C   UNL     1      -3.888  -4.741  -0.052  0.00  0.00    +0.008 A 
ATOM     16  C   UNL     1      -2.625  -4.183  -0.109  0.00  0.00    +0.046 A 
BRANCH  11  17
ATOM     17  O   UNL     1      -1.234  -2.254  -0.133  0.00  0.00    -0.492 OA
BRANCH  17  18
ATOM     18  C   UNL     1      -1.155  -0.827  -0.102  0.00  0.00    +0.229 C 
BRANCH  18  20
ATOM     19  C   UNL     1       0.395   1.132  -0.134  0.00  0.00    +0.007 C 
ATOM     20  C   UNL     1       0.311  -0.395  -0.167  0.00  0.00    +0.038 C 
ENDBRANCH  18  20
ENDBRANCH  17  18
ENDBRANCH  11  17
ENDBRANCH   1  14
BRANCH   9  21
ATOM     21  N   UNL     1      -6.760  -7.403  -2.303  0.00  0.00    -0.328 N 
ATOM     22  H   UNL     1      -6.712  -8.372  -2.303  0.00  0.00    +0.145 HD
ATOM     23  H   UNL     1      -6.964  -6.928  -3.124  0.00  0.00    +0.145 HD
ENDBRANCH   9  21
BRANCH  10  24
ATOM     24  C   UNL     1      -6.913  -4.693  -2.397  0.00  0.00    +0.101 C 
ATOM     25  N   UNL     1      -7.153  -4.167  -3.375  0.00  0.00    -0.191 NA
ENDBRANCH  10  24
BRANCH   5  26
ATOM     26  O   UNL     1      -6.797  -7.753   4.684  0.00  0.00    -0.422 OA
BRANCH  26  27
ATOM     27  C   UNL     1      -7.990  -7.808   5.310  0.00  0.00    +0.353 C 
ATOM     28  O   UNL     1      -8.960  -7.265   4.818  0.00  0.00    -0.244 OA
BRANCH  27  29
ATOM     29  C   UNL     1      -8.118  -8.523   6.584  0.00  0.00    +0.116 A 
ATOM     30  C   UNL     1      -9.228  -8.692   7.355  0.00  0.00    +0.070 A 
ATOM     31  C   UNL     1      -9.143  -9.419   8.557  0.00  0.00    +0.008 A 
ATOM     32  C   UNL     1     -10.175  -9.701   9.488  0.00  0.00    +0.010 A 
ATOM     33  C   UNL     1      -9.922 -10.423  10.609  0.00  0.00    +0.001 A 
ATOM     34  C   UNL     1      -8.651 -10.912  10.889  0.00  0.00    +0.001 A 
ATOM     35  C   UNL     1      -7.617 -10.661  10.010  0.00  0.00    +0.016 A 
ATOM     36  C   UNL     1      -7.860  -9.929   8.867  0.00  0.00    +0.022 A 
ATOM     37  S   UNL     1      -6.859  -9.393   7.502  0.00  0.00    -0.080 S 
ATOM     38 CL   UNL     1     -10.745  -8.011   6.856  0.00  0.00    -0.082 Cl
ENDBRANCH  27  29
ENDBRANCH  26  27
ENDBRANCH   5  26
TORSDOF 9
