REMARK  Name = ZINC01611152
REMARK  4 active torsions:
REMARK  status: ('A' for Active; 'I' for Inactive)
REMARK    1  A    between atoms: C_1  and  N_2
REMARK    2  A    between atoms: N_2  and  C_3
REMARK    3  A    between atoms: N_2  and  N_4
REMARK    4  A    between atoms: C_5  and  C_16
REMARK                            x       y       z     vdW  Elec       q    Type
REMARK                         _______ _______ _______ _____ _____    ______ ____
ROOT
ATOM      1  N   UNL     1       0.971   1.972  -0.049  0.00  0.00    -0.206 N 
ATOM      2  C   UNL     1       1.418   3.326  -0.377  0.00  0.00    +0.209 C 
ATOM      3  N   UNL     1       0.462   4.315   0.133  0.00  0.00    -0.320 N 
ATOM      4  C   UNL     1      -0.899   4.078  -0.029  0.00  0.00    +0.041 A 
ATOM      5  C   UNL     1      -1.812   5.113  -0.128  0.00  0.00    +0.024 A 
ATOM      6  C   UNL     1      -3.156   4.826  -0.294  0.00  0.00    +0.002 A 
ATOM      7  C   UNL     1      -3.595   3.512  -0.345  0.00  0.00    +0.001 A 
ATOM      8  C   UNL     1      -2.697   2.470  -0.247  0.00  0.00    +0.015 A 
ATOM      9  C   UNL     1      -1.340   2.744  -0.094  0.00  0.00    +0.059 A 
ATOM     10  C   UNL     1      -0.341   1.665   0.005  0.00  0.00    +0.264 C 
ATOM     11  O   UNL     1      -0.696   0.509   0.130  0.00  0.00    -0.269 OA
ATOM     12  H   UNL     1       0.773   5.121   0.575  0.00  0.00    +0.148 HD
ENDROOT
BRANCH   2  13
ATOM     13  C   UNL     1       1.530   3.466  -1.874  0.00  0.00    -0.008 A 
ATOM     14  C   UNL     1       0.452   3.151  -2.680  0.00  0.00    +0.007 A 
ATOM     15  C   UNL     1       0.553   3.283  -4.052  0.00  0.00    +0.000 A 
ATOM     16  C   UNL     1       1.735   3.721  -4.619  0.00  0.00    +0.000 A 
ATOM     17  C   UNL     1       2.815   4.031  -3.813  0.00  0.00    +0.000 A 
ATOM     18  C   UNL     1       2.712   3.903  -2.441  0.00  0.00    +0.007 A 
ENDBRANCH   2  13
BRANCH   1  20
ATOM     19  C   UNL     1       1.718   0.444   1.554  0.00  0.00    +0.127 C 
ATOM     20  N   UNL     1       1.898   1.002   0.207  0.00  0.00    -0.228 NA
ATOM     21  C   UNL     1       1.849  -0.055  -0.812  0.00  0.00    +0.127 C 
ENDBRANCH   1  20
TORSDOF 2
