REMARK  Name = ZINC06358928
REMARK  8 active torsions:
REMARK  status: ('A' for Active; 'I' for Inactive)
REMARK    1  A    between atoms: C_1  and  C_2
REMARK    2  A    between atoms: C_2  and  C_3
REMARK    3  A    between atoms: C_2  and  C_4
REMARK    4  A    between atoms: C_7  and  C_10
REMARK    5  A    between atoms: C_11  and  C_12
REMARK    6  A    between atoms: N_14  and  C_15
REMARK    7  A    between atoms: C_15  and  N_17
REMARK    8  A    between atoms: N_17  and  C_18
REMARK                            x       y       z     vdW  Elec       q    Type
REMARK                         _______ _______ _______ _____ _____    ______ ____
ROOT
ATOM      1  C   UNL     1      -3.526   4.735   6.165  0.00  0.00    +0.242 C 
ATOM      2  O   UNL     1      -3.970   3.934   6.965  0.00  0.00    -0.270 OA
ATOM      3  N   UNL     1      -3.665   6.057   6.386  0.00  0.00    -0.264 N 
ATOM      4  H   UNL     1      -3.311   6.696   5.748  0.00  0.00    +0.157 HD
ENDROOT
BRANCH   1   6
ATOM      5  C   UNL     1      -2.703   2.940   4.738  0.00  0.00    +0.013 C 
ATOM      6  C   UNL     1      -2.841   4.263   4.960  0.00  0.00    +0.068 C 
BRANCH   5  10
ATOM      7  C   UNL     1      -0.718   1.572   1.248  0.00  0.00    -0.045 A 
ATOM      8  C   UNL     1      -0.854   2.930   1.475  0.00  0.00    +0.004 A 
ATOM      9  C   UNL     1      -1.502   3.383   2.604  0.00  0.00    +0.008 A 
ATOM     10  C   UNL     1      -2.014   2.465   3.527  0.00  0.00    -0.025 A 
ATOM     11  C   UNL     1      -1.868   1.094   3.293  0.00  0.00    +0.008 A 
ATOM     12  C   UNL     1      -1.222   0.657   2.156  0.00  0.00    +0.004 A 
BRANCH   7  14
ATOM     13  C   UNL     1       1.423   1.615  -0.003  0.00  0.00    +0.012 C 
ATOM     14  C   UNL     1      -0.013   1.086   0.008  0.00  0.00    +0.013 C 
ATOM     15  C   UNL     1      -0.753   1.593  -1.232  0.00  0.00    +0.012 C 
ENDBRANCH   7  14
ENDBRANCH   5  10
ENDBRANCH   1   6
BRANCH   3  16
ATOM     16  C   UNL     1      -4.295   6.492   7.495  0.00  0.00    +0.137 C 
ATOM     17  S   UNL     1      -4.920   5.364   8.622  0.00  0.00    -0.018 S 
BRANCH  16  18
ATOM     18  N   UNL     1      -4.434   7.814   7.718  0.00  0.00    -0.323 N 
ATOM     19  H   UNL     1      -4.080   8.452   7.079  0.00  0.00    +0.148 HD
BRANCH  18  20
ATOM     20  C   UNL     1      -5.119   8.286   8.923  0.00  0.00    +0.078 C 
ATOM     21  C   UNL     1      -6.628   8.319   8.672  0.00  0.00    +0.010 C 
ATOM     22  C   UNL     1      -7.344   8.812   9.931  0.00  0.00    +0.009 C 
ATOM     23  C   UNL     1      -6.854  10.220  10.278  0.00  0.00    -0.010 C 
ATOM     24  C   UNL     1      -7.157  11.166   9.115  0.00  0.00    +0.007 C 
ATOM     25  C   UNL     1      -6.441  10.673   7.856  0.00  0.00    -0.010 C 
ATOM     26  C   UNL     1      -6.931   9.266   7.509  0.00  0.00    +0.009 C 
ATOM     27  C   UNL     1      -4.932  10.640   8.107  0.00  0.00    +0.009 C 
ATOM     28  C   UNL     1      -4.629   9.694   9.270  0.00  0.00    +0.010 C 
ATOM     29  C   UNL     1      -5.345  10.187  10.529  0.00  0.00    +0.009 C 
ENDBRANCH  18  20
ENDBRANCH  16  18
ENDBRANCH   3  16
TORSDOF 6
