REMARK  Name = ZINC65548856
REMARK  9 active torsions:
REMARK  status: ('A' for Active; 'I' for Inactive)
REMARK    1  A    between atoms: C_1  and  O_2
REMARK    2  A    between atoms: O_2  and  C_3
REMARK    3  A    between atoms: C_6  and  C_11
REMARK    4  A    between atoms: C_8  and  O_9
REMARK    5  A    between atoms: O_9  and  C_10
REMARK    6  A    between atoms: C_15  and  S_24
REMARK    7  A    between atoms: N_17  and  C_18
REMARK    8  A    between atoms: S_24  and  C_25
REMARK    9  A    between atoms: C_25  and  C_26
REMARK                            x       y       z     vdW  Elec       q    Type
REMARK                         _______ _______ _______ _____ _____    ______ ____
ROOT
ATOM      1  C   UNL     1       2.564  -2.402  -4.181  0.00  0.00    +0.189 C 
ATOM      2  N   UNL     1       3.257  -3.660  -3.823  0.00  0.00    -0.230 NA
ATOM      3  N   UNL     1       4.308  -3.802  -4.843  0.00  0.00    -0.226 NA
ATOM      4  C   UNL     1       4.761  -2.402  -5.053  0.00  0.00    +0.217 C 
ATOM      5  N   UNL     1       3.521  -1.602  -4.965  0.00  0.00    -0.284 N 
ATOM      6  H   UNL     1       2.621  -4.443  -3.847  0.00  0.00    +0.143 HD
ATOM      7  H   UNL     1       5.064  -4.380  -4.506  0.00  0.00    +0.143 HD
ENDROOT
BRANCH   1  11
ATOM      8  C   UNL     1       1.435  -0.288  -0.640  0.00  0.00    +0.162 A 
ATOM      9  C   UNL     1       0.464  -0.751  -1.513  0.00  0.00    +0.050 A 
ATOM     10  C   UNL     1       0.832  -1.434  -2.657  0.00  0.00    +0.010 A 
ATOM     11  C   UNL     1       2.168  -1.657  -2.933  0.00  0.00    -0.008 A 
ATOM     12  C   UNL     1       3.142  -1.197  -2.066  0.00  0.00    +0.056 A 
ATOM     13  C   UNL     1       2.780  -0.507  -0.920  0.00  0.00    +0.162 A 
BRANCH   8  15
ATOM     14  C   UNL     1      -0.325   0.572   0.710  0.00  0.00    +0.277 C 
ATOM     15  O   UNL     1       1.074   0.385   0.486  0.00  0.00    -0.491 OA
ENDBRANCH   8  15
BRANCH  13  16
ATOM     16  O   UNL     1       3.737  -0.049  -0.070  0.00  0.00    -0.491 OA
ATOM     17  C   UNL     1       5.097  -0.311  -0.422  0.00  0.00    +0.277 C 
ENDBRANCH  13  16
ENDBRANCH   1  11
BRANCH   5  18
ATOM     18  C   UNL     1       3.301  -0.337  -5.515  0.00  0.00    +0.033 A 
ATOM     19  C   UNL     1       2.037   0.238  -5.455  0.00  0.00    +0.023 A 
ATOM     20  C   UNL     1       1.823   1.489  -5.999  0.00  0.00    +0.002 A 
ATOM     21  C   UNL     1       2.864   2.169  -6.604  0.00  0.00    +0.000 A 
ATOM     22  C   UNL     1       4.123   1.600  -6.665  0.00  0.00    +0.002 A 
ATOM     23  C   UNL     1       4.346   0.352  -6.118  0.00  0.00    +0.023 A 
ENDBRANCH   5  18
BRANCH   4  24
ATOM     24  S   UNL     1       5.521  -2.220  -6.690  0.00  0.00    -0.118 S 
BRANCH  24  25
ATOM     25  C   UNL     1       4.211  -2.720  -7.841  0.00  0.00    +0.119 C 
BRANCH  25  26
ATOM     26  C   UNL     1       4.726  -2.612  -9.278  0.00  0.00    +0.184 C 
ATOM     27  N   UNL     1       5.933  -3.431  -9.443  0.00  0.00    -0.363 N 
ATOM     28  C   UNL     1       6.903  -2.633  -9.785  0.00  0.00    +0.060 A 
ATOM     29  C   UNL     1       8.324  -2.859 -10.086  0.00  0.00    +0.027 A 
ATOM     30  C   UNL     1       9.107  -1.814 -10.419  0.00  0.00    +0.002 A 
ATOM     31  C   UNL     1       8.622  -0.496 -10.494  0.00  0.00    +0.002 A 
ATOM     32  C   UNL     1       7.337  -0.179 -10.238  0.00  0.00    +0.027 A 
ATOM     33  C   UNL     1       6.389  -1.238  -9.864  0.00  0.00    +0.060 A 
ATOM     34  N   UNL     1       5.122  -1.228  -9.569  0.00  0.00    -0.363 N 
ATOM     35  H   UNL     1       5.997  -4.391  -9.320  0.00  0.00    +0.162 HD
ATOM     36  H   UNL     1       4.544  -0.449  -9.545  0.00  0.00    +0.162 HD
ENDBRANCH  25  26
ENDBRANCH  24  25
ENDBRANCH   4  24
TORSDOF 7
