REMARK  Name = ZINC58966997
REMARK  9 active torsions:
REMARK  status: ('A' for Active; 'I' for Inactive)
REMARK    1  A    between atoms: C_1  and  C_2
REMARK    2  A    between atoms: C_8  and  O_10
REMARK    3  A    between atoms: O_10  and  C_11
REMARK    4  A    between atoms: C_11  and  C_12
REMARK    5  A    between atoms: C_12  and  N_13
REMARK    6  A    between atoms: C_14  and  C_16
REMARK    7  A    between atoms: C_16  and  C_17
REMARK    8  A    between atoms: C_17  and  C_18
REMARK    9  A    between atoms: C_18  and  C_19
REMARK                            x       y       z     vdW  Elec       q    Type
REMARK                         _______ _______ _______ _____ _____    ______ ____
ROOT
ATOM      1  N   UNL     1       4.045   2.037   1.788  0.00  0.00    -0.313 N 
ATOM      2  C   UNL     1       5.197   2.702   1.572  0.00  0.00    +0.213 C 
ATOM      3  O   UNL     1       6.255   2.199   1.885  0.00  0.00    -0.276 OA
ATOM      4  H   UNL     1       3.198   2.439   1.537  0.00  0.00    +0.149 HD
ENDROOT
BRANCH   1   5
ATOM      5  C   UNL     1       4.070   0.707   2.401  0.00  0.00    +0.132 C 
BRANCH   5   6
ATOM      6  C   UNL     1       2.640   0.178   2.533  0.00  0.00    +0.179 C 
BRANCH   6   7
ATOM      7  O   UNL     1       2.083  -0.016   1.231  0.00  0.00    -0.375 OA
BRANCH   7  14
ATOM      8  C   UNL     1      -0.019   1.526   0.010  0.00  0.00    +0.010 C 
ATOM      9  C   UNL     1       0.002  -0.004   0.002  0.00  0.00    +0.015 C 
ATOM     10  C   UNL     1       0.718  -0.497  -1.257  0.00  0.00    +0.006 C 
ATOM     11  C   UNL     1       0.739  -2.027  -1.265  0.00  0.00    +0.000 C 
ATOM     12  C   UNL     1       1.479  -2.534  -0.026  0.00  0.00    +0.003 C 
ATOM     13  C   UNL     1       0.763  -2.041   1.233  0.00  0.00    +0.032 C 
ATOM     14  C   UNL     1       0.742  -0.511   1.242  0.00  0.00    +0.121 C 
ENDBRANCH   7  14
ENDBRANCH   6   7
ENDBRANCH   5   6
ENDBRANCH   1   5
BRANCH   2  15
ATOM     15  C   UNL     1       5.170   4.070   0.941  0.00  0.00    +0.096 C 
BRANCH  15  16
ATOM     16  C   UNL     1       6.600   4.599   0.810  0.00  0.00    +0.014 C 
BRANCH  16  17
ATOM     17  C   UNL     1       6.573   5.988   0.170  0.00  0.00    +0.038 C 
BRANCH  17  18
ATOM     18  C   UNL     1       7.982   6.509   0.040  0.00  0.00    -0.022 A 
ATOM     19  C   UNL     1       8.621   7.306   0.909  0.00  0.00    +0.087 A 
ATOM     20  N   UNL     1       9.885   7.571   0.457  0.00  0.00    -0.360 N 
ATOM     21  H   UNL     1      10.536   8.125   0.916  0.00  0.00    +0.165 HD
ATOM     22  C   UNL     1      10.095   6.933  -0.745  0.00  0.00    +0.047 A 
ATOM     23  C   UNL     1       8.914   6.235  -1.056  0.00  0.00    +0.003 A 
ATOM     24  C   UNL     1       8.838   5.484  -2.230  0.00  0.00    +0.010 A 
ATOM     25  C   UNL     1       9.914   5.428  -3.071  0.00  0.00    +0.001 A 
ATOM     26  C   UNL     1      11.083   6.112  -2.766  0.00  0.00    +0.002 A 
ATOM     27  C   UNL     1      11.177   6.867  -1.617  0.00  0.00    +0.026 A 
ENDBRANCH  17  18
ENDBRANCH  16  17
ENDBRANCH  15  16
ENDBRANCH   2  15
TORSDOF 8
