REMARK  Name = ZINC62143119
REMARK  8 active torsions:
REMARK  status: ('A' for Active; 'I' for Inactive)
REMARK    1  A    between atoms: C_1  and  C_2
REMARK    2  A    between atoms: C_5  and  C_21
REMARK    3  A    between atoms: C_6  and  C_8
REMARK    4  A    between atoms: C_8  and  C_9
REMARK    5  A    between atoms: C_9  and  C_11
REMARK    6  A    between atoms: C_9  and  O_20
REMARK    7  A    between atoms: C_13  and  O_18
REMARK    8  A    between atoms: O_18  and  C_19
REMARK                            x       y       z     vdW  Elec       q    Type
REMARK                         _______ _______ _______ _____ _____    ______ ____
ROOT
ATOM      1  C   UNL     1       1.497  -3.192   2.858  0.00  0.00    +0.150 C 
ENDROOT
BRANCH   1   2
ATOM      2  C   UNL     1       1.506  -4.056   4.092  0.00  0.00    -0.001 A 
ATOM      3  C   UNL     1       1.668  -3.481   5.338  0.00  0.00    +0.053 A 
ATOM      4  C   UNL     1       1.675  -4.277   6.473  0.00  0.00    +0.121 A 
ATOM      5  C   UNL     1       1.520  -5.651   6.356  0.00  0.00    +0.047 A 
ATOM      6  C   UNL     1       1.358  -6.222   5.109  0.00  0.00    +0.019 A 
ATOM      7  C   UNL     1       1.345  -5.426   3.978  0.00  0.00    +0.024 A 
ATOM      8 BR   UNL     1       1.116  -6.210   2.273  0.00  0.00    -0.050 Br
BRANCH   4   9
ATOM      9  O   UNL     1       1.835  -3.712   7.699  0.00  0.00    -0.495 OA
ATOM     10  C   UNL     1       1.833  -4.593   8.824  0.00  0.00    +0.277 C 
ENDBRANCH   4   9
ENDBRANCH   1   2
BRANCH   1  11
ATOM     11  O   UNL     1       2.226  -1.989   3.114  0.00  0.00    -0.387 OA
ATOM     12  H   UNL     1       1.866  -1.458   3.837  0.00  0.00    +0.210 HD
ENDBRANCH   1  11
BRANCH   1  13
ATOM     13  C   UNL     1       0.054  -2.845   2.489  0.00  0.00    +0.071 C 
BRANCH  13  19
ATOM     14  C   UNL     1      -0.018   1.503   0.010  0.00  0.00    +0.044 C 
ATOM     15  C   UNL     1       0.002  -0.004   0.002  0.00  0.00    -0.050 A 
ATOM     16  C   UNL     1       0.006  -0.689  -1.199  0.00  0.00    +0.003 A 
ATOM     17  C   UNL     1       0.025  -2.071  -1.207  0.00  0.00    +0.004 A 
ATOM     18  C   UNL     1       0.040  -2.768  -0.013  0.00  0.00    -0.047 A 
ATOM     19  C   UNL     1       0.037  -2.084   1.188  0.00  0.00    -0.041 A 
ATOM     20  C   UNL     1       0.023  -0.702   1.195  0.00  0.00    +0.007 A 
ATOM     21  C   UNL     1       0.059  -4.275  -0.021  0.00  0.00    +0.044 C 
ENDBRANCH  13  19
ENDBRANCH   1  13
TORSDOF 5
