REMARK  Name = ZINC15547534
REMARK  11 active torsions:
REMARK  status: ('A' for Active; 'I' for Inactive)
REMARK    1  A    between atoms: C_1  and  C_2
REMARK    2  A    between atoms: C_2  and  C_3
REMARK    3  A    between atoms: C_12  and  C_13
REMARK    4  A    between atoms: C_12  and  N_58
REMARK    5  A    between atoms: N_15  and  C_16
REMARK    6  A    between atoms: C_19  and  S_22
REMARK    7  A    between atoms: S_22  and  N_25
REMARK    8  A    between atoms: N_25  and  C_26
REMARK    9  A    between atoms: N_25  and  C_27
REMARK   10  A    between atoms: C_27  and  C_28
REMARK   11  A    between atoms: C_27  and  C_29
REMARK                            x       y       z     vdW  Elec       q    Type
REMARK                         _______ _______ _______ _____ _____    ______ ____
ROOT
ATOM      1  C   UNL     1       5.128  -0.278  -0.486  0.00  0.00    +0.201 C 
ATOM      2  O   UNL     1       4.924   0.917  -0.432  0.00  0.00    -0.278 OA
ATOM      3  N   UNL     1       4.090  -1.135  -0.559  0.00  0.00    -0.287 N 
ATOM      4  H   UNL     1       4.249  -2.092  -0.534  0.00  0.00    +0.155 HD
ENDROOT
BRANCH   3   5
ATOM      5  C   UNL     1       2.784  -0.645  -0.671  0.00  0.00    +0.033 A 
ATOM      6  C   UNL     1       1.847  -1.331  -1.433  0.00  0.00    +0.025 A 
ATOM      7  C   UNL     1       0.559  -0.844  -1.542  0.00  0.00    +0.030 A 
ATOM      8  C   UNL     1       0.202   0.324  -0.893  0.00  0.00    +0.106 A 
ATOM      9  C   UNL     1       1.133   1.008  -0.134  0.00  0.00    +0.030 A 
ATOM     10  C   UNL     1       2.423   0.527  -0.021  0.00  0.00    +0.025 A 
BRANCH   8  11
ATOM     11  S   UNL     1      -1.440   0.944  -1.041  0.00  0.00    +0.061 S 
ATOM     12  O   UNL     1      -1.371   2.340  -0.784  0.00  0.00    -0.153 OA
ATOM     13  O   UNL     1      -1.966   0.418  -2.252  0.00  0.00    -0.153 OA
BRANCH  11  14
ATOM     14  N   UNL     1      -2.328   0.279   0.189  0.00  0.00    -0.177 NA
ATOM     15  C   UNL     1      -2.417   0.964   1.481  0.00  0.00    +0.132 C 
BRANCH  14  16
ATOM     16  C   UNL     1      -3.023  -0.994  -0.015  0.00  0.00    +0.073 C 
ATOM     17  C   UNL     1      -2.502  -2.026   0.988  0.00  0.00    +0.025 C 
ATOM     18  C   UNL     1      -4.525  -0.793   0.194  0.00  0.00    +0.025 C 
ENDBRANCH  14  16
ENDBRANCH  11  14
ENDBRANCH   8  11
ENDBRANCH   3   5
BRANCH   1  19
ATOM     19  C   UNL     1       6.540  -0.803  -0.471  0.00  0.00    +0.020 C 
BRANCH  19  28
ATOM     20  C   UNL     1       7.277   0.940   1.038  0.00  0.00    -0.036 C 
ATOM     21  C   UNL     1       8.257   2.101   1.176  0.00  0.00    -0.051 A 
ATOM     22  C   UNL     1       8.611   2.678   2.393  0.00  0.00    +0.010 A 
ATOM     23  C   UNL     1       9.491   3.706   2.425  0.00  0.00    +0.045 A 
ATOM     24  S   UNL     1       9.873   3.917   0.692  0.00  0.00    -0.101 S 
ATOM     25  C   UNL     1       8.837   2.628   0.061  0.00  0.00    -0.010 A 
ATOM     26  C   UNL     1       8.619   2.188  -1.350  0.00  0.00    +0.024 C 
ATOM     27  C   UNL     1       7.374   1.284  -1.372  0.00  0.00    -0.072 C 
ATOM     28  N   UNL     1       7.507   0.295  -0.276  0.00  0.00    +0.390 N 
ATOM     29  H   UNL     1       8.458  -0.092  -0.293  0.00  0.00    -0.080 HD
BRANCH  20  31
ATOM     30  C   UNL     1       8.960  -0.634   2.004  0.00  0.00    +0.002 C 
ATOM     31  C   UNL     1       7.538  -0.087   2.143  0.00  0.00    -0.014 C 
ENDBRANCH  20  31
ENDBRANCH  19  28
ENDBRANCH   1  19
TORSDOF 7
