REMARK  Name = ZINC40626927
REMARK  10 active torsions:
REMARK  status: ('A' for Active; 'I' for Inactive)
REMARK    1  A    between atoms: C_1  and  N_2
REMARK    2  A    between atoms: N_2  and  C_3
REMARK    3  A    between atoms: C_3  and  C_4
REMARK    4  A    between atoms: C_4  and  C_6
REMARK    5  A    between atoms: C_4  and  O_14
REMARK    6  A    between atoms: C_9  and  O_12
REMARK    7  A    between atoms: O_12  and  C_13
REMARK    8  A    between atoms: C_15  and  C_17
REMARK    9  A    between atoms: C_22  and  O_23
REMARK   10  A    between atoms: O_23  and  C_24
REMARK                            x       y       z     vdW  Elec       q    Type
REMARK                         _______ _______ _______ _____ _____    ______ ____
ROOT
ATOM      1  C   UNL     1      -0.018   1.461   0.010  0.00  0.00    +0.132 C 
ATOM      2  N   UNL     1       0.002  -0.004   0.002  0.00  0.00    -0.298 N 
ATOM      3  C   UNL     1       0.000  -0.672  -1.169  0.00  0.00    +0.251 C 
ATOM      4  O   UNL     1       0.017  -1.887  -1.175  0.00  0.00    -0.270 OA
ENDROOT
BRANCH   3   5
ATOM      5  C   UNL     1      -0.022   0.072  -2.442  0.00  0.00    +0.098 A 
ATOM      6  C   UNL     1       1.176   0.439  -3.063  0.00  0.00    +0.057 A 
ATOM      7  C   UNL     1       1.148   1.135  -4.254  0.00  0.00    +0.022 A 
ATOM      8  C   UNL     1      -0.062   1.473  -4.837  0.00  0.00    +0.025 A 
ATOM      9  C   UNL     1      -1.253   1.118  -4.233  0.00  0.00    +0.083 A 
ATOM     10  C   UNL     1      -1.244   0.412  -3.039  0.00  0.00    +0.152 A 
ATOM     11 CL   UNL     1      -2.762   1.549  -4.974  0.00  0.00    -0.080 Cl
ATOM     12 CL   UNL     1       2.696   0.019  -2.337  0.00  0.00    -0.083 Cl
BRANCH  10  13
ATOM     13  O   UNL     1      -2.413   0.057  -2.448  0.00  0.00    -0.493 OA
ATOM     14  C   UNL     1      -2.980   0.986  -1.523  0.00  0.00    +0.277 C 
ENDBRANCH  10  13
ENDBRANCH   3   5
BRANCH   2  15
ATOM     15  C   UNL     1       0.024  -0.743   1.267  0.00  0.00    +0.143 C 
BRANCH  15  16
ATOM     16  C   UNL     1      -1.411  -1.020   1.720  0.00  0.00    +0.162 C 
BRANCH  16  17
ATOM     17  C   UNL     1      -1.391  -1.671   3.079  0.00  0.00    -0.017 A 
ATOM     18  C   UNL     1      -1.124  -3.023   3.193  0.00  0.00    +0.010 A 
ATOM     19  C   UNL     1      -1.106  -3.622   4.438  0.00  0.00    +0.046 A 
ATOM     20  C   UNL     1      -1.354  -2.866   5.574  0.00  0.00    +0.120 A 
ATOM     21  C   UNL     1      -1.621  -1.510   5.457  0.00  0.00    +0.046 A 
ATOM     22  C   UNL     1      -1.633  -0.914   4.211  0.00  0.00    +0.010 A 
BRANCH  20  23
ATOM     23  O   UNL     1      -1.337  -3.454   6.800  0.00  0.00    -0.495 OA
ATOM     24  C   UNL     1      -1.602  -2.614   7.925  0.00  0.00    +0.277 C 
ENDBRANCH  20  23
ENDBRANCH  16  17
BRANCH  16  25
ATOM     25  O   UNL     1      -2.046  -1.892   0.784  0.00  0.00    -0.386 OA
ATOM     26  H   UNL     1      -1.609  -2.749   0.684  0.00  0.00    +0.210 HD
ENDBRANCH  16  25
ENDBRANCH  15  16
ENDBRANCH   2  15
TORSDOF 7
