REMARK  Name = ZINC34688247
REMARK  12 active torsions:
REMARK  status: ('A' for Active; 'I' for Inactive)
REMARK    1  A    between atoms: C_1  and  C_2
REMARK    2  A    between atoms: C_2  and  C_3
REMARK    3  A    between atoms: C_3  and  C_5
REMARK    4  A    between atoms: C_3  and  O_6
REMARK    5  A    between atoms: O_6  and  C_7
REMARK    6  A    between atoms: C_7  and  C_9
REMARK    7  A    between atoms: C_10  and  C_39
REMARK    8  A    between atoms: C_14  and  C_16
REMARK    9  A    between atoms: C_29  and  C_35
REMARK   10  A    between atoms: C_31  and  C_34
REMARK   11  A    between atoms: C_35  and  O_37
REMARK   12  A    between atoms: O_37  and  C_38
REMARK                            x       y       z     vdW  Elec       q    Type
REMARK                         _______ _______ _______ _____ _____    ______ ____
ROOT
ATOM      1  C   UNL     1       4.153   0.362   2.370  0.00  0.00    +0.065 C 
ATOM      2  C   UNL     1       4.700   0.794   3.519  0.00  0.00    +0.016 C 
ATOM      3  N   UNL     1       5.962   1.321   3.531  0.00  0.00    -0.321 N 
ATOM      4  C   UNL     1       6.534   1.785   2.377  0.00  0.00    +0.016 C 
ATOM      5  C   UNL     1       6.067   1.391   1.174  0.00  0.00    +0.025 C 
ATOM      6  C   UNL     1       4.909   0.427   1.075  0.00  0.00    +0.099 C 
ATOM      7  C   UNL     1       6.648   1.857  -0.018  0.00  0.00    +0.176 C 
ATOM      8  O   UNL     1       6.192   1.495  -1.085  0.00  0.00    -0.291 OA
ATOM      9  C   UNL     1       7.823   2.796   0.003  0.00  0.00    +0.171 C 
ATOM     10  C   UNL     1       8.626   2.560   1.286  0.00  0.00    +0.013 C 
ATOM     11  C   UNL     1       7.692   2.745   2.484  0.00  0.00    +0.055 C 
ATOM     12  C   UNL     1       9.191   1.138   1.285  0.00  0.00    +0.009 C 
ATOM     13  C   UNL     1       3.917   0.699   4.803  0.00  0.00    +0.061 C 
ATOM     14  H   UNL     1       6.456   1.366   4.365  0.00  0.00    +0.152 HD
ENDROOT
BRANCH   6  15
ATOM     15  C   UNL     1       5.429  -0.946   0.736  0.00  0.00    +0.047 A 
ATOM     16  C   UNL     1       5.058  -1.546  -0.410  0.00  0.00    +0.204 A 
ATOM     17  O   UNL     1       5.486  -2.762  -0.763  0.00  0.00    -0.462 OA
ATOM     18  C   UNL     1       6.327  -3.484   0.005  0.00  0.00    +0.138 A 
ATOM     19  C   UNL     1       6.755  -4.745  -0.391  0.00  0.00    +0.047 A 
ATOM     20  C   UNL     1       7.615  -5.463   0.411  0.00  0.00    +0.004 A 
ATOM     21  C   UNL     1       8.062  -4.941   1.616  0.00  0.00    +0.001 A 
ATOM     22  C   UNL     1       7.650  -3.692   2.028  0.00  0.00    +0.015 A 
ATOM     23  C   UNL     1       6.781  -2.956   1.225  0.00  0.00    +0.064 A 
ATOM     24  C   UNL     1       6.317  -1.612   1.620  0.00  0.00    +0.197 A 
ATOM     25  O   UNL     1       6.679  -1.097   2.665  0.00  0.00    -0.287 OA
ENDBRANCH   6  15
BRANCH   1  26
ATOM     26  C   UNL     1       2.843  -0.171   2.383  0.00  0.00    +0.338 C 
ATOM     27  O   UNL     1       1.917   0.481   1.937  0.00  0.00    -0.245 OA
BRANCH  26  28
ATOM     28  O   UNL     1       2.620  -1.402   2.888  0.00  0.00    -0.458 OA
BRANCH  28  29
ATOM     29  C   UNL     1       1.272  -1.877   2.869  0.00  0.00    +0.173 C 
ATOM     30  C   UNL     1       0.570  -1.471   4.166  0.00  0.00    +0.052 C 
BRANCH  29  32
ATOM     31  C   UNL     1       1.861  -3.804   1.391  0.00  0.00    +0.007 C 
ATOM     32  C   UNL     1       1.271  -3.402   2.744  0.00  0.00    +0.041 C 
ENDBRANCH  29  32
ENDBRANCH  28  29
ENDBRANCH  26  28
ENDBRANCH   1  26
BRANCH   9  33
ATOM     33  C   UNL     1       8.698   2.536  -1.197  0.00  0.00    +0.318 C 
ATOM     34  O   UNL     1       9.850   2.205  -1.044  0.00  0.00    -0.250 OA
BRANCH  33  35
ATOM     35  O   UNL     1       8.197   2.673  -2.434  0.00  0.00    -0.467 OA
ATOM     36  C   UNL     1       9.083   2.411  -3.525  0.00  0.00    +0.280 C 
ENDBRANCH  33  35
ENDBRANCH   9  33
TORSDOF 7
