REMARK  Name = ZINC08871073
REMARK  13 active torsions:
REMARK  status: ('A' for Active; 'I' for Inactive)
REMARK    1  A    between atoms: C_1  and  C_2
REMARK    2  A    between atoms: C_2  and  C_4
REMARK    3  A    between atoms: C_2  and  N_10
REMARK    4  A    between atoms: C_4  and  C_5
REMARK    5  A    between atoms: C_5  and  C_6
REMARK    6  A    between atoms: C_6  and  C_7
REMARK    7  A    between atoms: C_7  and  C_8
REMARK    8  A    between atoms: C_7  and  C_9
REMARK    9  A    between atoms: C_11  and  C_13
REMARK   10  A    between atoms: N_24  and  C_27
REMARK   11  A    between atoms: C_25  and  N_26
REMARK   12  A    between atoms: C_27  and  C_28
REMARK   13  A    between atoms: C_28  and  C_29
REMARK                            x       y       z     vdW  Elec       q    Type
REMARK                         _______ _______ _______ _____ _____    ______ ____
ROOT
ATOM      1  C   UNL     1      -3.422  -1.149  -1.134  0.00  0.00    +0.103 A 
ATOM      2  C   UNL     1      -4.654  -0.351  -1.022  0.00  0.00    +0.122 A 
ATOM      3  C   UNL     1      -5.750  -1.324  -1.060  0.00  0.00    +0.162 A 
ATOM      4  N   UNL     1      -6.993  -0.901  -0.978  0.00  0.00    -0.226 NA
ATOM      5  C   UNL     1      -7.246   0.409  -0.859  0.00  0.00    +0.092 A 
ATOM      6  C   UNL     1      -8.572   0.870  -0.770  0.00  0.00    +0.030 A 
ATOM      7  C   UNL     1      -8.820   2.202  -0.650  0.00  0.00    +0.002 A 
ATOM      8  C   UNL     1      -7.776   3.125  -0.614  0.00  0.00    +0.002 A 
ATOM      9  C   UNL     1      -6.480   2.718  -0.697  0.00  0.00    +0.030 A 
ATOM     10  C   UNL     1      -6.184   1.347  -0.822  0.00  0.00    +0.090 A 
ATOM     11  N   UNL     1      -4.914   0.935  -0.906  0.00  0.00    -0.241 NA
ATOM     12  N   UNL     1      -5.176  -2.573  -1.185  0.00  0.00    -0.312 N 
ATOM     13  C   UNL     1      -3.820  -2.477  -1.235  0.00  0.00    +0.112 A 
ENDROOT
BRANCH   1  15
ATOM     14  N   UNL     1      -1.372  -0.511   0.012  0.00  0.00    -0.309 N 
ATOM     15  C   UNL     1      -2.051  -0.643  -1.145  0.00  0.00    +0.250 C 
ATOM     16  O   UNL     1      -1.522  -0.340  -2.199  0.00  0.00    -0.270 OA
ATOM     17  H   UNL     1      -1.794  -0.752   0.852  0.00  0.00    +0.149 HD
BRANCH  14  19
ATOM     18  C   UNL     1      -0.019   1.526   0.010  0.00  0.00    +0.028 C 
ATOM     19  C   UNL     1       0.002  -0.004   0.002  0.00  0.00    +0.070 C 
BRANCH  19  20
ATOM     20  C   UNL     1       0.742  -0.511   1.242  0.00  0.00    +0.022 C 
BRANCH  20  21
ATOM     21  C   UNL     1       0.872  -2.034   1.171  0.00  0.00    +0.002 C 
BRANCH  21  22
ATOM     22  C   UNL     1       1.612  -2.541   2.410  0.00  0.00    +0.003 C 
BRANCH  22  23
ATOM     23  C   UNL     1       1.742  -4.063   2.340  0.00  0.00    -0.017 C 
ATOM     24  C   UNL     1       2.589  -4.558   3.514  0.00  0.00    +0.007 C 
ATOM     25  C   UNL     1       0.351  -4.698   2.411  0.00  0.00    +0.007 C 
ENDBRANCH  22  23
ENDBRANCH  21  22
ENDBRANCH  20  21
ENDBRANCH  19  20
ENDBRANCH  14  19
ENDBRANCH   1  15
BRANCH  13  26
ATOM     26  N   UNL     1      -2.965  -3.542  -1.362  0.00  0.00    -0.344 N 
ATOM     27  H   UNL     1      -2.007  -3.394  -1.387  0.00  0.00    +0.144 HD
ATOM     28  H   UNL     1      -3.319  -4.442  -1.427  0.00  0.00    +0.144 HD
ENDBRANCH  13  26
BRANCH  12  29
ATOM     29  C   UNL     1      -5.926  -3.829  -1.259  0.00  0.00    +0.130 C 
BRANCH  29  30
ATOM     30  C   UNL     1      -6.242  -4.149  -2.722  0.00  0.00    +0.057 C 
BRANCH  30  31
ATOM     31  C   UNL     1      -7.013  -5.441  -2.798  0.00  0.00    -0.046 A 
ATOM     32  C   UNL     1      -6.338  -6.642  -2.917  0.00  0.00    +0.004 A 
ATOM     33  C   UNL     1      -7.045  -7.828  -2.987  0.00  0.00    +0.000 A 
ATOM     34  C   UNL     1      -8.427  -7.813  -2.938  0.00  0.00    +0.000 A 
ATOM     35  C   UNL     1      -9.101  -6.612  -2.818  0.00  0.00    +0.000 A 
ATOM     36  C   UNL     1      -8.394  -5.427  -2.744  0.00  0.00    +0.004 A 
ENDBRANCH  30  31
ENDBRANCH  29  30
ENDBRANCH  12  29
TORSDOF 10
