REMARK  Name = ZINC64928253
REMARK  10 active torsions:
REMARK  status: ('A' for Active; 'I' for Inactive)
REMARK    1  A    between atoms: C_1  and  C_2
REMARK    2  A    between atoms: C_5  and  C_8
REMARK    3  A    between atoms: C_8  and  N_9
REMARK    4  A    between atoms: C_10  and  C_12
REMARK    5  A    between atoms: C_12  and  C_13
REMARK    6  A    between atoms: N_23  and  S_24
REMARK    7  A    between atoms: S_24  and  C_27
REMARK    8  A    between atoms: C_29  and  C_37
REMARK    9  A    between atoms: C_32  and  N_33
REMARK   10  A    between atoms: C_34  and  C_36
REMARK                            x       y       z     vdW  Elec       q    Type
REMARK                         _______ _______ _______ _____ _____    ______ ____
ROOT
ATOM      1  C   UNL     1       3.245  -7.849   0.351  0.00  0.00    +0.119 C 
ATOM      2  C   UNL     1       4.622  -8.445   0.505  0.00  0.00    -0.025 A 
ATOM      3  C   UNL     1       5.506  -7.817   1.372  0.00  0.00    +0.005 A 
ATOM      4  C   UNL     1       6.777  -8.320   1.562  0.00  0.00    +0.000 A 
ATOM      5  C   UNL     1       7.170  -9.460   0.886  0.00  0.00    +0.000 A 
ATOM      6  C   UNL     1       6.294 -10.083   0.023  0.00  0.00    +0.004 A 
ATOM      7  C   UNL     1       5.016  -9.574  -0.176  0.00  0.00    -0.041 A 
ATOM      8  C   UNL     1       4.123 -10.291  -1.155  0.00  0.00    +0.052 C 
ATOM      9  C   UNL     1       2.657  -9.935  -0.915  0.00  0.00    +0.115 C 
ATOM     10  N   UNL     1       2.563  -8.471  -0.788  0.00  0.00    -0.168 NA
ENDROOT
BRANCH  10  11
ATOM     11  S   UNL     1       1.719  -7.564  -1.887  0.00  0.00    +0.063 S 
ATOM     12  O   UNL     1       2.159  -6.222  -1.729  0.00  0.00    -0.153 OA
ATOM     13  O   UNL     1       1.799  -8.251  -3.128  0.00  0.00    -0.153 OA
BRANCH  11  14
ATOM     14  C   UNL     1       0.025  -7.600  -1.400  0.00  0.00    +0.127 A 
ATOM     15  C   UNL     1      -0.597  -6.441  -0.979  0.00  0.00    +0.033 A 
ATOM     16  C   UNL     1      -1.926  -6.468  -0.597  0.00  0.00    -0.048 A 
ATOM     17  C   UNL     1      -2.636  -7.654  -0.636  0.00  0.00    +0.005 A 
ATOM     18  C   UNL     1      -2.019  -8.816  -1.057  0.00  0.00    +0.025 A 
ATOM     19  C   UNL     1      -0.686  -8.791  -1.446  0.00  0.00    +0.060 A 
ATOM     20  C   UNL     1      -2.602  -5.202  -0.136  0.00  0.00    +0.044 C 
BRANCH  19  21
ATOM     21  N   UNL     1      -0.060  -9.966  -1.878  0.00  0.00    -0.284 N 
ATOM     22  C   UNL     1      -0.463 -11.160  -1.401  0.00  0.00    +0.214 C 
ATOM     23  O   UNL     1      -1.414 -11.223  -0.651  0.00  0.00    -0.276 OA
ATOM     24  C   UNL     1       0.267 -12.416  -1.799  0.00  0.00    +0.109 C 
ATOM     25  H   UNL     1       0.665  -9.920  -2.522  0.00  0.00    +0.155 HD
ENDBRANCH  19  21
ENDBRANCH  11  14
ENDBRANCH  10  11
BRANCH   1  26
ATOM     26  C   UNL     1       3.366  -6.343   0.111  0.00  0.00    +0.121 C 
BRANCH  26  28
ATOM     27  N   UNL     1       1.906  -4.350   0.231  0.00  0.00    -0.311 N 
ATOM     28  C   UNL     1       2.046  -5.679   0.407  0.00  0.00    +0.215 C 
ATOM     29  O   UNL     1       1.110  -6.340   0.802  0.00  0.00    -0.276 OA
ATOM     30  H   UNL     1       2.629  -3.833  -0.157  0.00  0.00    +0.149 HD
BRANCH  27  31
ATOM     31  C   UNL     1       0.661  -3.686   0.627  0.00  0.00    +0.139 C 
BRANCH  31  36
ATOM     32  C   UNL     1       1.240   2.030   0.002  0.00  0.00    +0.044 C 
ATOM     33  C   UNL     1       1.089   0.539   0.165  0.00  0.00    -0.050 A 
ATOM     34  C   UNL     1       0.619  -0.227  -0.886  0.00  0.00    +0.003 A 
ATOM     35  C   UNL     1       0.481  -1.595  -0.736  0.00  0.00    +0.005 A 
ATOM     36  C   UNL     1       0.813  -2.196   0.464  0.00  0.00    -0.030 A 
ATOM     37  C   UNL     1       1.284  -1.429   1.514  0.00  0.00    +0.005 A 
ATOM     38  C   UNL     1       1.426  -0.063   1.363  0.00  0.00    +0.003 A 
ENDBRANCH  31  36
ENDBRANCH  27  31
ENDBRANCH  26  28
ENDBRANCH   1  26
TORSDOF 7
