REMARK  Name = ZINC05394920
REMARK  6 active torsions:
REMARK  status: ('A' for Active; 'I' for Inactive)
REMARK    1  A    between atoms: C_6  and  C_7
REMARK    2  A    between atoms: C_23  and  C_24
REMARK    3  A    between atoms: C_23  and  N_72
REMARK    4  A    between atoms: C_24  and  C_26
REMARK    5  A    between atoms: C_24  and  O_32
REMARK    6  A    between atoms: C_26  and  N_74
REMARK                            x       y       z     vdW  Elec       q    Type
REMARK                         _______ _______ _______ _____ _____    ______ ____
ROOT
ATOM      1  C   UNL     1      -3.111   4.548  -6.479  0.00  0.00    +0.006 A 
ATOM      2  C   UNL     1      -2.819   4.528  -5.127  0.00  0.00    +0.027 A 
ATOM      3  C   UNL     1      -1.948   3.539  -4.678  0.00  0.00    +0.049 A 
ATOM      4  C   UNL     1      -1.389   2.598  -5.595  0.00  0.00    +0.003 A 
ATOM      5  C   UNL     1      -1.707   2.646  -6.956  0.00  0.00    +0.014 A 
ATOM      6  C   UNL     1      -2.570   3.631  -7.365  0.00  0.00    -0.044 A 
ATOM      7  C   UNL     1      -0.540   1.739  -4.815  0.00  0.00    -0.020 A 
ATOM      8  C   UNL     1      -0.615   2.179  -3.543  0.00  0.00    +0.009 A 
ATOM      9  N   UNL     1      -1.467   3.242  -3.438  0.00  0.00    -0.347 N 
ATOM     10  C   UNL     1      -1.747   3.869  -2.137  0.00  0.00    +0.103 C 
ATOM     11  C   UNL     1      -0.677   3.403  -1.141  0.00  0.00    -0.056 C 
ATOM     12  C   UNL     1       0.156   1.520  -2.422  0.00  0.00    -0.020 C 
ATOM     13  C   UNL     1       0.062   0.014  -2.603  0.00  0.00    -0.009 C 
ATOM     14  C   UNL     1       0.145  -0.494  -4.022  0.00  0.00    +0.003 C 
ATOM     15  C   UNL     1       0.322   0.545  -5.120  0.00  0.00    +0.037 C 
ATOM     16  N   UNL     1      -0.540   1.932  -1.176  0.00  0.00    +0.388 N 
ATOM     17  H   UNL     1      -1.475   1.509  -1.161  0.00  0.00    -0.081 HD
ENDROOT
BRANCH   6  18
ATOM     18  C   UNL     1      -2.941   3.718  -8.823  0.00  0.00    +0.019 C 
ATOM     19  C   UNL     1      -2.518   5.080  -9.376  0.00  0.00    +0.008 C 
ATOM     20  C   UNL     1      -2.895   5.168 -10.857  0.00  0.00    +0.001 C 
ATOM     21  C   UNL     1      -4.408   5.003 -11.009  0.00  0.00    +0.000 C 
ATOM     22  C   UNL     1      -4.830   3.640 -10.455  0.00  0.00    +0.001 C 
ATOM     23  C   UNL     1      -4.454   3.552  -8.975  0.00  0.00    +0.008 C 
ENDBRANCH   6  18
BRANCH  16  24
ATOM     24  C   UNL     1       0.219   1.466   0.005  0.00  0.00    -0.048 C 
BRANCH  24  25
ATOM     25  C   UNL     1      -0.721   1.437   1.212  0.00  0.00    +0.082 C 
BRANCH  25  26
ATOM     26  O   UNL     1      -1.098   2.772   1.554  0.00  0.00    -0.395 OA
ATOM     27  H   UNL     1      -0.353   3.344   1.786  0.00  0.00    +0.210 HD
ENDBRANCH  25  26
BRANCH  25  28
ATOM     28  C   UNL     1      -0.005   0.789   2.399  0.00  0.00    -0.049 C 
BRANCH  28  34
ATOM     29  C   UNL     1      -0.221   0.492   4.792  0.00  0.00    -0.079 C 
ATOM     30  C   UNL     1      -1.218   0.507   5.953  0.00  0.00    -0.019 C 
ATOM     31  C   UNL     1      -2.230  -0.627   5.765  0.00  0.00    -0.004 C 
ATOM     32  C   UNL     1      -2.932  -0.455   4.415  0.00  0.00    -0.019 C 
ATOM     33  C   UNL     1      -1.885  -0.442   3.299  0.00  0.00    -0.079 C 
ATOM     34  N   UNL     1      -0.957   0.686   3.525  0.00  0.00    +0.381 N 
ATOM     35  H   UNL     1      -1.499   1.556   3.584  0.00  0.00    -0.082 HD
ENDBRANCH  28  34
ENDBRANCH  25  28
ENDBRANCH  24  25
ENDBRANCH  16  24
TORSDOF 6
