REMARK  Name = ZINC12933708
REMARK  11 active torsions:
REMARK  status: ('A' for Active; 'I' for Inactive)
REMARK    1  A    between atoms: C_1  and  C_2
REMARK    2  A    between atoms: C_2  and  C_4
REMARK    3  A    between atoms: C_2  and  O_20
REMARK    4  A    between atoms: N_6  and  C_7
REMARK    5  A    between atoms: C_7  and  C_8
REMARK    6  A    between atoms: N_10  and  C_11
REMARK    7  A    between atoms: O_20  and  C_21
REMARK    8  A    between atoms: C_21  and  C_23
REMARK    9  A    between atoms: C_24  and  C_33
REMARK   10  A    between atoms: C_33  and  O_34
REMARK   11  A    between atoms: O_34  and  C_35
REMARK                            x       y       z     vdW  Elec       q    Type
REMARK                         _______ _______ _______ _____ _____    ______ ____
ROOT
ATOM      1  C   UNL     1      -4.814  -0.379  -1.326  0.00  0.00    +0.062 C 
ATOM      2  C   UNL     1      -4.838   0.412  -0.016  0.00  0.00    +0.259 C 
ENDROOT
BRANCH   2   3
ATOM      3  C   UNL     1      -3.707   1.407  -0.010  0.00  0.00    +0.254 C 
ATOM      4  O   UNL     1      -3.945   2.596  -0.007  0.00  0.00    -0.272 OA
ATOM      5  N   UNL     1      -2.430   0.976  -0.007  0.00  0.00    -0.304 N 
ATOM      6  H   UNL     1      -2.239   0.025  -0.009  0.00  0.00    +0.149 HD
BRANCH   5   7
ATOM      7  C   UNL     1      -1.330   1.943  -0.001  0.00  0.00    +0.200 C 
BRANCH   7   8
ATOM      8  C   UNL     1      -0.014   1.208   0.001  0.00  0.00    +0.234 C 
ATOM      9  O   UNL     1       0.003  -0.005  -0.002  0.00  0.00    -0.274 OA
ATOM     10  N   UNL     1       1.143   1.898   0.001  0.00  0.00    -0.282 N 
ATOM     11  H   UNL     1       1.131   2.866  -0.061  0.00  0.00    +0.155 HD
BRANCH  10  12
ATOM     12  C   UNL     1       2.365   1.218   0.092  0.00  0.00    +0.072 A 
ATOM     13  C   UNL     1       2.514  -0.025  -0.508  0.00  0.00    +0.029 A 
ATOM     14  C   UNL     1       3.720  -0.694  -0.422  0.00  0.00    +0.043 A 
ATOM     15  C   UNL     1       4.779  -0.131   0.270  0.00  0.00    +0.161 A 
ATOM     16  C   UNL     1       4.633   1.108   0.875  0.00  0.00    +0.195 A 
ATOM     17  C   UNL     1       3.427   1.784   0.787  0.00  0.00    +0.182 A 
ATOM     18  F   UNL     1       3.284   2.991   1.375  0.00  0.00    -0.200 F 
ATOM     19  F   UNL     1       5.667   1.656   1.550  0.00  0.00    -0.199 F 
ATOM     20  F   UNL     1       5.955  -0.789   0.356  0.00  0.00    -0.202 F 
ENDBRANCH  10  12
ENDBRANCH   7   8
ENDBRANCH   5   7
ENDBRANCH   2   3
BRANCH   2  21
ATOM     21  O   UNL     1      -6.103   1.116   0.101  0.00  0.00    -0.448 OA
BRANCH  21  22
ATOM     22  C   UNL     1      -7.111   0.465   0.715  0.00  0.00    +0.347 C 
ATOM     23  O   UNL     1      -6.939  -0.661   1.140  0.00  0.00    -0.244 OA
BRANCH  22  24
ATOM     24  C   UNL     1      -8.418   1.115   0.869  0.00  0.00    +0.103 A 
ATOM     25  C   UNL     1      -9.545   0.625   1.452  0.00  0.00    +0.010 A 
ATOM     26  C   UNL     1     -10.709   1.412   1.501  0.00  0.00    +0.031 A 
ATOM     27  C   UNL     1     -11.972   1.080   2.063  0.00  0.00    +0.132 A 
ATOM     28  C   UNL     1     -13.009   1.975   2.024  0.00  0.00    +0.039 A 
ATOM     29  C   UNL     1     -12.864   3.227   1.440  0.00  0.00    +0.004 A 
ATOM     30  C   UNL     1     -11.652   3.584   0.885  0.00  0.00    +0.016 A 
ATOM     31  C   UNL     1     -10.598   2.695   0.915  0.00  0.00    +0.023 A 
ATOM     32  S   UNL     1      -8.918   2.745   0.344  0.00  0.00    -0.081 S 
ATOM     33  F   UNL     1     -12.151  -0.128   2.639  0.00  0.00    -0.205 F 
BRANCH  25  34
ATOM     34  C   UNL     1      -9.546  -0.760   2.046  0.00  0.00    +0.196 C 
BRANCH  34  35
ATOM     35  O   UNL     1      -9.153  -0.691   3.418  0.00  0.00    -0.378 OA
ATOM     36  C   UNL     1      -9.121  -1.958   4.079  0.00  0.00    +0.194 C 
ENDBRANCH  34  35
ENDBRANCH  25  34
ENDBRANCH  22  24
ENDBRANCH  21  22
ENDBRANCH   2  21
TORSDOF 9
