REMARK  Name = ZINC28444088
REMARK  4 active torsions:
REMARK  status: ('A' for Active; 'I' for Inactive)
REMARK    1  A    between atoms: C_1  and  C_2
REMARK    2  A    between atoms: C_9  and  C_11
REMARK    3  A    between atoms: C_19  and  S_22
REMARK    4  A    between atoms: S_22  and  C_23
REMARK                            x       y       z     vdW  Elec       q    Type
REMARK                         _______ _______ _______ _____ _____    ______ ____
ROOT
ATOM      1  C   UNL     1      -0.018   1.503   0.010  0.00  0.00    +0.066 C 
ATOM      2  C   UNL     1       0.002  -0.004   0.002  0.00  0.00    +0.052 A 
ATOM      3  C   UNL     1      -0.006  -0.710  -1.225  0.00  0.00    +0.050 A 
ATOM      4  C   UNL     1      -0.019  -0.187  -2.584  0.00  0.00    +0.058 A 
ATOM      5  C   UNL     1      -0.021  -1.115  -3.602  0.00  0.00    +0.073 A 
ATOM      6  S   UNL     1       0.006  -2.684  -2.800  0.00  0.00    -0.064 S 
ATOM      7  C   UNL     1       0.018  -2.125  -1.114  0.00  0.00    +0.115 A 
ATOM      8  N   UNL     1       0.038  -2.721   0.057  0.00  0.00    -0.220 NA
ATOM      9  C   UNL     1       0.040  -2.001   1.172  0.00  0.00    +0.161 A 
ATOM     10  N   UNL     1       0.022  -0.672   1.133  0.00  0.00    -0.232 NA
ATOM     11  C   UNL     1      -0.042  -0.753  -5.013  0.00  0.00    +0.107 C 
ATOM     12  N   UNL     1      -0.393   0.498  -5.261  0.00  0.00    -0.346 N 
ATOM     13  C   UNL     1      -0.784   1.390  -4.175  0.00  0.00    +0.227 C 
ATOM     14  N   UNL     1      -0.035   1.177  -2.936  0.00  0.00    -0.314 N 
ATOM     15  N   UNL     1       0.279  -1.648  -6.015  0.00  0.00    -0.344 N 
ATOM     16  H   UNL     1       0.422   2.031  -2.416  0.00  0.00    +0.149 HD
ATOM     17  H   UNL     1       0.248  -1.329  -7.068  0.00  0.00    +0.144 HD
ATOM     18  H   UNL     1       0.565  -2.679  -5.761  0.00  0.00    +0.144 HD
ATOM     19  H   UNL     1      -0.391   0.876  -6.294  0.00  0.00    +0.163 HD
ENDROOT
BRANCH   9  20
ATOM     20  C   UNL     1       0.063  -2.691   2.484  0.00  0.00    +0.019 A 
ATOM     21  C   UNL     1       0.071  -1.949   3.665  0.00  0.00    +0.011 A 
ATOM     22  C   UNL     1       0.087  -2.596   4.883  0.00  0.00    +0.001 A 
ATOM     23  C   UNL     1       0.106  -3.979   4.935  0.00  0.00    +0.000 A 
ATOM     24  C   UNL     1       0.104  -4.720   3.767  0.00  0.00    +0.001 A 
ATOM     25  C   UNL     1       0.082  -4.084   2.543  0.00  0.00    +0.011 A 
ENDBRANCH   9  20
BRANCH  13  26
ATOM     26  S   UNL     1      -2.549   1.147  -3.834  0.00  0.00    -0.121 S 
ATOM     27  C   UNL     1      -2.651  -0.567  -3.247  0.00  0.00    +0.088 C 
ENDBRANCH  13  26
TORSDOF 2
