REMARK  Name = ZINC13562951
REMARK  4 active torsions:
REMARK  status: ('A' for Active; 'I' for Inactive)
REMARK    1  A    between atoms: C_1  and  C_2
REMARK    2  A    between atoms: N_4  and  C_25
REMARK    3  A    between atoms: C_8  and  N_9
REMARK    4  A    between atoms: N_9  and  N_10
REMARK                            x       y       z     vdW  Elec       q    Type
REMARK                         _______ _______ _______ _____ _____    ______ ____
ROOT
ATOM      1  N   UNL     1       0.165   0.807   2.840  0.00  0.00    -0.261 N 
ATOM      2  H   UNL     1      -0.056   1.469   2.166  0.00  0.00    +0.170 HD
ENDROOT
BRANCH   1   3
ATOM      3  N   UNL     1       0.395   1.205   4.164  0.00  0.00    -0.150 N 
ATOM      4  C   UNL     1      -0.553   0.960   5.088  0.00  0.00    +0.270 C 
ATOM      5  O   UNL     1      -1.584   0.402   4.764  0.00  0.00    -0.268 OA
ATOM      6  C   UNL     1      -0.349   1.361   6.487  0.00  0.00    +0.047 A 
ATOM      7  C   UNL     1      -1.298   1.128   7.471  0.00  0.00    +0.014 A 
ATOM      8  C   UNL     1      -1.059   1.528   8.781  0.00  0.00    +0.001 A 
ATOM      9  C   UNL     1       0.101   2.154   9.138  0.00  0.00    +0.008 A 
ATOM     10  C   UNL     1       1.089   2.409   8.171  0.00  0.00    -0.016 A 
ATOM     11  C   UNL     1       0.858   2.008   6.838  0.00  0.00    +0.006 A 
ATOM     12  C   UNL     1       1.832   2.250   5.842  0.00  0.00    +0.047 A 
ATOM     13  C   UNL     1       3.013   2.885   6.196  0.00  0.00    +0.014 A 
ATOM     14  C   UNL     1       3.229   3.274   7.513  0.00  0.00    +0.001 A 
ATOM     15  C   UNL     1       2.300   3.050   8.487  0.00  0.00    +0.008 A 
ATOM     16  C   UNL     1       1.557   1.814   4.465  0.00  0.00    +0.270 C 
ATOM     17  O   UNL     1       2.382   2.008   3.594  0.00  0.00    -0.268 OA
ENDBRANCH   1   3
BRANCH   1  25
ATOM     18  C   UNL     1       0.040   1.504   0.006  0.00  0.00    +0.068 C 
ATOM     19  C   UNL     1       0.036  -0.003  -0.001  0.00  0.00    +0.070 C 
ATOM     20  N   UNL     1      -0.051  -0.764  -1.048  0.00  0.00    -0.176 NA
ATOM     21  N   UNL     1      -0.025  -2.114  -0.697  0.00  0.00    -0.156 N 
ATOM     22  C   UNL     1       0.084  -2.243   0.641  0.00  0.00    +0.273 C 
ATOM     23  O   UNL     1       0.133  -3.283   1.276  0.00  0.00    -0.268 OA
ATOM     24  C   UNL     1       0.136  -0.877   1.177  0.00  0.00    +0.076 C 
ATOM     25  C   UNL     1       0.253  -0.496   2.503  0.00  0.00    +0.103 C 
BRANCH  21  26
ATOM     26  C   UNL     1      -0.101  -3.180  -1.602  0.00  0.00    +0.060 A 
ATOM     27  C   UNL     1      -0.072  -4.489  -1.139  0.00  0.00    +0.026 A 
ATOM     28  C   UNL     1      -0.148  -5.538  -2.034  0.00  0.00    +0.017 A 
ATOM     29  C   UNL     1      -0.252  -5.286  -3.391  0.00  0.00    +0.018 A 
ATOM     30  C   UNL     1      -0.281  -3.983  -3.855  0.00  0.00    +0.017 A 
ATOM     31  C   UNL     1      -0.211  -2.930  -2.964  0.00  0.00    +0.026 A 
ATOM     32 BR   UNL     1      -0.354  -6.726  -4.613  0.00  0.00    -0.050 Br
ENDBRANCH  21  26
ENDBRANCH   1  25
TORSDOF 3
