REMARK  Name = ZINC12501188
REMARK  7 active torsions:
REMARK  status: ('A' for Active; 'I' for Inactive)
REMARK    1  A    between atoms: C_6  and  O_29
REMARK    2  A    between atoms: C_7  and  C_11
REMARK    3  A    between atoms: N_13  and  N_14
REMARK    4  A    between atoms: N_14  and  C_15
REMARK    5  A    between atoms: C_15  and  N_17
REMARK    6  A    between atoms: C_18  and  C_20
REMARK    7  A    between atoms: C_25  and  N_26
REMARK                            x       y       z     vdW  Elec       q    Type
REMARK                         _______ _______ _______ _____ _____    ______ ____
ROOT
ATOM      1  N   UNL     1       1.238  -7.359   0.978  0.00  0.00    -0.245 N 
ATOM      2  H   UNL     1       2.010  -7.944   1.032  0.00  0.00    +0.172 HD
ENDROOT
BRANCH   1   5
ATOM      3  C   UNL     1       2.566  -5.500   1.648  0.00  0.00    +0.264 C 
ATOM      4  O   UNL     1       3.534  -6.233   1.715  0.00  0.00    -0.269 OA
ATOM      5  N   UNL     1       1.368  -5.997   1.281  0.00  0.00    -0.231 N 
ATOM      6  H   UNL     1       0.596  -5.412   1.228  0.00  0.00    +0.173 HD
BRANCH   3  13
ATOM      7  C   UNL     1       0.797   0.317   2.427  0.00  0.00    +0.001 A 
ATOM      8  C   UNL     1       2.043   0.817   2.804  0.00  0.00    +0.001 A 
ATOM      9  C   UNL     1       3.131   0.003   2.882  0.00  0.00    +0.008 A 
ATOM     10  C   UNL     1       3.002  -1.364   2.578  0.00  0.00    -0.014 A 
ATOM     11  C   UNL     1       4.107  -2.228   2.650  0.00  0.00    +0.054 A 
ATOM     12  C   UNL     1       3.960  -3.550   2.351  0.00  0.00    +0.130 A 
ATOM     13  C   UNL     1       2.703  -4.066   1.968  0.00  0.00    +0.080 A 
ATOM     14  C   UNL     1       1.598  -3.235   1.889  0.00  0.00    +0.025 A 
ATOM     15  C   UNL     1       1.735  -1.873   2.194  0.00  0.00    -0.017 A 
ATOM     16  C   UNL     1       0.633  -1.000   2.125  0.00  0.00    +0.008 A 
BRANCH  12  17
ATOM     17  O   UNL     1       5.032  -4.379   2.423  0.00  0.00    -0.506 OA
ATOM     18  H   UNL     1       5.155  -4.789   3.290  0.00  0.00    +0.292 HD
ENDBRANCH  12  17
ENDBRANCH   3  13
ENDBRANCH   1   5
BRANCH   1  19
ATOM     19  C   UNL     1       0.040  -7.856   0.611  0.00  0.00    +0.153 C 
ATOM     20  S   UNL     1      -0.119  -9.520   0.240  0.00  0.00    -0.017 S 
BRANCH  19  21
ATOM     21  N   UNL     1      -1.032  -7.043   0.537  0.00  0.00    -0.263 N 
ATOM     22  C   UNL     1      -2.230  -7.540   0.170  0.00  0.00    +0.252 C 
ATOM     23  O   UNL     1      -2.343  -8.721  -0.093  0.00  0.00    -0.270 OA
ATOM     24  H   UNL     1      -0.942  -6.101   0.747  0.00  0.00    +0.157 HD
BRANCH  22  25
ATOM     25  C   UNL     1      -3.406  -6.649   0.088  0.00  0.00    +0.067 A 
ATOM     26  C   UNL     1      -3.780  -5.878   1.190  0.00  0.00    +0.015 A 
ATOM     27  C   UNL     1      -4.878  -5.048   1.107  0.00  0.00    +0.001 A 
ATOM     28  C   UNL     1      -5.611  -4.980  -0.065  0.00  0.00    +0.002 A 
ATOM     29  C   UNL     1      -5.247  -5.742  -1.160  0.00  0.00    +0.033 A 
ATOM     30  C   UNL     1      -4.146  -6.571  -1.093  0.00  0.00    +0.138 A 
BRANCH  30  31
ATOM     31  N   UNL     1      -3.755  -7.381  -2.268  0.00  0.00    +0.057 N 
ATOM     32  O   UNL     1      -4.463  -7.408  -3.247  0.00  0.00    -0.126 OA
ATOM     33  O   UNL     1      -2.725  -8.016  -2.249  0.00  0.00    -0.126 OA
ENDBRANCH  30  31
ENDBRANCH  22  25
ENDBRANCH  19  21
ENDBRANCH   1  19
TORSDOF 7
