REMARK  Name = ZINC63528862
REMARK  4 active torsions:
REMARK  status: ('A' for Active; 'I' for Inactive)
REMARK    1  A    between atoms: C_5  and  C_7
REMARK    2  A    between atoms: C_10  and  C_23
REMARK    3  A    between atoms: C_14  and  N_16
REMARK    4  A    between atoms: N_16  and  C_17
REMARK                            x       y       z     vdW  Elec       q    Type
REMARK                         _______ _______ _______ _____ _____    ______ ____
ROOT
ATOM      1  C   UNL     1       1.254  -2.153  -0.022  0.00  0.00    +0.092 C 
ATOM      2  N   UNL     1       2.314  -2.913  -0.031  0.00  0.00    -0.228 NA
ATOM      3  C   UNL     1       2.014  -4.225  -0.037  0.00  0.00    +0.171 A 
ATOM      4  C   UNL     1       2.600  -5.501  -0.047  0.00  0.00    +0.115 A 
ATOM      5  C   UNL     1       1.548  -6.441  -0.048  0.00  0.00    +0.155 A 
ATOM      6  N   UNL     1       0.414  -5.794  -0.039  0.00  0.00    -0.175 NA
ATOM      7  N   UNL     1       0.667  -4.422  -0.032  0.00  0.00    -0.222 N 
ATOM      8  C   UNL     1       0.058  -3.084  -0.015  0.00  0.00    +0.226 C 
ENDROOT
BRANCH   1  13
ATOM      9  C   UNL     1      -0.017   1.374   0.010  0.00  0.00    +0.001 A 
ATOM     10  C   UNL     1       1.170   2.088   0.002  0.00  0.00    +0.003 A 
ATOM     11  C   UNL     1       2.384   1.426  -0.013  0.00  0.00    +0.039 A 
ATOM     12  C   UNL     1       2.422   0.044  -0.021  0.00  0.00    +0.132 A 
ATOM     13  C   UNL     1       1.225  -0.684  -0.013  0.00  0.00    +0.035 A 
ATOM     14  C   UNL     1       0.002  -0.004   0.002  0.00  0.00    +0.012 A 
ATOM     15  F   UNL     1       3.609  -0.601  -0.036  0.00  0.00    -0.205 F 
ENDBRANCH   1  13
BRANCH   8  16
ATOM     16  N   UNL     1      -0.741  -2.891   1.202  0.00  0.00    -0.287 NA
ATOM     17  H   UNL     1      -0.338  -3.388   1.982  0.00  0.00    +0.125 HD
BRANCH  16  18
ATOM     18  C   UNL     1      -2.137  -3.296   0.985  0.00  0.00    +0.056 C 
ATOM     19  C   UNL     1      -2.915  -2.131   0.368  0.00  0.00    +0.019 C 
ATOM     20  C   UNL     1      -4.368  -2.553   0.142  0.00  0.00    +0.002 C 
ATOM     21  C   UNL     1      -5.002  -2.938   1.481  0.00  0.00    +0.000 C 
ATOM     22  C   UNL     1      -4.223  -4.102   2.097  0.00  0.00    +0.002 C 
ATOM     23  C   UNL     1      -2.770  -3.681   2.323  0.00  0.00    +0.019 C 
ENDBRANCH  16  18
ENDBRANCH   8  16
BRANCH   4  24
ATOM     24  C   UNL     1       4.001  -5.793  -0.055  0.00  0.00    +0.104 C 
ATOM     25  N   UNL     1       5.113  -6.025  -0.062  0.00  0.00    -0.191 NA
ENDBRANCH   4  24
TORSDOF 4
