REMARK  Name = ZINC01427401
REMARK  7 active torsions:
REMARK  status: ('A' for Active; 'I' for Inactive)
REMARK    1  A    between atoms: C_1  and  N_2
REMARK    2  A    between atoms: N_2  and  C_3
REMARK    3  A    between atoms: N_2  and  N_4
REMARK    4  A    between atoms: C_7  and  C_12
REMARK    5  A    between atoms: C_15  and  S_18
REMARK    6  A    between atoms: S_18  and  C_19
REMARK    7  A    between atoms: C_23  and  C_26
REMARK                            x       y       z     vdW  Elec       q    Type
REMARK                         _______ _______ _______ _____ _____    ______ ____
ROOT
ATOM      1  N   UNL     1       3.439   1.237  -5.889  0.00  0.00    -0.206 N 
ATOM      2  C   UNL     1       4.491   0.470  -5.458  0.00  0.00    +0.038 C 
ATOM      3  C   UNL     1       4.293  -0.808  -5.072  0.00  0.00    +0.022 C 
ATOM      4  C   UNL     1       2.902  -1.397  -5.105  0.00  0.00    +0.063 C 
ATOM      5  C   UNL     1       2.137  -0.825  -6.299  0.00  0.00    +0.110 C 
ATOM      6  C   UNL     1       2.295   0.674  -6.314  0.00  0.00    +0.234 C 
ATOM      7  O   UNL     1       1.387   1.374  -6.711  0.00  0.00    -0.274 OA
ATOM      8  C   UNL     1       5.358  -1.613  -4.635  0.00  0.00    +0.162 C 
ATOM      9  O   UNL     1       5.138  -2.756  -4.285  0.00  0.00    -0.292 OA
ATOM     10  C   UNL     1       6.766  -1.083  -4.594  0.00  0.00    +0.088 C 
ATOM     11  C   UNL     1       6.921  -0.000  -5.667  0.00  0.00    +0.032 C 
ATOM     12  C   UNL     1       5.869   1.084  -5.421  0.00  0.00    +0.061 C 
ENDROOT
BRANCH   4  13
ATOM     13  C   UNL     1       2.178  -1.049  -3.830  0.00  0.00    -0.039 A 
ATOM     14  C   UNL     1       1.720  -2.056  -3.001  0.00  0.00    +0.005 A 
ATOM     15  C   UNL     1       1.056  -1.742  -1.831  0.00  0.00    +0.015 A 
ATOM     16  C   UNL     1       0.848  -0.411  -1.489  0.00  0.00    +0.008 A 
ATOM     17  C   UNL     1       1.305   0.599  -2.328  0.00  0.00    +0.015 A 
ATOM     18  C   UNL     1       1.974   0.276  -3.492  0.00  0.00    +0.005 A 
BRANCH  16  19
ATOM     19  S   UNL     1       0.002  -0.004   0.002  0.00  0.00    -0.129 S 
ATOM     20  C   UNL     1      -0.022   1.810   0.012  0.00  0.00    +0.090 C 
ENDBRANCH  16  19
ENDBRANCH   4  13
BRANCH  11  21
ATOM     21  C   UNL     1       8.299   0.604  -5.580  0.00  0.00    -0.044 A 
ATOM     22  C   UNL     1       8.706   1.233  -4.418  0.00  0.00    +0.004 A 
ATOM     23  C   UNL     1       9.972   1.783  -4.338  0.00  0.00    +0.000 A 
ATOM     24  C   UNL     1      10.827   1.712  -5.421  0.00  0.00    +0.000 A 
ATOM     25  C   UNL     1      10.418   1.087  -6.585  0.00  0.00    +0.000 A 
ATOM     26  C   UNL     1       9.154   0.533  -6.664  0.00  0.00    +0.004 A 
ENDBRANCH  11  21
BRANCH   1  28
ATOM     27  C   UNL     1       3.392   3.144  -7.240  0.00  0.00    +0.128 C 
ATOM     28  N   UNL     1       3.556   2.598  -5.886  0.00  0.00    -0.226 NA
ATOM     29  C   UNL     1       2.597   3.206  -4.953  0.00  0.00    +0.128 C 
ENDBRANCH   1  28
TORSDOF 4
