REMARK  Name = ZINC20709004
REMARK  5 active torsions:
REMARK  status: ('A' for Active; 'I' for Inactive)
REMARK    1  A    between atoms: C_4  and  N_7
REMARK    2  A    between atoms: C_8  and  C_10
REMARK    3  A    between atoms: C_17  and  C_26
REMARK    4  A    between atoms: C_28  and  N_33
REMARK    5  A    between atoms: C_31  and  O_32
REMARK                            x       y       z     vdW  Elec       q    Type
REMARK                         _______ _______ _______ _____ _____    ______ ____
ROOT
ATOM      1  C   UNL     1       7.131   0.906  -0.644  0.00  0.00    +0.058 A 
ATOM      2  C   UNL     1       8.447   1.192  -0.284  0.00  0.00    +0.015 A 
ATOM      3  C   UNL     1       8.720   2.258   0.545  0.00  0.00    +0.001 A 
ATOM      4  C   UNL     1       7.684   3.048   1.016  0.00  0.00    +0.006 A 
ATOM      5  C   UNL     1       6.378   2.784   0.666  0.00  0.00    -0.019 A 
ATOM      6  C   UNL     1       6.070   1.702  -0.164  0.00  0.00    +0.044 A 
ATOM      7  N   UNL     1       4.783   1.343  -0.531  0.00  0.00    -0.336 N 
ATOM      8  C   UNL     1       3.694   2.226  -0.085  0.00  0.00    +0.108 C 
ATOM      9  C   UNL     1       4.032   2.676   1.321  0.00  0.00    +0.029 C 
ATOM     10  C   UNL     1       5.259   3.624   1.146  0.00  0.00    +0.049 C 
ATOM     11  C   UNL     1       5.278   4.378   2.434  0.00  0.00    -0.023 C 
ATOM     12  C   UNL     1       4.047   4.417   2.933  0.00  0.00    -0.030 C 
ATOM     13  C   UNL     1       3.085   3.667   2.007  0.00  0.00    +0.033 C 
ATOM     14  H   UNL     1       4.556   0.447  -1.127  0.00  0.00    +0.147 HD
ENDROOT
BRANCH   8  15
ATOM     15  C   UNL     1       2.389   1.471  -0.083  0.00  0.00    +0.017 A 
ATOM     16  C   UNL     1       1.875   0.982   1.103  0.00  0.00    +0.041 A 
ATOM     17  C   UNL     1       0.679   0.290   1.105  0.00  0.00    +0.127 A 
ATOM     18  C   UNL     1      -0.007   0.085  -0.078  0.00  0.00    +0.036 A 
ATOM     19  C   UNL     1       0.503   0.572  -1.266  0.00  0.00    +0.048 A 
ATOM     20  C   UNL     1       1.704   1.267  -1.271  0.00  0.00    +0.122 A 
BRANCH  17  21
ATOM     21  N   UNL     1       0.130  -0.233   2.377  0.00  0.00    +0.056 N 
ATOM     22  O   UNL     1      -0.924  -0.843   2.380  0.00  0.00    -0.126 OA
ATOM     23  O   UNL     1       0.733  -0.053   3.420  0.00  0.00    -0.126 OA
ENDBRANCH  17  21
BRANCH  20  24
ATOM     24  O   UNL     1       2.208   1.747  -2.438  0.00  0.00    -0.506 OA
ATOM     25  H   UNL     1       1.663   1.585  -3.380  0.00  0.00    +0.292 HD
ENDBRANCH  20  24
ENDBRANCH   8  15
BRANCH   1  27
ATOM     26  N   UNL     1       7.857  -0.998  -1.993  0.00  0.00    -0.281 N 
ATOM     27  C   UNL     1       6.847  -0.235  -1.532  0.00  0.00    +0.250 C 
ATOM     28  O   UNL     1       5.700  -0.489  -1.848  0.00  0.00    -0.270 OA
ATOM     29  H   UNL     1       8.884  -0.824  -1.639  0.00  0.00    +0.155 HD
BRANCH  26  33
ATOM     30  C   UNL     1       7.092  -4.016  -4.761  0.00  0.00    +0.000 A 
ATOM     31  C   UNL     1       6.353  -2.848  -4.792  0.00  0.00    +0.002 A 
ATOM     32  C   UNL     1       6.604  -1.846  -3.876  0.00  0.00    +0.023 A 
ATOM     33  C   UNL     1       7.601  -2.012  -2.922  0.00  0.00    +0.034 A 
ATOM     34  C   UNL     1       8.345  -3.184  -2.898  0.00  0.00    +0.023 A 
ATOM     35  C   UNL     1       8.085  -4.185  -3.813  0.00  0.00    +0.002 A 
ENDBRANCH  26  33
ENDBRANCH   1  27
TORSDOF 5
