REMARK  Name = ZINC20291524
REMARK  8 active torsions:
REMARK  status: ('A' for Active; 'I' for Inactive)
REMARK    1  A    between atoms: C_10  and  N_11
REMARK    2  A    between atoms: N_11  and  C_12
REMARK    3  A    between atoms: C_12  and  C_13
REMARK    4  A    between atoms: N_15  and  N_16
REMARK    5  A    between atoms: C_17  and  C_18
REMARK    6  A    between atoms: C_21  and  O_23
REMARK    7  A    between atoms: O_23  and  C_24
REMARK    8  A    between atoms: C_24  and  C_25
REMARK                            x       y       z     vdW  Elec       q    Type
REMARK                         _______ _______ _______ _____ _____    ______ ____
ROOT
ATOM      1  C   UNL     1      -3.105   7.901   0.076  0.00  0.00    +0.249 C 
ATOM      2  O   UNL     1      -3.693   6.840   0.076  0.00  0.00    -0.272 OA
ATOM      3  N   UNL     1      -1.758   7.925   0.063  0.00  0.00    -0.206 N 
ATOM      4  H   UNL     1      -1.225   8.887   0.063  0.00  0.00    +0.177 HD
ENDROOT
BRANCH   3   5
ATOM      5  N   UNL     1      -1.036   6.724   0.049  0.00  0.00    -0.185 NA
ATOM      6  C   UNL     1       0.266   6.747   0.037  0.00  0.00    +0.176 C 
BRANCH   6   7
ATOM      7  C   UNL     1       1.020   5.492   0.023  0.00  0.00    +0.151 A 
ATOM      8  C   UNL     1       2.380   5.375   0.009  0.00  0.00    +0.055 A 
ATOM      9  C   UNL     1       2.669   4.000   0.004  0.00  0.00    +0.091 A 
ATOM     10  C   UNL     1       1.482   3.344   0.006  0.00  0.00    +0.287 A 
ATOM     11  O   UNL     1       0.491   4.250   0.021  0.00  0.00    -0.424 OA
BRANCH  10  12
ATOM     12  O   UNL     1       1.322   1.997   0.000  0.00  0.00    -0.459 OA
BRANCH  12  13
ATOM     13  C   UNL     1      -0.018   1.503   0.010  0.00  0.00    +0.267 C 
BRANCH  13  14
ATOM     14  C   UNL     1       0.002  -0.004   0.002  0.00  0.00    -0.010 A 
ATOM     15  C   UNL     1      -0.006  -0.688  -1.199  0.00  0.00    +0.010 A 
ATOM     16  C   UNL     1       0.018  -2.070  -1.208  0.00  0.00    +0.039 A 
ATOM     17  C   UNL     1       0.039  -2.769  -0.013  0.00  0.00    +0.123 A 
ATOM     18  C   UNL     1       0.041  -2.083   1.189  0.00  0.00    +0.039 A 
ATOM     19  C   UNL     1       0.023  -0.701   1.196  0.00  0.00    +0.010 A 
ATOM     20  F   UNL     1       0.057  -4.120  -0.021  0.00  0.00    -0.205 F 
ENDBRANCH  13  14
ENDBRANCH  12  13
ENDBRANCH  10  12
ENDBRANCH   6   7
ENDBRANCH   3   5
BRANCH   1  21
ATOM     21  C   UNL     1      -3.882   9.193   0.090  0.00  0.00    +0.199 C 
BRANCH  21  22
ATOM     22  N   UNL     1      -5.317   8.900   0.103  0.00  0.00    -0.335 N 
ATOM     23  H   UNL     1      -5.665   7.856   0.101  0.00  0.00    +0.147 HD
BRANCH  22  33
ATOM     24  C   UNL     1     -10.355   9.178   0.154  0.00  0.00    +0.001 A 
ATOM     25  C   UNL     1      -9.448   8.120   0.139  0.00  0.00    +0.001 A 
ATOM     26  C   UNL     1      -8.106   8.349   0.126  0.00  0.00    +0.010 A 
ATOM     27  C   UNL     1      -7.625   9.667   0.123  0.00  0.00    +0.003 A 
ATOM     28  C   UNL     1      -8.546  10.744   0.144  0.00  0.00    -0.016 A 
ATOM     29  C   UNL     1      -9.925  10.470   0.157  0.00  0.00    +0.008 A 
ATOM     30  C   UNL     1      -8.066  12.065   0.146  0.00  0.00    +0.008 A 
ATOM     31  C   UNL     1      -6.726  12.301   0.135  0.00  0.00    +0.002 A 
ATOM     32  C   UNL     1      -5.811  11.252   0.120  0.00  0.00    +0.023 A 
ATOM     33  C   UNL     1      -6.241   9.942   0.117  0.00  0.00    +0.035 A 
ENDBRANCH  22  33
ENDBRANCH  21  22
ENDBRANCH   1  21
TORSDOF 8
