REMARK  Name = ZINC05538480
REMARK  6 active torsions:
REMARK  status: ('A' for Active; 'I' for Inactive)
REMARK    1  A    between atoms: C_1  and  C_2
REMARK    2  A    between atoms: C_4  and  C_20
REMARK    3  A    between atoms: C_5  and  S_9
REMARK    4  A    between atoms: C_6  and  C_8
REMARK    5  A    between atoms: S_9  and  N_12
REMARK    6  A    between atoms: C_17  and  C_19
REMARK                            x       y       z     vdW  Elec       q    Type
REMARK                         _______ _______ _______ _____ _____    ______ ____
ROOT
ATOM      1  S   UNL     1      -0.138   1.155   1.896  0.00  0.00    +0.062 S 
ATOM      2  O   UNL     1      -1.229   2.031   2.144  0.00  0.00    -0.153 OA
ATOM      3  O   UNL     1      -0.323  -0.195   1.491  0.00  0.00    -0.153 OA
ENDROOT
BRANCH   1   8
ATOM      4  C   UNL     1       3.140   1.004   6.959  0.00  0.00    +0.044 C 
ATOM      5  C   UNL     1       2.322   1.042   5.694  0.00  0.00    -0.050 A 
ATOM      6  C   UNL     1       1.906   2.254   5.176  0.00  0.00    +0.008 A 
ATOM      7  C   UNL     1       1.155   2.289   4.016  0.00  0.00    -0.024 A 
ATOM      8  C   UNL     1       0.820   1.111   3.374  0.00  0.00    +0.111 A 
ATOM      9  C   UNL     1       1.231  -0.102   3.896  0.00  0.00    -0.024 A 
ATOM     10  C   UNL     1       1.986  -0.136   5.053  0.00  0.00    +0.008 A 
ATOM     11  C   UNL     1       0.860  -1.386   3.200  0.00  0.00    +0.046 C 
ATOM     12  C   UNL     1       0.702   3.610   3.451  0.00  0.00    +0.046 C 
ENDBRANCH   1   8
BRANCH   1  13
ATOM     13  N   UNL     1       0.792   1.875   0.731  0.00  0.00    -0.174 NA
ATOM     14  C   UNL     1       0.506   3.246   0.286  0.00  0.00    +0.110 C 
ATOM     15  C   UNL     1       1.782   4.085   0.411  0.00  0.00    +0.017 C 
ATOM     16  C   UNL     1       2.916   3.399  -0.355  0.00  0.00    +0.003 C 
ATOM     17  C   UNL     1       3.183   2.020   0.251  0.00  0.00    +0.020 C 
ATOM     18  C   UNL     1       1.923   1.158   0.125  0.00  0.00    +0.077 C 
ATOM     19  C   UNL     1       2.136  -0.173   0.848  0.00  0.00    +0.026 C 
ENDBRANCH   1  13
TORSDOF 2
