REMARK  Name = ZINC05104869
REMARK  1 active torsions:
REMARK  status: ('A' for Active; 'I' for Inactive)
REMARK    1  A    between atoms: C_11  and  O_15
REMARK                            x       y       z     vdW  Elec       q    Type
REMARK                         _______ _______ _______ _____ _____    ______ ____
ROOT
ATOM      1  C   UNL     1      -1.238   3.036   1.459  0.00  0.00    +0.008 C 
ATOM      2  C   UNL     1       0.015   3.936   1.444  0.00  0.00    +0.008 C 
ATOM      3  C   UNL     1       0.611   3.727   0.014  0.00  0.00    +0.016 C 
ATOM      4  C   UNL     1      -0.717   3.607  -0.824  0.00  0.00    +0.015 C 
ATOM      5  C   UNL     1      -1.255   2.396   0.034  0.00  0.00    +0.016 C 
ATOM      6  C   UNL     1      -0.018   1.500   0.010  0.00  0.00    -0.067 C 
ATOM      7  C   UNL     1       1.054   2.265   0.004  0.00  0.00    -0.064 C 
ATOM      8  C   UNL     1       2.470   1.756  -0.010  0.00  0.00    +0.062 C 
ATOM      9  C   UNL     1       2.457   0.277   0.397  0.00  0.00    +0.119 C 
ATOM     10  C   UNL     1       1.401  -0.468  -0.425  0.00  0.00    +0.036 C 
ATOM     11  C   UNL     1       0.002  -0.004   0.002  0.00  0.00    +0.033 C 
ENDROOT
BRANCH   9  12
ATOM     12  O   UNL     1       3.743  -0.296   0.152  0.00  0.00    -0.391 OA
ATOM     13  H   UNL     1       3.808  -1.232   0.386  0.00  0.00    +0.210 HD
ENDBRANCH   9  12
TORSDOF 1
