REMARK  Name = ZINC14464750
REMARK  4 active torsions:
REMARK  status: ('A' for Active; 'I' for Inactive)
REMARK    1  A    between atoms: C_6  and  C_7
REMARK    2  A    between atoms: C_18  and  S_23
REMARK    3  A    between atoms: S_23  and  N_26
REMARK    4  A    between atoms: N_26  and  C_27
REMARK                            x       y       z     vdW  Elec       q    Type
REMARK                         _______ _______ _______ _____ _____    ______ ____
ROOT
ATOM      1  C   UNL     1      -3.736   1.691   0.009  0.00  0.00    +0.105 C 
ATOM      2  C   UNL     1      -3.548   2.990  -0.754  0.00  0.00    +0.029 C 
ATOM      3  C   UNL     1      -4.724   3.977  -0.753  0.00  0.00    +0.033 C 
ATOM      4  C   UNL     1      -3.983   5.323  -0.855  0.00  0.00    -0.030 C 
ATOM      5  C   UNL     1      -2.739   5.209  -0.405  0.00  0.00    -0.023 C 
ATOM      6  C   UNL     1      -2.543   3.828   0.104  0.00  0.00    +0.049 C 
ATOM      7  C   UNL     1      -1.230   3.150   0.045  0.00  0.00    -0.018 A 
ATOM      8  C   UNL     1      -0.039   3.843   0.030  0.00  0.00    +0.034 A 
ATOM      9  C   UNL     1       1.164   3.162   0.008  0.00  0.00    +0.106 A 
ATOM     10  C   UNL     1       1.175   1.778   0.000  0.00  0.00    +0.030 A 
ATOM     11  C   UNL     1      -0.013   1.076   0.008  0.00  0.00    +0.025 A 
ATOM     12  C   UNL     1      -1.227   1.751   0.017  0.00  0.00    +0.031 A 
ATOM     13  N   UNL     1      -2.419   1.017  -0.018  0.00  0.00    -0.336 N 
ATOM     14  H   UNL     1      -2.381   0.049  -0.061  0.00  0.00    +0.147 HD
ENDROOT
BRANCH   1  20
ATOM     15  C   UNL     1      -4.452   0.147  -1.827  0.00  0.00    +0.007 A 
ATOM     16  C   UNL     1      -5.401  -0.643  -2.448  0.00  0.00    +0.020 A 
ATOM     17  C   UNL     1      -6.675  -0.738  -1.917  0.00  0.00    +0.041 A 
ATOM     18  C   UNL     1      -6.997  -0.047  -0.763  0.00  0.00    +0.020 A 
ATOM     19  C   UNL     1      -6.046   0.738  -0.140  0.00  0.00    +0.007 A 
ATOM     20  C   UNL     1      -4.773   0.834  -0.670  0.00  0.00    -0.027 A 
ATOM     21 CL   UNL     1      -7.870  -1.724  -2.701  0.00  0.00    -0.084 Cl
ENDBRANCH   1  20
BRANCH   9  22
ATOM     22  S   UNL     1       2.682   4.055  -0.012  0.00  0.00    +0.059 S 
ATOM     23  O   UNL     1       2.410   5.331   0.550  0.00  0.00    -0.153 OA
ATOM     24  O   UNL     1       3.672   3.185   0.518  0.00  0.00    -0.153 OA
BRANCH  22  25
ATOM     25  N   UNL     1       3.078   4.311  -1.600  0.00  0.00    -0.187 NA
ATOM     26  H   UNL     1       3.874   3.902  -1.973  0.00  0.00    +0.148 HD
BRANCH  25  27
ATOM     27  C   UNL     1       2.227   5.157  -2.440  0.00  0.00    +0.077 C 
ATOM     28  C   UNL     1       1.237   4.280  -3.208  0.00  0.00    +0.020 C 
ATOM     29  C   UNL     1       0.347   5.163  -4.086  0.00  0.00    +0.002 C 
ATOM     30  C   UNL     1       1.217   5.938  -5.077  0.00  0.00    +0.000 C 
ATOM     31  C   UNL     1       2.208   6.816  -4.308  0.00  0.00    +0.002 C 
ATOM     32  C   UNL     1       3.097   5.933  -3.431  0.00  0.00    +0.020 C 
ENDBRANCH  25  27
ENDBRANCH  22  25
ENDBRANCH   9  22
TORSDOF 4
