REMARK  Name = ZINC38735627
REMARK  4 active torsions:
REMARK  status: ('A' for Active; 'I' for Inactive)
REMARK    1  A    between atoms: C_5  and  C_7
REMARK    2  A    between atoms: C_8  and  C_9
REMARK    3  A    between atoms: N_11  and  C_12
REMARK    4  A    between atoms: C_15  and  C_18
REMARK                            x       y       z     vdW  Elec       q    Type
REMARK                         _______ _______ _______ _____ _____    ______ ____
ROOT
ATOM      1  C   UNL     1      -1.055  -6.406  -0.113  0.00  0.00    +0.034 A 
ATOM      2  C   UNL     1       0.134  -7.125  -0.117  0.00  0.00    +0.024 A 
ATOM      3  C   UNL     1       0.109  -8.501  -0.213  0.00  0.00    +0.012 A 
ATOM      4  C   UNL     1      -1.111  -9.169  -0.306  0.00  0.00    +0.002 A 
ATOM      5  C   UNL     1      -2.303  -8.445  -0.301  0.00  0.00    +0.012 A 
ATOM      6  C   UNL     1      -2.272  -7.070  -0.200  0.00  0.00    +0.024 A 
ENDROOT
BRANCH   4   7
ATOM      7  C   UNL     1      -1.141 -10.649  -0.410  0.00  0.00    +0.090 A 
ATOM      8  C   UNL     1      -2.250 -11.416  -0.510  0.00  0.00    +0.116 A 
ATOM      9  N   UNL     1      -1.835 -12.742  -0.598  0.00  0.00    -0.324 N 
ATOM     10  C   UNL     1      -0.474 -12.704  -0.514  0.00  0.00    +0.170 A 
ATOM     11  N   UNL     1      -0.062 -11.469  -0.426  0.00  0.00    -0.222 NA
ATOM     12  S   UNL     1       0.076 -14.397  -0.561  0.00  0.00    -0.086 S 
ATOM     13  C   UNL     1      -1.557 -15.208  -0.299  0.00  0.00    +0.099 C 
ATOM     14  C   UNL     1      -2.477 -14.051  -0.759  0.00  0.00    +0.135 C 
ENDBRANCH   4   7
BRANCH   1  17
ATOM     15  C   UNL     1      -0.036  -4.314  -0.606  0.00  0.00    +0.241 C 
ATOM     16  O   UNL     1       0.879  -4.902  -1.154  0.00  0.00    -0.270 OA
ATOM     17  N   UNL     1      -1.026  -5.011  -0.015  0.00  0.00    -0.282 N 
ATOM     18  H   UNL     1      -1.720  -4.545   0.479  0.00  0.00    +0.155 HD
BRANCH  15  20
ATOM     19  C   UNL     1       0.931  -2.154  -1.182  0.00  0.00    +0.014 C 
ATOM     20  C   UNL     1      -0.060  -2.851  -0.590  0.00  0.00    +0.068 C 
BRANCH  19  25
ATOM     21  C   UNL     1      -0.160   1.375  -0.528  0.00  0.00    +0.001 A 
ATOM     22  C   UNL     1       0.860   2.088  -1.137  0.00  0.00    +0.001 A 
ATOM     23  C   UNL     1       1.901   1.425  -1.760  0.00  0.00    +0.020 A 
ATOM     24  C   UNL     1       1.933   0.045  -1.779  0.00  0.00    +0.048 A 
ATOM     25  C   UNL     1       0.906  -0.683  -1.166  0.00  0.00    -0.007 A 
ATOM     26  C   UNL     1      -0.144  -0.004  -0.539  0.00  0.00    +0.009 A 
ATOM     27 CL   UNL     1       3.241  -0.785  -2.562  0.00  0.00    -0.083 Cl
ENDBRANCH  19  25
ENDBRANCH  15  20
ENDBRANCH   1  17
TORSDOF 4
