REMARK  Name = ZINC36256785
REMARK  13 active torsions:
REMARK  status: ('A' for Active; 'I' for Inactive)
REMARK    1  A    between atoms: C_1  and  C_2
REMARK    2  A    between atoms: N_8  and  C_9
REMARK    3  A    between atoms: C_9  and  C_10
REMARK    4  A    between atoms: C_10  and  C_11
REMARK    5  A    between atoms: C_11  and  N_12
REMARK    6  A    between atoms: C_13  and  C_15
REMARK    7  A    between atoms: C_15  and  C_17
REMARK    8  A    between atoms: C_15  and  N_22
REMARK    9  A    between atoms: C_28  and  C_30
REMARK   10  A    between atoms: C_33  and  C_36
REMARK   11  A    between atoms: C_36  and  C_37
REMARK   12  A    between atoms: C_36  and  C_38
REMARK   13  A    between atoms: C_36  and  C_39
REMARK                            x       y       z     vdW  Elec       q    Type
REMARK                         _______ _______ _______ _____ _____    ______ ____
ROOT
ATOM      1  C   UNL     1       1.035  -1.109   7.857  0.00  0.00    +0.146 C 
ENDROOT
BRANCH   1   2
ATOM      2  N   UNL     1       0.514  -0.512   9.095  0.00  0.00    -0.288 NA
ATOM      3  C   UNL     1       1.318  -0.921  10.255  0.00  0.00    +0.104 C 
ATOM      4  C   UNL     1       0.858  -0.141  11.491  0.00  0.00    +0.123 C 
ATOM      5  N   UNL     1      -0.594  -0.322  11.645  0.00  0.00    -0.295 N 
ATOM      6  C   UNL     1      -1.454  -0.063  10.480  0.00  0.00    +0.123 C 
ATOM      7  C   UNL     1      -0.903  -0.846   9.284  0.00  0.00    +0.104 C 
ATOM      8  C   UNL     1      -1.121  -0.714  12.821  0.00  0.00    +0.247 C 
ATOM      9  O   UNL     1      -2.328  -0.784  12.953  0.00  0.00    -0.270 OA
BRANCH   8  10
ATOM     10  C   UNL     1      -0.233  -1.059  13.951  0.00  0.00    +0.037 A 
ATOM     11  C   UNL     1       0.849  -0.236  14.269  0.00  0.00    +0.013 A 
ATOM     12  C   UNL     1       1.674  -0.564  15.325  0.00  0.00    +0.005 A 
ATOM     13  C   UNL     1       1.431  -1.706  16.068  0.00  0.00    -0.042 A 
ATOM     14  C   UNL     1       0.361  -2.526  15.758  0.00  0.00    +0.005 A 
ATOM     15  C   UNL     1      -0.476  -2.206  14.709  0.00  0.00    +0.013 A 
BRANCH  13  16
ATOM     16  C   UNL     1       2.337  -2.057  17.220  0.00  0.00    -0.013 C 
ATOM     17  C   UNL     1       2.310  -0.929  18.253  0.00  0.00    +0.015 C 
ATOM     18  C   UNL     1       1.854  -3.355  17.871  0.00  0.00    +0.015 C 
ATOM     19  C   UNL     1       3.766  -2.245  16.707  0.00  0.00    +0.015 C 
ENDBRANCH  13  16
ENDBRANCH   8  10
ENDBRANCH   1   2
BRANCH   1  20
ATOM     20  C   UNL     1       2.511  -0.740   7.695  0.00  0.00    +0.015 C 
ATOM     21  C   UNL     1       2.664   0.791   7.580  0.00  0.00    +0.005 C 
ATOM     22  C   UNL     1       3.804   0.983   6.549  0.00  0.00    +0.000 C 
ATOM     23  C   UNL     1       3.532  -0.147   5.525  0.00  0.00    +0.000 C 
ATOM     24  C   UNL     1       3.063  -1.336   6.389  0.00  0.00    +0.005 C 
ENDBRANCH   1  20
BRANCH   1  26
ATOM     25  N   UNL     1       0.108  -1.345   5.576  0.00  0.00    -0.314 N 
ATOM     26  C   UNL     1       0.254  -0.585   6.680  0.00  0.00    +0.231 C 
ATOM     27  O   UNL     1      -0.243   0.521   6.725  0.00  0.00    -0.274 OA
ATOM     28  H   UNL     1       0.564  -2.198   5.511  0.00  0.00    +0.149 HD
BRANCH  25  29
ATOM     29  C   UNL     1      -0.740  -0.881   4.475  0.00  0.00    +0.102 C 
BRANCH  29  30
ATOM     30  C   UNL     1      -0.734  -1.922   3.354  0.00  0.00    +0.000 C 
BRANCH  30  31
ATOM     31  C   UNL     1      -1.619  -1.439   2.204  0.00  0.00    -0.077 C 
BRANCH  31  38
ATOM     32  C   UNL     1      -1.760  -0.588  -0.469  0.00  0.00    -0.013 C 
ATOM     33  C   UNL     1      -2.365  -1.921  -0.023  0.00  0.00    -0.072 C 
ATOM     34  C   UNL     1      -2.292  -2.924  -1.176  0.00  0.00    -0.016 C 
ATOM     35  C   UNL     1      -2.899  -4.256  -0.725  0.00  0.00    -0.003 C 
ATOM     36  C   UNL     1      -2.155  -4.749   0.520  0.00  0.00    -0.019 C 
ATOM     37  C   UNL     1      -2.232  -3.678   1.610  0.00  0.00    -0.078 C 
ATOM     38  N   UNL     1      -1.613  -2.438   1.127  0.00  0.00    +0.381 N 
ATOM     39  H   UNL     1      -0.661  -2.624   0.850  0.00  0.00    -0.081 HD
ENDBRANCH  31  38
ENDBRANCH  30  31
ENDBRANCH  29  30
ENDBRANCH  25  29
ENDBRANCH   1  26
TORSDOF 9
