REMARK  Name = ZINC00668207
REMARK  6 active torsions:
REMARK  status: ('A' for Active; 'I' for Inactive)
REMARK    1  A    between atoms: C_1  and  C_2
REMARK    2  A    between atoms: C_5  and  C_9
REMARK    3  A    between atoms: C_6  and  C_8
REMARK    4  A    between atoms: C_15  and  C_17
REMARK    5  A    between atoms: C_18  and  C_19
REMARK    6  A    between atoms: C_22  and  N_25
REMARK                            x       y       z     vdW  Elec       q    Type
REMARK                         _______ _______ _______ _____ _____    ______ ____
ROOT
ATOM      1  C   UNL     1       9.585   0.865   0.426  0.00  0.00    +0.080 A 
ATOM      2  C   UNL     1       9.398  -0.473   0.637  0.00  0.00    +0.076 A 
ATOM      3  S   UNL     1       7.631  -0.521   0.905  0.00  0.00    -0.060 S 
ATOM      4  C   UNL     1       7.327   1.229   0.710  0.00  0.00    +0.165 A 
ATOM      5  N   UNL     1       8.543   1.681   0.462  0.00  0.00    -0.225 NA
ATOM      6  N   UNL     1       6.130   1.927   0.792  0.00  0.00    -0.261 N 
ATOM      7  C   UNL     1       4.983   1.270   1.053  0.00  0.00    +0.243 C 
ATOM      8  O   UNL     1       4.997   0.064   1.217  0.00  0.00    -0.270 OA
ATOM      9  H   UNL     1       6.120   2.889   0.661  0.00  0.00    +0.157 HD
ENDROOT
BRANCH   1  14
ATOM     10  C   UNL     1      14.855   2.930  -0.636  0.00  0.00    +0.044 C 
ATOM     11  C   UNL     1      13.476   2.389  -0.359  0.00  0.00    -0.050 A 
ATOM     12  C   UNL     1      13.313   1.059  -0.015  0.00  0.00    +0.004 A 
ATOM     13  C   UNL     1      12.054   0.560   0.245  0.00  0.00    +0.010 A 
ATOM     14  C   UNL     1      10.943   1.397   0.151  0.00  0.00    +0.004 A 
ATOM     15  C   UNL     1      11.112   2.736  -0.195  0.00  0.00    -0.041 A 
ATOM     16  C   UNL     1      12.378   3.225  -0.448  0.00  0.00    +0.007 A 
ATOM     17  C   UNL     1       9.917   3.648  -0.292  0.00  0.00    +0.044 C 
ENDBRANCH   1  14
BRANCH   7  18
ATOM     18  C   UNL     1       3.721   2.006   1.139  0.00  0.00    +0.068 C 
ATOM     19  C   UNL     1       2.573   1.348   1.400  0.00  0.00    +0.013 C 
BRANCH  19  20
ATOM     20  C   UNL     1       1.304   2.089   1.486  0.00  0.00    -0.025 A 
ATOM     21  C   UNL     1       0.112   1.410   1.756  0.00  0.00    +0.010 A 
ATOM     22  C   UNL     1      -1.074   2.110   1.830  0.00  0.00    +0.033 A 
ATOM     23  C   UNL     1      -1.085   3.482   1.648  0.00  0.00    +0.126 A 
ATOM     24  C   UNL     1       0.091   4.161   1.380  0.00  0.00    +0.033 A 
ATOM     25  C   UNL     1       1.284   3.474   1.298  0.00  0.00    +0.010 A 
BRANCH  23  26
ATOM     26  N   UNL     1      -2.361   4.227   1.734  0.00  0.00    +0.056 N 
ATOM     27  O   UNL     1      -2.375   5.433   1.569  0.00  0.00    -0.126 OA
ATOM     28  O   UNL     1      -3.398   3.632   1.970  0.00  0.00    -0.126 OA
ENDBRANCH  23  26
ENDBRANCH  19  20
ENDBRANCH   7  18
TORSDOF 4
