REMARK  Name = ZINC62144801
REMARK  4 active torsions:
REMARK  status: ('A' for Active; 'I' for Inactive)
REMARK    1  A    between atoms: C_4  and  N_17
REMARK    2  A    between atoms: C_5  and  C_7
REMARK    3  A    between atoms: C_7  and  C_8
REMARK    4  A    between atoms: C_8  and  C_10
REMARK                            x       y       z     vdW  Elec       q    Type
REMARK                         _______ _______ _______ _____ _____    ______ ____
ROOT
ATOM      1  C   UNL     1       1.978   1.561  -0.146  0.00  0.00    +0.000 A 
ATOM      2  C   UNL     1       0.707   2.061   0.070  0.00  0.00    +0.002 A 
ATOM      3  C   UNL     1      -0.354   1.196   0.256  0.00  0.00    +0.033 A 
ATOM      4  C   UNL     1      -0.146  -0.170   0.225  0.00  0.00    +0.129 A 
ATOM      5  C   UNL     1       1.124  -0.671   0.008  0.00  0.00    -0.015 A 
ATOM      6  C   UNL     1       2.186   0.195  -0.176  0.00  0.00    +0.006 A 
ENDROOT
BRANCH   4   7
ATOM      7  N   UNL     1      -1.283  -1.097   0.426  0.00  0.00    +0.057 N 
ATOM      8  O   UNL     1      -2.373  -0.663   0.717  0.00  0.00    -0.126 OA
ATOM      9  O   UNL     1      -1.121  -2.288   0.298  0.00  0.00    -0.126 OA
ENDBRANCH   4   7
BRANCH   5  10
ATOM     10  C   UNL     1       1.351  -2.160  -0.024  0.00  0.00    +0.064 C 
BRANCH  10  11
ATOM     11  C   UNL     1       1.363  -2.706   1.406  0.00  0.00    +0.151 C 
ATOM     12 CL   UNL     1       2.784  -2.039   2.292  0.00  0.00    -0.113 Cl
BRANCH  11  13
ATOM     13  C   UNL     1       1.454  -4.210   1.369  0.00  0.00    +0.124 A 
ATOM     14  C   UNL     1       0.506  -5.065   1.791  0.00  0.00    +0.047 A 
ATOM     15  C   UNL     1       1.005  -6.370   1.573  0.00  0.00    +0.057 A 
ATOM     16  C   UNL     1       2.229  -6.233   1.030  0.00  0.00    +0.170 A 
ATOM     17  O   UNL     1       2.493  -4.923   0.904  0.00  0.00    -0.452 OA
ATOM     18 BR   UNL     1       3.379  -7.647   0.525  0.00  0.00    -0.008 Br
ENDBRANCH  11  13
ENDBRANCH  10  11
ENDBRANCH   5  10
TORSDOF 4
