REMARK  Name = ZINC05613137
REMARK  6 active torsions:
REMARK  status: ('A' for Active; 'I' for Inactive)
REMARK    1  A    between atoms: C_2  and  C_3
REMARK    2  A    between atoms: C_3  and  O_4
REMARK    3  A    between atoms: O_4  and  C_5
REMARK    4  A    between atoms: C_8  and  C_11
REMARK    5  A    between atoms: N_12  and  N_13
REMARK    6  A    between atoms: C_14  and  C_16
REMARK                            x       y       z     vdW  Elec       q    Type
REMARK                         _______ _______ _______ _____ _____    ______ ____
ROOT
ATOM      1  N   UNL     1       2.766   7.730   0.017  0.00  0.00    -0.202 N 
ATOM      2  C   UNL     1       3.140   6.435   0.006  0.00  0.00    +0.271 C 
ATOM      3  O   UNL     1       4.321   6.143  -0.006  0.00  0.00    -0.268 OA
ATOM      4  H   UNL     1       1.824   7.963   0.027  0.00  0.00    +0.178 HD
ENDROOT
BRANCH   2   5
ATOM      5  C   UNL     1       2.122   5.378   0.010  0.00  0.00    +0.095 A 
ATOM      6  C   UNL     1       2.301   4.028   0.001  0.00  0.00    +0.068 A 
ATOM      7  C   UNL     1       1.184   3.173   0.007  0.00  0.00    +0.008 A 
ATOM      8  C   UNL     1       1.164   1.754   0.000  0.00  0.00    +0.010 A 
ATOM      9  C   UNL     1      -0.013   1.076   0.008  0.00  0.00    +0.001 A 
ATOM     10  C   UNL     1      -1.235   1.737   0.017  0.00  0.00    +0.001 A 
ATOM     11  C   UNL     1      -1.261   3.117   0.030  0.00  0.00    +0.016 A 
ATOM     12  C   UNL     1      -0.075   3.819   0.023  0.00  0.00    +0.021 A 
ATOM     13  S   UNL     1       0.346   5.544   0.028  0.00  0.00    -0.082 S 
ATOM     14 CL   UNL     1       3.905   3.364  -0.018  0.00  0.00    -0.082 Cl
ENDBRANCH   2   5
BRANCH   1  16
ATOM     15  C   UNL     1       3.377   9.987   0.024  0.00  0.00    +0.138 C 
ATOM     16  N   UNL     1       3.737   8.740   0.013  0.00  0.00    -0.187 NA
BRANCH  15  20
ATOM     17  C   UNL     1       6.320  13.047   0.014  0.00  0.00    +0.121 A 
ATOM     18  C   UNL     1       4.972  13.382   0.028  0.00  0.00    +0.046 A 
ATOM     19  C   UNL     1       4.013  12.393   0.031  0.00  0.00    +0.013 A 
ATOM     20  C   UNL     1       4.399  11.049   0.020  0.00  0.00    -0.005 A 
ATOM     21  C   UNL     1       5.756  10.716   0.011  0.00  0.00    +0.013 A 
ATOM     22  C   UNL     1       6.708  11.713   0.004  0.00  0.00    +0.046 A 
BRANCH  17  23
ATOM     23  O   UNL     1       7.262  14.026   0.012  0.00  0.00    -0.488 OA
BRANCH  23  24
ATOM     24  C   UNL     1       8.629  13.611  -0.002  0.00  0.00    +0.256 C 
BRANCH  24  26
ATOM     25  C   UNL     1      10.563  14.871   0.792  0.00  0.00    +0.007 C 
ATOM     26  C   UNL     1       9.522  14.824  -0.002  0.00  0.00    +0.006 C 
ENDBRANCH  24  26
ENDBRANCH  23  24
ENDBRANCH  17  23
ENDBRANCH  15  20
ENDBRANCH   1  16
TORSDOF 6
