REMARK  Name = ZINC59433549
REMARK  4 active torsions:
REMARK  status: ('A' for Active; 'I' for Inactive)
REMARK    1  A    between atoms: C_1  and  O_2
REMARK    2  A    between atoms: O_2  and  C_3
REMARK    3  A    between atoms: C_6  and  C_13
REMARK    4  A    between atoms: N_19  and  C_20
REMARK                            x       y       z     vdW  Elec       q    Type
REMARK                         _______ _______ _______ _____ _____    ______ ____
ROOT
ATOM      1  C   UNL     1       3.659  -2.374  -4.069  0.00  0.00    +0.029 C 
ATOM      2  C   UNL     1       3.807  -1.598  -5.176  0.00  0.00    +0.078 C 
ATOM      3  C   UNL     1       3.568  -0.154  -5.344  0.00  0.00    +0.256 C 
ATOM      4  O   UNL     1       3.180   0.538  -4.420  0.00  0.00    -0.269 OA
ATOM      5  N   UNL     1       3.793   0.358  -6.542  0.00  0.00    -0.260 N 
ATOM      6  C   UNL     1       4.232  -0.442  -7.575  0.00  0.00    +0.166 C 
ATOM      7  N   UNL     1       4.503  -0.100  -8.815  0.00  0.00    -0.224 NA
ATOM      8  S   UNL     1       4.351  -2.053  -6.816  0.00  0.00    -0.049 S 
ATOM      9  H   UNL     1       3.648   1.304  -6.696  0.00  0.00    +0.157 HD
ENDROOT
BRANCH   1  13
ATOM     10  C   UNL     1       1.787  -0.756  -0.575  0.00  0.00    +0.128 A 
ATOM     11  C   UNL     1       1.325  -0.457  -1.840  0.00  0.00    +0.047 A 
ATOM     12  C   UNL     1       1.925  -0.976  -2.974  0.00  0.00    +0.012 A 
ATOM     13  C   UNL     1       3.026  -1.826  -2.870  0.00  0.00    -0.016 A 
ATOM     14  C   UNL     1       3.536  -2.159  -1.538  0.00  0.00    -0.007 A 
ATOM     15  C   UNL     1       2.900  -1.605  -0.402  0.00  0.00    +0.024 A 
ATOM     16  C   UNL     1       3.387  -1.917   0.877  0.00  0.00    +0.012 A 
ATOM     17  C   UNL     1       4.465  -2.741   1.006  0.00  0.00    +0.001 A 
ATOM     18  C   UNL     1       5.091  -3.280  -0.114  0.00  0.00    +0.001 A 
ATOM     19  C   UNL     1       4.636  -3.006  -1.371  0.00  0.00    +0.009 A 
BRANCH  10  21
ATOM     20  C   UNL     1       0.049   0.627   0.266  0.00  0.00    +0.277 C 
ATOM     21  O   UNL     1       1.170  -0.225   0.510  0.00  0.00    -0.495 OA
ENDBRANCH  10  21
ENDBRANCH   1  13
BRANCH   7  22
ATOM     22  C   UNL     1       4.819  -1.061  -9.737  0.00  0.00    +0.086 A 
ATOM     23  C   UNL     1       4.022  -2.202  -9.861  0.00  0.00    +0.029 A 
ATOM     24  C   UNL     1       4.345  -3.167 -10.792  0.00  0.00    +0.004 A 
ATOM     25  C   UNL     1       5.455  -3.008 -11.603  0.00  0.00    +0.021 A 
ATOM     26  C   UNL     1       6.250  -1.880 -11.486  0.00  0.00    +0.061 A 
ATOM     27  C   UNL     1       5.935  -0.903 -10.562  0.00  0.00    +0.085 A 
ATOM     28 CL   UNL     1       6.928   0.514 -10.421  0.00  0.00    -0.080 Cl
ATOM     29 CL   UNL     1       7.640  -1.691 -12.508  0.00  0.00    -0.082 Cl
ENDBRANCH   7  22
TORSDOF 3
