REMARK  Name = ZINC36006029
REMARK  12 active torsions:
REMARK  status: ('A' for Active; 'I' for Inactive)
REMARK    1  A    between atoms: C_1  and  C_2
REMARK    2  A    between atoms: C_2  and  O_3
REMARK    3  A    between atoms: O_3  and  C_4
REMARK    4  A    between atoms: C_4  and  C_6
REMARK    5  A    between atoms: C_7  and  C_23
REMARK    6  A    between atoms: N_8  and  C_22
REMARK    7  A    between atoms: C_12  and  C_14
REMARK    8  A    between atoms: C_23  and  N_24
REMARK    9  A    between atoms: C_28  and  C_31
REMARK   10  A    between atoms: N_34  and  C_35
REMARK   11  A    between atoms: C_35  and  C_36
REMARK   12  A    between atoms: C_35  and  C_37
REMARK                            x       y       z     vdW  Elec       q    Type
REMARK                         _______ _______ _______ _____ _____    ______ ____
ROOT
ATOM      1  C   UNL     1       1.299  -2.366  -2.847  0.00  0.00    +0.080 C 
ATOM      2  C   UNL     1       1.520  -3.687  -3.020  0.00  0.00    +0.041 C 
ATOM      3  N   UNL     1       1.995  -4.172  -4.205  0.00  0.00    -0.260 N 
ATOM      4  C   UNL     1       2.272  -3.402  -5.265  0.00  0.00    +0.307 C 
ATOM      5  O   UNL     1       2.691  -3.926  -6.279  0.00  0.00    -0.252 OA
ATOM      6  N   UNL     1       2.102  -2.065  -5.245  0.00  0.00    -0.288 N 
ATOM      7  C   UNL     1       1.588  -1.443  -4.013  0.00  0.00    +0.144 C 
ATOM      8  C   UNL     1       2.212  -5.616  -4.324  0.00  0.00    +0.139 C 
ATOM      9  H   UNL     1       2.310  -1.526  -6.024  0.00  0.00    +0.151 HD
ENDROOT
BRANCH   7  10
ATOM     10  C   UNL     1       2.599  -0.422  -3.557  0.00  0.00    -0.021 A 
ATOM     11  C   UNL     1       3.941  -0.751  -3.511  0.00  0.00    +0.007 A 
ATOM     12  C   UNL     1       4.869   0.184  -3.093  0.00  0.00    +0.022 A 
ATOM     13  C   UNL     1       4.455   1.451  -2.721  0.00  0.00    +0.059 A 
ATOM     14  C   UNL     1       3.111   1.780  -2.768  0.00  0.00    +0.060 A 
ATOM     15  C   UNL     1       2.184   0.845  -3.192  0.00  0.00    +0.027 A 
ATOM     16 CL   UNL     1       2.590   3.369  -2.301  0.00  0.00    -0.082 Cl
ATOM     17 CL   UNL     1       5.620   2.626  -2.195  0.00  0.00    -0.082 Cl
ENDBRANCH   7  10
BRANCH   1  18
ATOM     18  C   UNL     1       0.807  -1.862  -1.620  0.00  0.00    +0.339 C 
ATOM     19  O   UNL     1      -0.356  -1.515  -1.527  0.00  0.00    -0.245 OA
BRANCH  18  20
ATOM     20  O   UNL     1       1.627  -1.766  -0.553  0.00  0.00    -0.462 OA
BRANCH  20  22
ATOM     21  C   UNL     1       2.137  -1.214   1.744  0.00  0.00    +0.048 C 
ATOM     22  C   UNL     1       1.064  -1.248   0.654  0.00  0.00    +0.229 C 
ENDBRANCH  20  22
ENDBRANCH  18  20
ENDBRANCH   1  18
BRANCH   2  23
ATOM     23  C   UNL     1       1.240  -4.641  -1.888  0.00  0.00    +0.136 C 
BRANCH  23  24
ATOM     24  N   UNL     1       0.141  -5.539  -2.264  0.00  0.00    -0.294 NA
ATOM     25  C   UNL     1      -1.116  -4.795  -2.423  0.00  0.00    +0.104 C 
ATOM     26  C   UNL     1      -2.191  -5.729  -2.989  0.00  0.00    +0.125 C 
ATOM     27  N   UNL     1      -2.277  -6.918  -2.127  0.00  0.00    -0.280 N 
ATOM     28  C   UNL     1      -1.035  -7.639  -1.810  0.00  0.00    +0.088 C 
ATOM     29  C   UNL     1      -0.005  -6.630  -1.291  0.00  0.00    +0.107 C 
ATOM     30  C   UNL     1      -1.312  -8.694  -0.738  0.00  0.00    +0.029 C 
ATOM     31  C   UNL     1      -3.462  -7.336  -1.642  0.00  0.00    +0.303 C 
ATOM     32  O   UNL     1      -3.505  -8.269  -0.863  0.00  0.00    -0.253 OA
ATOM     33  N   UNL     1      -4.601  -6.721  -2.020  0.00  0.00    -0.297 N 
ATOM     34  H   UNL     1      -4.574  -6.025  -2.695  0.00  0.00    +0.150 HD
BRANCH  33  35
ATOM     35  C   UNL     1      -5.877  -7.103  -1.410  0.00  0.00    +0.068 C 
ATOM     36  C   UNL     1      -6.068  -6.332  -0.102  0.00  0.00    +0.027 C 
ATOM     37  C   UNL     1      -7.020  -6.769  -2.370  0.00  0.00    +0.027 C 
ENDBRANCH  33  35
ENDBRANCH  23  24
ENDBRANCH   2  23
TORSDOF 7
