REMARK  Name = ZINC66702854
REMARK  10 active torsions:
REMARK  status: ('A' for Active; 'I' for Inactive)
REMARK    1  A    between atoms: C_1  and  C_2
REMARK    2  A    between atoms: C_2  and  N_3
REMARK    3  A    between atoms: C_9  and  C_11
REMARK    4  A    between atoms: C_11  and  C_12
REMARK    5  A    between atoms: N_20  and  C_21
REMARK    6  A    between atoms: C_21  and  C_22
REMARK    7  A    between atoms: C_22  and  N_23
REMARK    8  A    between atoms: N_23  and  C_24
REMARK    9  A    between atoms: N_23  and  C_26
REMARK   10  A    between atoms: C_24  and  C_25
REMARK                            x       y       z     vdW  Elec       q    Type
REMARK                         _______ _______ _______ _____ _____    ______ ____
ROOT
ATOM      1  C   UNL     1      -5.565  -4.903  -2.583  0.00  0.00    +0.001 C 
ATOM      2  C   UNL     1      -5.068  -4.812  -4.027  0.00  0.00    +0.023 C 
ATOM      3  C   UNL     1      -6.019  -5.592  -4.940  0.00  0.00    +0.109 C 
ATOM      4  N   UNL     1      -6.145  -6.964  -4.430  0.00  0.00    -0.286 N 
ATOM      5  C   UNL     1      -6.530  -7.164  -3.026  0.00  0.00    +0.109 C 
ATOM      6  C   UNL     1      -5.573  -6.366  -2.135  0.00  0.00    +0.023 C 
ATOM      7  C   UNL     1      -5.912  -8.020  -5.235  0.00  0.00    +0.302 C 
ATOM      8  O   UNL     1      -5.684  -7.845  -6.416  0.00  0.00    -0.253 OA
ATOM      9  N   UNL     1      -5.933  -9.270  -4.730  0.00  0.00    -0.301 N 
ATOM     10  H   UNL     1      -6.185  -9.415  -3.805  0.00  0.00    +0.150 HD
ENDROOT
BRANCH   1  11
ATOM     11  C   UNL     1      -4.637  -4.096  -1.672  0.00  0.00    +0.099 C 
BRANCH  11  18
ATOM     12  N   UNL     1      -1.840  -0.078  -0.672  0.00  0.00    +0.382 N 
ATOM     13  C   UNL     1      -2.626   0.226  -1.875  0.00  0.00    -0.060 C 
ATOM     14  C   UNL     1      -4.054  -0.299  -1.697  0.00  0.00    +0.089 C 
ATOM     15  N   UNL     1      -3.986  -1.730  -1.361  0.00  0.00    -0.305 N 
ATOM     16  C   UNL     1      -3.092  -2.144  -0.268  0.00  0.00    +0.089 C 
ATOM     17  C   UNL     1      -1.709  -1.532  -0.513  0.00  0.00    -0.060 C 
ATOM     18  C   UNL     1      -4.723  -2.636  -2.034  0.00  0.00    +0.216 C 
ATOM     19  O   UNL     1      -5.454  -2.276  -2.932  0.00  0.00    -0.276 OA
ATOM     20  H   UNL     1      -2.305   0.307   0.137  0.00  0.00    -0.082 HD
BRANCH  12  22
ATOM     21  C   UNL     1      -0.631   2.046  -0.837  0.00  0.00    -0.017 C 
ATOM     22  C   UNL     1      -0.505   0.521  -0.797  0.00  0.00    -0.082 C 
ENDBRANCH  12  22
ENDBRANCH  11  18
ENDBRANCH   1  11
BRANCH   9  23
ATOM     23  C   UNL     1      -5.573 -10.408  -5.579  0.00  0.00    +0.087 C 
BRANCH  23  24
ATOM     24  C   UNL     1      -5.677 -11.702  -4.768  0.00  0.00    -0.059 C 
BRANCH  24  25
ATOM     25  N   UNL     1      -5.227 -12.833  -5.590  0.00  0.00    +0.382 N 
ATOM     26  H   UNL     1      -5.739 -12.842  -6.459  0.00  0.00    -0.081 HD
BRANCH  25  27
ATOM     27  C   UNL     1      -5.466 -14.089  -4.868  0.00  0.00    -0.069 C 
ATOM     28  C   UNL     1      -6.111 -15.239  -5.644  0.00  0.00    -0.017 C 
ATOM     29  C   UNL     1      -6.919 -14.479  -4.590  0.00  0.00    -0.017 C 
ENDBRANCH  25  27
BRANCH  25  30
ATOM     30  C   UNL     1      -3.791 -12.694  -5.870  0.00  0.00    -0.082 C 
ATOM     31  C   UNL     1      -3.349 -13.802  -6.827  0.00  0.00    -0.017 C 
ENDBRANCH  25  30
ENDBRANCH  24  25
ENDBRANCH  23  24
ENDBRANCH   9  23
TORSDOF 8
