REMARK  Name = ZINC02164786
REMARK  5 active torsions:
REMARK  status: ('A' for Active; 'I' for Inactive)
REMARK    1  A    between atoms: C_2  and  C_3
REMARK    2  A    between atoms: C_3  and  O_4
REMARK    3  A    between atoms: O_4  and  C_5
REMARK    4  A    between atoms: C_8  and  C_12
REMARK    5  A    between atoms: N_16  and  C_20
REMARK                            x       y       z     vdW  Elec       q    Type
REMARK                         _______ _______ _______ _____ _____    ______ ____
ROOT
ATOM      1  C   UNL     1       3.893   7.233  -0.182  0.00  0.00    +0.028 C 
ATOM      2  C   UNL     1       3.626   5.907  -0.070  0.00  0.00    +0.080 C 
ATOM      3  C   UNL     1       2.342   5.225   0.185  0.00  0.00    +0.265 C 
ATOM      4  O   UNL     1       1.306   5.846   0.335  0.00  0.00    -0.269 OA
ATOM      5  N   UNL     1       2.375   3.904   0.248  0.00  0.00    -0.197 N 
ATOM      6  C   UNL     1       3.524   3.219   0.076  0.00  0.00    +0.290 C 
ATOM      7  O   UNL     1       3.697   2.015   0.102  0.00  0.00    -0.262 OA
ATOM      8  S   UNL     1       4.729   4.507  -0.200  0.00  0.00    -0.025 S 
ENDROOT
BRANCH   1  12
ATOM      9  C   UNL     1       7.910   8.570  -0.457  0.00  0.00    +0.158 A 
ATOM     10  C   UNL     1       6.880   9.360  -0.958  0.00  0.00    +0.085 A 
ATOM     11  C   UNL     1       5.574   8.931  -0.871  0.00  0.00    +0.031 A 
ATOM     12  C   UNL     1       5.284   7.696  -0.277  0.00  0.00    -0.021 A 
ATOM     13  C   UNL     1       6.323   6.907   0.230  0.00  0.00    +0.031 A 
ATOM     14  C   UNL     1       7.627   7.343   0.133  0.00  0.00    +0.085 A 
ATOM     15 CL   UNL     1       8.917   6.362   0.754  0.00  0.00    -0.080 Cl
ATOM     16 CL   UNL     1       7.242  10.890  -1.694  0.00  0.00    -0.080 Cl
BRANCH   9  17
ATOM     17  O   UNL     1       9.195   8.998  -0.545  0.00  0.00    -0.477 OA
BRANCH  17  18
ATOM     18  C   UNL     1       9.697   9.773   0.545  0.00  0.00    +0.317 C 
BRANCH  18  20
ATOM     19  C   UNL     1      12.211  10.445   0.066  0.00  0.00    +0.007 C 
ATOM     20  C   UNL     1      11.096  10.147   0.279  0.00  0.00    -0.065 C 
ENDBRANCH  18  20
ENDBRANCH  17  18
ENDBRANCH   9  17
ENDBRANCH   1  12
BRANCH   5  21
ATOM     21  C   UNL     1       1.188   3.200   0.492  0.00  0.00    +0.046 A 
ATOM     22  C   UNL     1       0.575   3.280   1.736  0.00  0.00    +0.024 A 
ATOM     23  C   UNL     1      -0.594   2.585   1.975  0.00  0.00    +0.003 A 
ATOM     24  C   UNL     1      -1.153   1.806   0.979  0.00  0.00    +0.020 A 
ATOM     25  C   UNL     1      -0.548   1.728  -0.264  0.00  0.00    +0.043 A 
ATOM     26  C   UNL     1       0.623   2.422  -0.508  0.00  0.00    +0.044 A 
ATOM     27 CL   UNL     1      -1.256   0.753  -1.514  0.00  0.00    -0.083 Cl
ENDBRANCH   5  21
TORSDOF 5
