REMARK  Name = ZINC01248150
REMARK  4 active torsions:
REMARK  status: ('A' for Active; 'I' for Inactive)
REMARK    1  A    between atoms: C_1  and  C_2
REMARK    2  A    between atoms: C_2  and  C_3
REMARK    3  A    between atoms: C_2  and  C_4
REMARK    4  A    between atoms: C_4  and  N_5
REMARK                            x       y       z     vdW  Elec       q    Type
REMARK                         _______ _______ _______ _____ _____    ______ ____
ROOT
ATOM      1  N   UNL     1       1.141   2.385   0.004  0.00  0.00    -0.288 N 
ATOM      2  C   UNL     1       1.152   3.734   0.008  0.00  0.00    +0.259 A 
ATOM      3  O   UNL     1       2.209   4.340   0.002  0.00  0.00    -0.267 OA
ATOM      4  C   UNL     1      -0.070   4.435   0.019  0.00  0.00    +0.047 A 
ATOM      5  C   UNL     1      -1.238   3.728   0.032  0.00  0.00    +0.057 A 
ATOM      6  N   UNL     1      -1.203   2.354   0.021  0.00  0.00    -0.334 N 
ATOM      7  H   UNL     1      -2.141   1.780   0.019  0.00  0.00    +0.168 HD
ATOM      8  C   UNL     1      -0.021   1.708   0.011  0.00  0.00    +0.161 A 
ATOM      9  S   UNL     1       0.002  -0.004   0.002  0.00  0.00    -0.013 S 
ATOM     10  C   UNL     1      -2.520   4.459   0.053  0.00  0.00    +0.002 A 
ATOM     11  C   UNL     1      -3.694   3.839   0.478  0.00  0.00    +0.010 A 
ATOM     12  C   UNL     1      -4.877   4.550   0.484  0.00  0.00    +0.001 A 
ATOM     13  C   UNL     1      -4.897   5.870   0.069  0.00  0.00    +0.000 A 
ATOM     14  C   UNL     1      -3.735   6.490  -0.353  0.00  0.00    +0.004 A 
ATOM     15  C   UNL     1      -2.546   5.793  -0.363  0.00  0.00    -0.037 A 
ATOM     16  C   UNL     1      -1.271   6.456  -0.816  0.00  0.00    +0.047 C 
ATOM     17  C   UNL     1      -0.095   5.937   0.009  0.00  0.00    +0.007 C 
ATOM     18  C   UNL     1       1.225   6.474  -0.579  0.00  0.00    +0.012 C 
ATOM     19  C   UNL     1       1.530   7.737   0.265  0.00  0.00    +0.001 C 
ATOM     20  C   UNL     1       1.080   7.315   1.686  0.00  0.00    +0.001 C 
ATOM     21  C   UNL     1      -0.189   6.471   1.446  0.00  0.00    +0.012 C 
ENDROOT
BRANCH   1  22
ATOM     22  C   UNL     1       2.408   1.650  -0.009  0.00  0.00    +0.130 C 
BRANCH  22  24
ATOM     23  C   UNL     1       4.219   0.743  -1.472  0.00  0.00    +0.009 C 
ATOM     24  C   UNL     1       2.837   1.399  -1.456  0.00  0.00    +0.003 C 
ATOM     25  C   UNL     1       1.825   0.474  -2.135  0.00  0.00    +0.009 C 
ENDBRANCH  22  24
ENDBRANCH   1  22
TORSDOF 2
