REMARK  Name = ZINC00706240
REMARK  7 active torsions:
REMARK  status: ('A' for Active; 'I' for Inactive)
REMARK    1  A    between atoms: C_1  and  C_2
REMARK    2  A    between atoms: C_2  and  C_37
REMARK    3  A    between atoms: C_6  and  C_25
REMARK    4  A    between atoms: C_8  and  C_23
REMARK    5  A    between atoms: C_9  and  N_22
REMARK    6  A    between atoms: N_10  and  C_11
REMARK    7  A    between atoms: C_12  and  C_20
REMARK                            x       y       z     vdW  Elec       q    Type
REMARK                         _______ _______ _______ _____ _____    ______ ____
ROOT
ATOM      1  C   UNL     1      -3.957   5.830  -4.851  0.00  0.00    +0.011 C 
ATOM      2  C   UNL     1      -2.553   6.303  -5.232  0.00  0.00    -0.023 C 
ATOM      3  C   UNL     1      -1.651   6.285  -3.996  0.00  0.00    +0.058 C 
ATOM      4  C   UNL     1      -2.199   7.229  -2.955  0.00  0.00    +0.025 C 
ATOM      5  C   UNL     1      -2.883   8.337  -3.312  0.00  0.00    +0.025 C 
ATOM      6  C   UNL     1      -3.432   9.278  -2.270  0.00  0.00    +0.097 C 
ATOM      7  C   UNL     1      -2.768   9.065  -0.942  0.00  0.00    +0.077 C 
ATOM      8  C   UNL     1      -2.090   7.921  -0.674  0.00  0.00    +0.107 C 
ATOM      9  N   UNL     1      -1.982   6.938  -1.633  0.00  0.00    -0.253 N 
ATOM     10  C   UNL     1      -3.110   8.643  -4.665  0.00  0.00    +0.162 C 
ATOM     11  O   UNL     1      -3.712   9.658  -4.954  0.00  0.00    -0.292 OA
ATOM     12  C   UNL     1      -2.620   7.739  -5.763  0.00  0.00    +0.086 C 
ATOM     13  C   UNL     1      -1.975   5.383  -6.309  0.00  0.00    +0.011 C 
ENDROOT
BRANCH   9  14
ATOM     14  C   UNL     1      -1.658   5.641  -1.257  0.00  0.00    +0.095 A 
ATOM     15  C   UNL     1      -0.401   5.069  -1.130  0.00  0.00    +0.084 A 
ATOM     16  C   UNL     1      -0.333   3.679  -0.718  0.00  0.00    -0.018 A 
ATOM     17  C   UNL     1      -1.528   3.085  -0.499  0.00  0.00    -0.004 A 
ATOM     18  S   UNL     1      -2.726   4.344  -0.833  0.00  0.00    -0.076 S 
ATOM     19  C   UNL     1      -1.767   1.670  -0.070  0.00  0.00    +0.043 C 
ATOM     20  C   UNL     1      -0.468   0.877  -0.273  0.00  0.00    +0.005 C 
ATOM     21  C   UNL     1       0.697   1.673   0.321  0.00  0.00    +0.005 C 
ATOM     22  C   UNL     1       0.970   2.912  -0.532  0.00  0.00    +0.037 C 
BRANCH  15  23
ATOM     23  C   UNL     1       0.787   5.824  -1.395  0.00  0.00    +0.102 C 
ATOM     24  N   UNL     1       1.730   6.422  -1.606  0.00  0.00    -0.191 NA
ENDBRANCH  15  23
ENDBRANCH   9  14
BRANCH   6  25
ATOM     25  C   UNL     1      -4.913   9.046  -2.125  0.00  0.00    -0.031 A 
ATOM     26  C   UNL     1      -5.383   7.802  -1.746  0.00  0.00    +0.008 A 
ATOM     27  C   UNL     1      -6.741   7.585  -1.607  0.00  0.00    +0.050 A 
ATOM     28  C   UNL     1      -7.636   8.612  -1.857  0.00  0.00    +0.166 A 
ATOM     29  C   UNL     1      -7.164   9.864  -2.244  0.00  0.00    +0.167 A 
ATOM     30  C   UNL     1      -5.801  10.075  -2.376  0.00  0.00    +0.054 A 
ATOM     31  O   UNL     1      -8.231  10.695  -2.429  0.00  0.00    -0.453 OA
ATOM     32  C   UNL     1      -9.335  10.058  -1.758  0.00  0.00    +0.466 C 
ATOM     33  O   UNL     1      -8.999   8.659  -1.800  0.00  0.00    -0.453 OA
ENDBRANCH   6  25
BRANCH   8  34
ATOM     34  N   UNL     1      -1.503   7.746   0.557  0.00  0.00    -0.345 N 
ATOM     35  H   UNL     1      -0.942   6.972   0.721  0.00  0.00    +0.144 HD
ATOM     36  H   UNL     1      -1.651   8.396   1.261  0.00  0.00    +0.144 HD
ENDBRANCH   8  34
BRANCH   7  37
ATOM     37  C   UNL     1      -2.857  10.082   0.062  0.00  0.00    +0.099 C 
ATOM     38  N   UNL     1      -2.928  10.890   0.858  0.00  0.00    -0.191 NA
ENDBRANCH   7  37
TORSDOF 5
