REMARK  Name = ZINC12528908
REMARK  10 active torsions:
REMARK  status: ('A' for Active; 'I' for Inactive)
REMARK    1  A    between atoms: C_1  and  C_2
REMARK    2  A    between atoms: C_4  and  C_12
REMARK    3  A    between atoms: C_5  and  C_11
REMARK    4  A    between atoms: N_6  and  C_7
REMARK    5  A    between atoms: C_7  and  C_8
REMARK    6  A    between atoms: C_8  and  C_9
REMARK    7  A    between atoms: C_8  and  C_10
REMARK    8  A    between atoms: C_13  and  C_14
REMARK    9  A    between atoms: C_13  and  C_16
REMARK   10  A    between atoms: C_28  and  C_32
REMARK                            x       y       z     vdW  Elec       q    Type
REMARK                         _______ _______ _______ _____ _____    ______ ____
ROOT
ATOM      1  C   UNL     1      -2.316   1.478   0.032  0.00  0.00    +0.152 A 
ATOM      2  N   UNL     1      -2.390   0.111   0.025  0.00  0.00    -0.306 N 
ATOM      3  H   UNL     1      -3.260  -0.319   0.031  0.00  0.00    +0.170 HD
ATOM      4  C   UNL     1      -1.278  -0.647   0.011  0.00  0.00    +0.260 A 
ATOM      5  O   UNL     1      -1.359  -1.863   0.006  0.00  0.00    -0.267 OA
ATOM      6  C   UNL     1       0.002  -0.004   0.002  0.00  0.00    +0.075 A 
ATOM      7  C   UNL     1       1.326  -0.625  -0.015  0.00  0.00    -0.023 A 
ATOM      8  C   UNL     1       2.392   0.204  -0.020  0.00  0.00    -0.004 A 
ATOM      9  S   UNL     1       1.704   1.837  -0.004  0.00  0.00    -0.073 S 
ATOM     10  C   UNL     1      -0.017   1.402   0.010  0.00  0.00    +0.116 A 
ATOM     11  N   UNL     1      -1.149   2.093   0.020  0.00  0.00    -0.221 NA
ATOM     12  C   UNL     1       3.840  -0.180  -0.036  0.00  0.00    +0.046 C 
ATOM     13  C   UNL     1       3.951  -1.667   0.329  0.00  0.00    -0.009 C 
ATOM     14  C   UNL     1       2.934  -2.455  -0.503  0.00  0.00    +0.008 C 
ATOM     15  C   UNL     1       1.516  -2.139  -0.026  0.00  0.00    +0.037 C 
ATOM     16  C   UNL     1       5.363  -2.170   0.023  0.00  0.00    +0.008 C 
ENDROOT
BRANCH   1  18
ATOM     17  C   UNL     1      -3.490   3.650   0.054  0.00  0.00    +0.032 C 
ATOM     18  C   UNL     1      -3.554   2.272   0.048  0.00  0.00    +0.095 C 
BRANCH  17  22
ATOM     19  C   UNL     1      -8.408   4.975   0.110  0.00  0.00    +0.063 C 
ATOM     20  C   UNL     1      -6.902   5.009   0.095  0.00  0.00    +0.016 A 
ATOM     21  C   UNL     1      -6.099   3.931   0.081  0.00  0.00    +0.030 A 
ATOM     22  C   UNL     1      -4.721   4.439   0.070  0.00  0.00    -0.003 A 
ATOM     23  C   UNL     1      -4.827   5.819   0.084  0.00  0.00    +0.023 A 
ATOM     24  N   UNL     1      -6.136   6.138   0.093  0.00  0.00    -0.347 N 
ATOM     25  C   UNL     1      -3.678   6.795   0.086  0.00  0.00    +0.064 C 
BRANCH  24  26
ATOM     26  C   UNL     1      -6.663   7.505   0.105  0.00  0.00    +0.124 C 
BRANCH  26  27
ATOM     27  C   UNL     1      -6.833   7.973   1.552  0.00  0.00    +0.003 C 
ATOM     28  C   UNL     1      -5.461   8.062   2.224  0.00  0.00    +0.009 C 
ATOM     29  C   UNL     1      -7.498   9.351   1.568  0.00  0.00    +0.009 C 
ENDBRANCH  26  27
ENDBRANCH  24  26
ENDBRANCH  17  22
BRANCH  18  30
ATOM     30  C   UNL     1      -4.826   1.615   0.056  0.00  0.00    +0.103 C 
ATOM     31  N   UNL     1      -5.836   1.094   0.063  0.00  0.00    -0.191 NA
ENDBRANCH  18  30
ENDBRANCH   1  18
TORSDOF 5
