REMARK  Name = ZINC58865670
REMARK  13 active torsions:
REMARK  status: ('A' for Active; 'I' for Inactive)
REMARK    1  A    between atoms: C_1  and  C_2
REMARK    2  A    between atoms: C_2  and  C_3
REMARK    3  A    between atoms: C_2  and  N_4
REMARK    4  A    between atoms: N_4  and  C_5
REMARK    5  A    between atoms: N_4  and  S_6
REMARK    6  A    between atoms: S_6  and  C_9
REMARK    7  A    between atoms: C_12  and  N_15
REMARK    8  A    between atoms: N_18  and  C_19
REMARK    9  A    between atoms: C_19  and  C_20
REMARK   10  A    between atoms: C_20  and  C_22
REMARK   11  A    between atoms: C_20  and  N_27
REMARK   12  A    between atoms: N_27  and  C_28
REMARK   13  A    between atoms: N_27  and  C_29
REMARK                            x       y       z     vdW  Elec       q    Type
REMARK                         _______ _______ _______ _____ _____    ______ ____
ROOT
ATOM      1  N   UNL     1      -0.885  -7.320  -0.114  0.00  0.00    -0.269 N 
ATOM      2  C   UNL     1      -1.726  -7.957   0.725  0.00  0.00    +0.304 C 
ATOM      3  O   UNL     1      -2.801  -7.461   1.001  0.00  0.00    -0.253 OA
ATOM      4  N   UNL     1      -1.375  -9.144   1.258  0.00  0.00    -0.300 N 
ATOM      5  H   UNL     1      -0.059  -7.747  -0.390  0.00  0.00    +0.156 HD
ATOM      6  H   UNL     1      -0.517  -9.540   1.038  0.00  0.00    +0.150 HD
ENDROOT
BRANCH   1  10
ATOM      7  C   UNL     1      -1.832  -3.514  -1.520  0.00  0.00    +0.106 A 
ATOM      8  C   UNL     1      -2.216  -3.895  -0.247  0.00  0.00    +0.030 A 
ATOM      9  C   UNL     1      -1.904  -5.156   0.222  0.00  0.00    +0.025 A 
ATOM     10  C   UNL     1      -1.204  -6.042  -0.586  0.00  0.00    +0.035 A 
ATOM     11  C   UNL     1      -0.819  -5.657  -1.864  0.00  0.00    +0.025 A 
ATOM     12  C   UNL     1      -1.139  -4.396  -2.329  0.00  0.00    +0.030 A 
BRANCH   7  13
ATOM     13  S   UNL     1      -2.232  -1.905  -2.115  0.00  0.00    +0.061 S 
ATOM     14  O   UNL     1      -1.291  -1.603  -3.136  0.00  0.00    -0.153 OA
ATOM     15  O   UNL     1      -2.405  -1.080  -0.971  0.00  0.00    -0.153 OA
BRANCH  13  16
ATOM     16  N   UNL     1      -3.712  -2.009  -2.851  0.00  0.00    -0.177 NA
ATOM     17  C   UNL     1      -3.799  -2.321  -4.280  0.00  0.00    +0.132 C 
BRANCH  16  19
ATOM     18  C   UNL     1      -5.708  -0.608  -2.664  0.00  0.00    +0.025 C 
ATOM     19  C   UNL     1      -4.934  -1.788  -2.074  0.00  0.00    +0.073 C 
ATOM     20  C   UNL     1      -5.805  -3.046  -2.125  0.00  0.00    +0.025 C 
ENDBRANCH  16  19
ENDBRANCH  13  16
ENDBRANCH   7  13
ENDBRANCH   1  10
BRANCH   4  21
ATOM     21  C   UNL     1      -2.289  -9.837   2.170  0.00  0.00    +0.095 C 
BRANCH  21  22
ATOM     22  C   UNL     1      -1.612 -11.098   2.710  0.00  0.00    -0.014 C 
BRANCH  22  23
ATOM     23  C   UNL     1      -1.374 -12.064   1.578  0.00  0.00    -0.022 A 
ATOM     24  C   UNL     1      -0.232 -12.307   0.889  0.00  0.00    +0.009 A 
ATOM     25  C   UNL     1      -0.247 -13.250  -0.122  0.00  0.00    +0.008 A 
ATOM     26  C   UNL     1      -1.403 -13.904  -0.394  0.00  0.00    +0.045 A 
ATOM     27  S   UNL     1      -2.520 -13.192   0.803  0.00  0.00    -0.103 S 
ENDBRANCH  22  23
BRANCH  22  28
ATOM     28  N   UNL     1      -2.478 -11.726   3.716  0.00  0.00    +0.382 N 
ATOM     29  C   UNL     1      -1.833 -12.943   4.228  0.00  0.00    -0.096 C 
ATOM     30  C   UNL     1      -2.703 -10.788   4.824  0.00  0.00    -0.096 C 
ATOM     31  H   UNL     1      -3.363 -11.967   3.295  0.00  0.00    -0.082 HD
ENDBRANCH  22  28
ENDBRANCH  21  22
ENDBRANCH   4  21
TORSDOF 8
