REMARK  Name = ZINC37308657
REMARK  3 active torsions:
REMARK  status: ('A' for Active; 'I' for Inactive)
REMARK    1  A    between atoms: C_5  and  C_7
REMARK    2  A    between atoms: C_7  and  C_9
REMARK    3  A    between atoms: C_7  and  N_20
REMARK                            x       y       z     vdW  Elec       q    Type
REMARK                         _______ _______ _______ _____ _____    ______ ____
ROOT
ATOM      1  C   UNL     1       1.229  -2.186  -0.022  0.00  0.00    -0.012 C 
ENDROOT
BRANCH   1   2
ATOM      2  C   UNL     1       1.469  -2.677  -1.426  0.00  0.00    -0.054 A 
ATOM      3  C   UNL     1       0.422  -2.713  -2.331  0.00  0.00    +0.004 A 
ATOM      4  C   UNL     1       0.634  -3.162  -3.620  0.00  0.00    +0.030 A 
ATOM      5  C   UNL     1       1.899  -3.576  -4.007  0.00  0.00    +0.087 A 
ATOM      6  C   UNL     1       2.954  -3.539  -3.096  0.00  0.00    +0.157 A 
ATOM      7  C   UNL     1       2.733  -3.083  -1.806  0.00  0.00    +0.050 A 
ATOM      8  O   UNL     1       4.057  -3.995  -3.739  0.00  0.00    -0.408 OA
ATOM      9  C   UNL     1       3.732  -4.311  -5.002  0.00  0.00    +0.419 A 
ATOM     10  O   UNL     1       4.501  -4.750  -5.837  0.00  0.00    -0.223 OA
ATOM     11  N   UNL     1       2.422  -4.069  -5.203  0.00  0.00    -0.288 N 
ATOM     12  H   UNL     1       1.931  -4.210  -6.028  0.00  0.00    +0.172 HD
ENDBRANCH   1   2
BRANCH   1  17
ATOM     13  C   UNL     1      -0.017   1.378   0.010  0.00  0.00    +0.000 A 
ATOM     14  C   UNL     1       1.171   2.086   0.002  0.00  0.00    +0.001 A 
ATOM     15  C   UNL     1       2.377   1.411  -0.013  0.00  0.00    +0.014 A 
ATOM     16  C   UNL     1       2.396   0.029  -0.021  0.00  0.00    +0.015 A 
ATOM     17  C   UNL     1       1.208  -0.679  -0.013  0.00  0.00    -0.045 A 
ATOM     18  C   UNL     1       0.002  -0.004   0.002  0.00  0.00    +0.003 A 
ATOM     19  I   UNL     1       4.225  -0.994  -0.044  0.00  0.00    -0.044 I 
ENDBRANCH   1  17
BRANCH   1  20
ATOM     20  N   UNL     1      -0.061  -2.696   0.461  0.00  0.00    +0.385 N 
ATOM     21  H   UNL     1      -0.800  -2.366  -0.141  0.00  0.00    -0.089 HD
ATOM     22  H   UNL     1      -0.048  -3.705   0.456  0.00  0.00    -0.089 HD
ATOM     23  H   UNL     1      -0.222  -2.367   1.402  0.00  0.00    -0.089 HD
ENDBRANCH   1  20
TORSDOF 3
