REMARK  Name = ZINC22505710
REMARK  5 active torsions:
REMARK  status: ('A' for Active; 'I' for Inactive)
REMARK    1  A    between atoms: C_5  and  N_7
REMARK    2  A    between atoms: C_8  and  C_10
REMARK    3  A    between atoms: C_10  and  C_11
REMARK    4  A    between atoms: C_16  and  N_18
REMARK    5  A    between atoms: N_18  and  N_19
REMARK                            x       y       z     vdW  Elec       q    Type
REMARK                         _______ _______ _______ _____ _____    ______ ____
ROOT
ATOM      1  C   UNL     1      -1.311  -4.811   0.304  0.00  0.00    +0.150 C 
ATOM      2  C   UNL     1      -1.329  -6.329   0.430  0.00  0.00    +0.252 C 
ATOM      3  O   UNL     1      -0.819  -6.910   1.368  0.00  0.00    -0.272 OA
ATOM      4  N   UNL     1      -1.930  -6.962  -0.540  0.00  0.00    -0.155 NA
ATOM      5  C   UNL     1      -2.501  -6.372  -1.582  0.00  0.00    +0.191 C 
ATOM      6  S   UNL     1      -2.224  -4.629  -1.285  0.00  0.00    -0.076 S 
ENDROOT
BRANCH   1   7
ATOM      7  C   UNL     1       0.119  -4.276   0.191  0.00  0.00    +0.120 C 
BRANCH   7   9
ATOM      8  N   UNL     1       1.237  -2.080  -0.022  0.00  0.00    -0.285 N 
ATOM      9  C   UNL     1       0.086  -2.773   0.087  0.00  0.00    +0.219 C 
ATOM     10  O   UNL     1      -0.976  -2.187   0.102  0.00  0.00    -0.275 OA
ATOM     11  H   UNL     1       2.080  -2.551  -0.115  0.00  0.00    +0.155 HD
BRANCH   8  16
ATOM     12  C   UNL     1       0.153   1.372   0.637  0.00  0.00    +0.002 A 
ATOM     13  C   UNL     1       1.173   2.086   0.035  0.00  0.00    +0.001 A 
ATOM     14  C   UNL     1       2.214   1.421  -0.586  0.00  0.00    +0.017 A 
ATOM     15  C   UNL     1       2.239   0.040  -0.607  0.00  0.00    +0.039 A 
ATOM     16  C   UNL     1       1.216  -0.681  -0.003  0.00  0.00    +0.047 A 
ATOM     17  C   UNL     1       0.172  -0.009   0.620  0.00  0.00    +0.024 A 
ATOM     18 BR   UNL     1       3.662  -0.869  -1.458  0.00  0.00    -0.048 Br
ENDBRANCH   8  16
ENDBRANCH   7   9
ENDBRANCH   1   7
BRANCH   5  19
ATOM     19  N   UNL     1      -3.147  -6.957  -2.633  0.00  0.00    -0.094 NA
BRANCH  19  20
ATOM     20  N   UNL     1      -3.266  -8.351  -2.694  0.00  0.00    -0.167 NA
ATOM     21  C   UNL     1      -3.872  -8.899  -3.680  0.00  0.00    +0.039 C 
ATOM     22  C   UNL     1      -4.451  -8.045  -4.778  0.00  0.00    +0.052 C 
ATOM     23  C   UNL     1      -3.375  -7.092  -5.304  0.00  0.00    +0.006 C 
ATOM     24  C   UNL     1      -3.150  -7.351  -6.795  0.00  0.00    +0.000 C 
ATOM     25  C   UNL     1      -1.655  -7.540  -7.059  0.00  0.00    +0.000 C 
ATOM     26  C   UNL     1      -1.433  -8.846  -7.824  0.00  0.00    +0.000 C 
ATOM     27  C   UNL     1      -0.416  -9.710  -7.075  0.00  0.00    +0.000 C 
ATOM     28  C   UNL     1      -0.998 -11.107  -6.854  0.00  0.00    +0.000 C 
ATOM     29  C   UNL     1      -0.914 -11.466  -5.369  0.00  0.00    +0.000 C 
ATOM     30  C   UNL     1      -2.304 -11.849  -4.858  0.00  0.00    +0.000 C 
ATOM     31  C   UNL     1      -2.625 -11.041  -3.599  0.00  0.00    +0.006 C 
ATOM     32  C   UNL     1      -4.001 -10.399  -3.745  0.00  0.00    +0.052 C 
ENDBRANCH  19  20
ENDBRANCH   5  19
TORSDOF 5
