REMARK  Name = ZINC66931221
REMARK  6 active torsions:
REMARK  status: ('A' for Active; 'I' for Inactive)
REMARK    1  A    between atoms: C_10  and  C_11
REMARK    2  A    between atoms: C_10  and  O_24
REMARK    3  A    between atoms: C_11  and  N_12
REMARK    4  A    between atoms: C_13  and  C_15
REMARK    5  A    between atoms: C_15  and  O_16
REMARK    6  A    between atoms: O_16  and  C_17
REMARK                            x       y       z     vdW  Elec       q    Type
REMARK                         _______ _______ _______ _____ _____    ______ ____
ROOT
ATOM      1  C   UNL     1       4.671   0.060  -0.987  0.00  0.00    +0.143 C 
ENDROOT
BRANCH   1  11
ATOM      2  C   UNL     1       3.635  -4.797  -1.159  0.00  0.00    +0.000 A 
ATOM      3  C   UNL     1       3.604  -3.797  -2.113  0.00  0.00    +0.000 A 
ATOM      4  C   UNL     1       3.643  -2.475  -1.720  0.00  0.00    +0.007 A 
ATOM      5  C   UNL     1       3.714  -2.140  -0.374  0.00  0.00    -0.011 A 
ATOM      6  C   UNL     1       3.749  -3.136   0.575  0.00  0.00    -0.041 A 
ATOM      7  C   UNL     1       3.706  -4.467   0.178  0.00  0.00    +0.004 A 
ATOM      8  C   UNL     1       3.843  -2.847   2.051  0.00  0.00    +0.035 C 
ATOM      9  C   UNL     1       3.451  -1.399   2.340  0.00  0.00    +0.008 C 
ATOM     10  C   UNL     1       4.257  -0.485   1.410  0.00  0.00    +0.041 C 
ATOM     11  C   UNL     1       3.746  -0.677  -0.016  0.00  0.00    +0.107 C 
BRANCH  11  12
ATOM     12  O   UNL     1       2.427  -0.138  -0.121  0.00  0.00    -0.382 OA
ATOM     13  H   UNL     1       2.042  -0.209  -1.006  0.00  0.00    +0.211 HD
ENDBRANCH  11  12
ENDBRANCH   1  11
BRANCH   1  14
ATOM     14  N   UNL     1       4.733   1.477  -0.622  0.00  0.00    -0.309 N 
ATOM     15  C   UNL     1       5.418   2.343  -1.394  0.00  0.00    +0.251 C 
ATOM     16  O   UNL     1       5.983   1.949  -2.393  0.00  0.00    -0.272 OA
ATOM     17  H   UNL     1       4.281   1.792   0.177  0.00  0.00    +0.149 HD
BRANCH  15  18
ATOM     18  C   UNL     1       5.482   3.801  -1.018  0.00  0.00    +0.324 C 
BRANCH  18  19
ATOM     19  O   UNL     1       6.260   4.508  -1.986  0.00  0.00    -0.481 OA
BRANCH  19  20
ATOM     20  C   UNL     1       6.418   5.845  -1.793  0.00  0.00    +0.139 A 
ATOM     21  C   UNL     1       5.840   6.461  -0.692  0.00  0.00    +0.047 A 
ATOM     22  C   UNL     1       6.002   7.819  -0.498  0.00  0.00    +0.004 A 
ATOM     23  C   UNL     1       6.739   8.565  -1.400  0.00  0.00    +0.002 A 
ATOM     24  C   UNL     1       7.315   7.954  -2.498  0.00  0.00    +0.023 A 
ATOM     25  C   UNL     1       7.162   6.594  -2.694  0.00  0.00    +0.083 A 
ATOM     26 CL   UNL     1       7.892   5.826  -4.069  0.00  0.00    -0.080 Cl
ENDBRANCH  19  20
ENDBRANCH  18  19
ENDBRANCH  15  18
ENDBRANCH   1  14
TORSDOF 6
