REMARK  Name = ZINC13063792
REMARK  14 active torsions:
REMARK  status: ('A' for Active; 'I' for Inactive)
REMARK    1  A    between atoms: C_1  and  C_2
REMARK    2  A    between atoms: C_2  and  C_3
REMARK    3  A    between atoms: C_3  and  C_5
REMARK    4  A    between atoms: C_3  and  N_65
REMARK    5  A    between atoms: N_9  and  C_10
REMARK    6  A    between atoms: C_10  and  C_11
REMARK    7  A    between atoms: C_10  and  C_12
REMARK    8  A    between atoms: C_10  and  C_13
REMARK    9  A    between atoms: C_13  and  C_14
REMARK   10  A    between atoms: C_15  and  C_16
REMARK   11  A    between atoms: C_15  and  N_65
REMARK   12  A    between atoms: C_21  and  C_22
REMARK   13  A    between atoms: C_21  and  N_65
REMARK   14  A    between atoms: C_27  and  C_34
REMARK                            x       y       z     vdW  Elec       q    Type
REMARK                         _______ _______ _______ _____ _____    ______ ____
ROOT
ATOM      1  N   UNL     1       3.283   1.345  -0.769  0.00  0.00    +0.394 N 
ATOM      2  H   UNL     1       3.822   1.156  -1.623  0.00  0.00    -0.080 HD
ENDROOT
BRANCH   1   3
ATOM      3  C   UNL     1       2.892   0.059  -0.154  0.00  0.00    +0.003 C 
BRANCH   3   4
ATOM      4  C   UNL     1       1.571  -0.390  -0.725  0.00  0.00    +0.139 A 
ATOM      5  N   UNL     1       1.253  -0.467  -1.994  0.00  0.00    -0.115 NA
ATOM      6  N   UNL     1       0.037  -0.886  -2.075  0.00  0.00    -0.023 NA
ATOM      7  N   UNL     1      -0.426  -1.083  -0.890  0.00  0.00    -0.043 NA
ATOM      8  N   UNL     1       0.490  -0.791  -0.030  0.00  0.00    -0.225 N 
BRANCH   8   9
ATOM      9  C   UNL     1       0.375  -0.875   1.428  0.00  0.00    +0.061 C 
ATOM     10  C   UNL     1       0.450   0.531   2.027  0.00  0.00    +0.036 C 
ATOM     11  C   UNL     1       1.518  -1.727   1.982  0.00  0.00    +0.036 C 
BRANCH   9  12
ATOM     12  C   UNL     1      -0.965  -1.515   1.797  0.00  0.00    +0.026 C 
ATOM     13  C   UNL     1      -1.085  -1.603   3.320  0.00  0.00    +0.006 C 
ENDBRANCH   9  12
ENDBRANCH   8   9
ENDBRANCH   3   4
BRANCH   3  15
ATOM     14  C   UNL     1       5.305  -0.532   0.112  0.00  0.00    +0.002 C 
ATOM     15  C   UNL     1       3.966  -0.982  -0.476  0.00  0.00    -0.011 C 
ENDBRANCH   3  15
ENDBRANCH   1   3
BRANCH   1  16
ATOM     16  C   UNL     1       2.077   2.122  -1.125  0.00  0.00    -0.002 C 
BRANCH  16  17
ATOM     17  C   UNL     1       2.487   3.284  -1.992  0.00  0.00    +0.089 A 
ATOM     18  C   UNL     1       2.493   3.298  -3.337  0.00  0.00    +0.042 A 
ATOM     19  C   UNL     1       2.944   4.579  -3.732  0.00  0.00    +0.041 A 
ATOM     20  C   UNL     1       3.187   5.271  -2.604  0.00  0.00    +0.195 A 
ATOM     21  O   UNL     1       2.903   4.483  -1.554  0.00  0.00    -0.470 OA
ENDBRANCH  16  17
ENDBRANCH   1  16
BRANCH   1  22
ATOM     22  C   UNL     1       4.123   2.119   0.168  0.00  0.00    -0.036 C 
BRANCH  22  23
ATOM     23  C   UNL     1       3.429   2.272   1.497  0.00  0.00    +0.001 A 
ATOM     24  C   UNL     1       3.689   1.399   2.501  0.00  0.00    +0.017 A 
ATOM     25  C   UNL     1       2.998   1.576   3.779  0.00  0.00    -0.001 A 
ATOM     26  C   UNL     1       3.226   0.707   4.851  0.00  0.00    +0.010 A 
ATOM     27  C   UNL     1       2.565   0.899   6.031  0.00  0.00    +0.004 A 
ATOM     28  C   UNL     1       1.669   1.950   6.176  0.00  0.00    -0.048 A 
ATOM     29  C   UNL     1       1.429   2.819   5.133  0.00  0.00    +0.029 A 
ATOM     30  C   UNL     1       2.090   2.642   3.922  0.00  0.00    +0.049 A 
ATOM     31  N   UNL     1       1.870   3.496   2.862  0.00  0.00    -0.322 N 
ATOM     32  H   UNL     1       1.244   4.230   2.962  0.00  0.00    +0.169 HD
ATOM     33  C   UNL     1       2.514   3.329   1.694  0.00  0.00    +0.251 A 
ATOM     34  O   UNL     1       2.298   4.106   0.780  0.00  0.00    -0.268 OA
ATOM     35  C   UNL     1       0.952   2.143   7.487  0.00  0.00    +0.044 C 
ENDBRANCH  22  23
ENDBRANCH   1  22
TORSDOF 9
