REMARK  Name = ZINC37615100
REMARK  7 active torsions:
REMARK  status: ('A' for Active; 'I' for Inactive)
REMARK    1  A    between atoms: C_1  and  C_2
REMARK    2  A    between atoms: C_2  and  C_3
REMARK    3  A    between atoms: C_2  and  C_6
REMARK    4  A    between atoms: C_2  and  N_21
REMARK    5  A    between atoms: N_8  and  C_9
REMARK    6  A    between atoms: C_14  and  O_15
REMARK    7  A    between atoms: O_15  and  C_16
REMARK                            x       y       z     vdW  Elec       q    Type
REMARK                         _______ _______ _______ _____ _____    ______ ____
ROOT
ATOM      1  C   UNL     1       0.706  -0.497  -1.236  0.00  0.00    +0.206 C 
ATOM      2  O   UNL     1       1.888  -0.767  -1.196  0.00  0.00    -0.277 OA
ATOM      3  N   UNL     1       0.026  -0.622  -2.393  0.00  0.00    -0.284 N 
ATOM      4  H   UNL     1      -0.932  -0.468  -2.411  0.00  0.00    +0.155 HD
ENDROOT
BRANCH   3   5
ATOM      5  C   UNL     1       0.702  -0.972  -3.569  0.00  0.00    +0.078 A 
ATOM      6  C   UNL     1       1.780  -1.844  -3.518  0.00  0.00    +0.047 A 
ATOM      7  C   UNL     1       2.446  -2.189  -4.680  0.00  0.00    +0.044 A 
ATOM      8  C   UNL     1       2.039  -1.666  -5.895  0.00  0.00    +0.039 A 
ATOM      9  C   UNL     1       0.965  -0.797  -5.953  0.00  0.00    +0.063 A 
ATOM     10  C   UNL     1       0.289  -0.451  -4.793  0.00  0.00    +0.162 A 
ATOM     11 BR   UNL     1       0.413  -0.085  -7.616  0.00  0.00    -0.046 Br
ATOM     12 CL   UNL     1       3.795  -3.279  -4.614  0.00  0.00    -0.083 Cl
BRANCH  10  13
ATOM     13  O   UNL     1      -0.771   0.399  -4.849  0.00  0.00    -0.431 OA
BRANCH  13  14
ATOM     14  C   UNL     1      -0.491   1.794  -4.720  0.00  0.00    +0.541 C 
ATOM     15  F   UNL     1       0.119   2.035  -3.483  0.00  0.00    -0.166 F 
ATOM     16  F   UNL     1       0.368   2.195  -5.749  0.00  0.00    -0.166 F 
ENDBRANCH  13  14
ENDBRANCH  10  13
ENDBRANCH   3   5
BRANCH   1  18
ATOM     17  C   UNL     1      -0.027   1.505   0.028  0.00  0.00    -0.001 C 
ATOM     18  C   UNL     1      -0.002  -0.024   0.007  0.00  0.00    +0.007 C 
BRANCH  18  19
ATOM     19  N   UNL     1      -1.378  -0.537   0.012  0.00  0.00    +0.388 N 
ATOM     20  H   UNL     1      -1.867  -0.198  -0.803  0.00  0.00    -0.089 HD
ATOM     21  H   UNL     1      -1.361  -1.546  -0.002  0.00  0.00    -0.089 HD
ATOM     22  H   UNL     1      -1.852  -0.221   0.845  0.00  0.00    -0.089 HD
ENDBRANCH  18  19
BRANCH  18  23
ATOM     23  C   UNL     1       0.739  -0.539   1.243  0.00  0.00    -0.014 C 
ATOM     24  C   UNL     1       0.038  -1.597   2.097  0.00  0.00    +0.003 C 
ATOM     25  C   UNL     1       0.173  -0.163   2.614  0.00  0.00    +0.003 C 
ENDBRANCH  18  23
ENDBRANCH   1  18
TORSDOF 6
