REMARK  Name = ZINC28048907
REMARK  5 active torsions:
REMARK  status: ('A' for Active; 'I' for Inactive)
REMARK    1  A    between atoms: C_8  and  N_12
REMARK    2  A    between atoms: C_9  and  O_10
REMARK    3  A    between atoms: N_15  and  C_16
REMARK    4  A    between atoms: C_16  and  C_17
REMARK    5  A    between atoms: N_23  and  C_24
REMARK                            x       y       z     vdW  Elec       q    Type
REMARK                         _______ _______ _______ _____ _____    ______ ____
ROOT
ATOM      1  C   UNL     1      -0.889   2.474   1.668  0.00  0.00    +0.001 A 
ATOM      2  C   UNL     1      -1.060   1.463   0.733  0.00  0.00    +0.004 A 
ATOM      3  C   UNL     1      -0.044   1.133  -0.138  0.00  0.00    +0.047 A 
ATOM      4  C   UNL     1       1.161   1.823  -0.094  0.00  0.00    +0.141 A 
ATOM      5  C   UNL     1       1.331   2.851   0.848  0.00  0.00    +0.042 A 
ATOM      6  C   UNL     1       0.297   3.171   1.729  0.00  0.00    +0.013 A 
ATOM      7  C   UNL     1       2.611   3.576   0.886  0.00  0.00    +0.075 A 
ATOM      8  C   UNL     1       3.592   3.205  -0.016  0.00  0.00    +0.140 A 
ATOM      9  C   UNL     1       3.337   2.163  -0.926  0.00  0.00    +0.309 A 
ATOM     10  O   UNL     1       2.163   1.514  -0.945  0.00  0.00    -0.424 OA
ATOM     11  N   UNL     1       2.826   4.595   1.795  0.00  0.00    -0.380 N 
ATOM     12  H   UNL     1       2.180   5.484   1.788  0.00  0.00    +0.160 HD
ENDROOT
BRANCH   8  13
ATOM     13  N   UNL     1       4.835   3.865  -0.024  0.00  0.00    -0.262 N 
ATOM     14  C   UNL     1       5.948   3.210   0.361  0.00  0.00    +0.304 C 
ATOM     15  O   UNL     1       5.894   2.025   0.629  0.00  0.00    -0.253 OA
ATOM     16  N   UNL     1       7.121   3.868   0.450  0.00  0.00    -0.297 N 
ATOM     17  H   UNL     1       4.898   4.915  -0.344  0.00  0.00    +0.157 HD
ATOM     18  H   UNL     1       7.170   4.940   0.207  0.00  0.00    +0.150 HD
BRANCH  16  19
ATOM     19  C   UNL     1       8.331   3.156   0.868  0.00  0.00    +0.137 C 
BRANCH  19  20
ATOM     20  C   UNL     1       9.514   4.126   0.885  0.00  0.00    +0.135 C 
ATOM     21  C   UNL     1      10.792   3.386   1.324  0.00  0.00    +0.035 C 
ATOM     22  C   UNL     1      11.769   3.581   0.139  0.00  0.00    +0.031 C 
ATOM     23  C   UNL     1      11.173   4.822  -0.573  0.00  0.00    +0.160 C 
ATOM     24  O   UNL     1       9.748   4.635  -0.439  0.00  0.00    -0.375 OA
ENDBRANCH  19  20
ENDBRANCH  16  19
ENDBRANCH   8  13
BRANCH  11  25
ATOM     25  C   UNL     1       3.963   4.285   2.674  0.00  0.00    +0.079 C 
ATOM     26  C   UNL     1       3.483   3.466   3.889  0.00  0.00    +0.024 C 
ATOM     27  C   UNL     1       4.341   3.996   5.066  0.00  0.00    +0.002 C 
ATOM     28  C   UNL     1       4.435   5.512   4.765  0.00  0.00    +0.002 C 
ATOM     29  C   UNL     1       4.568   5.586   3.230  0.00  0.00    +0.024 C 
ENDBRANCH  11  25
BRANCH   9  30
ATOM     30  O   UNL     1       4.206   1.841  -1.718  0.00  0.00    -0.479 OA
ATOM     31  H   UNL     1       4.022   1.029  -2.436  0.00  0.00    +0.295 HD
ENDBRANCH   9  30
TORSDOF 5
