REMARK  Name = ZINC08901430
REMARK  10 active torsions:
REMARK  status: ('A' for Active; 'I' for Inactive)
REMARK    1  A    between atoms: C_1  and  C_2
REMARK    2  A    between atoms: C_4  and  O_27
REMARK    3  A    between atoms: C_5  and  S_9
REMARK    4  A    between atoms: C_7  and  C_8
REMARK    5  A    between atoms: S_9  and  N_12
REMARK    6  A    between atoms: N_12  and  C_13
REMARK    7  A    between atoms: C_13  and  C_14
REMARK    8  A    between atoms: C_14  and  C_16
REMARK    9  A    between atoms: C_14  and  N_58
REMARK   10  A    between atoms: O_27  and  C_28
REMARK                            x       y       z     vdW  Elec       q    Type
REMARK                         _______ _______ _______ _____ _____    ______ ____
ROOT
ATOM      1  N   UNL     1      -0.760   2.003  -1.002  0.00  0.00    -0.191 NA
ATOM      2  H   UNL     1      -1.695   1.758  -0.921  0.00  0.00    +0.148 HD
ENDROOT
BRANCH   1   3
ATOM      3  S   UNL     1      -0.221   2.768  -2.368  0.00  0.00    +0.062 S 
ATOM      4  O   UNL     1      -1.342   2.897  -3.231  0.00  0.00    -0.153 OA
ATOM      5  O   UNL     1       0.539   3.887  -1.933  0.00  0.00    -0.153 OA
BRANCH   3  10
ATOM      6  C   UNL     1       3.638  -0.980  -5.109  0.00  0.00    +0.044 C 
ATOM      7  C   UNL     1       2.677  -0.045  -4.422  0.00  0.00    -0.044 A 
ATOM      8  C   UNL     1       2.985   0.471  -3.178  0.00  0.00    +0.051 A 
ATOM      9  C   UNL     1       2.100   1.333  -2.547  0.00  0.00    +0.147 A 
ATOM     10  C   UNL     1       0.906   1.674  -3.167  0.00  0.00    +0.147 A 
ATOM     11  C   UNL     1       0.600   1.151  -4.407  0.00  0.00    +0.036 A 
ATOM     12  C   UNL     1       1.487   0.297  -5.038  0.00  0.00    -0.045 A 
ATOM     13  C   UNL     1       1.153  -0.267  -6.395  0.00  0.00    +0.044 C 
BRANCH   9  14
ATOM     14  O   UNL     1       2.402   1.842  -1.323  0.00  0.00    -0.493 OA
ATOM     15  C   UNL     1       3.648   1.448  -0.746  0.00  0.00    +0.277 C 
ENDBRANCH   9  14
ENDBRANCH   3  10
ENDBRANCH   1   3
BRANCH   1  16
ATOM     16  C   UNL     1       0.174   1.697   0.084  0.00  0.00    +0.095 C 
BRANCH  16  17
ATOM     17  C   UNL     1      -0.597   1.564   1.399  0.00  0.00    -0.021 C 
BRANCH  17  24
ATOM     18  C   UNL     1      -1.091   3.078   3.234  0.00  0.00    -0.078 C 
ATOM     19  C   UNL     1      -1.892   4.266   3.692  0.00  0.00    -0.019 C 
ATOM     20  C   UNL     1      -3.296   3.780   4.107  0.00  0.00    -0.002 C 
ATOM     21  C   UNL     1      -4.159   3.542   2.956  0.00  0.00    -0.002 C 
ATOM     22  C   UNL     1      -3.597   2.449   2.023  0.00  0.00    -0.019 C 
ATOM     23  C   UNL     1      -2.505   3.054   1.183  0.00  0.00    -0.078 C 
ATOM     24  N   UNL     1      -1.119   2.896   1.743  0.00  0.00    +0.385 N 
ATOM     25  H   UNL     1      -0.515   3.609   1.318  0.00  0.00    -0.081 HD
ENDBRANCH  17  24
BRANCH  17  26
ATOM     26  C   UNL     1       0.336   1.091   2.483  0.00  0.00    -0.053 A 
ATOM     27  C   UNL     1       0.113  -0.112   3.126  0.00  0.00    +0.009 A 
ATOM     28  C   UNL     1       0.975  -0.511   4.093  0.00  0.00    +0.045 A 
ATOM     29  S   UNL     1       2.140   0.841   4.129  0.00  0.00    -0.105 S 
ATOM     30  C   UNL     1       1.404   1.842   2.847  0.00  0.00    +0.047 A 
ENDBRANCH  17  26
ENDBRANCH  16  17
ENDBRANCH   1  16
TORSDOF 7
