REMARK  Name = ZINC35465810
REMARK  14 active torsions:
REMARK  status: ('A' for Active; 'I' for Inactive)
REMARK    1  A    between atoms: C_1  and  C_2
REMARK    2  A    between atoms: C_2  and  C_23
REMARK    3  A    between atoms: C_6  and  C_22
REMARK    4  A    between atoms: C_11  and  C_20
REMARK    5  A    between atoms: C_11  and  O_21
REMARK    6  A    between atoms: C_12  and  C_14
REMARK    7  A    between atoms: C_14  and  C_15
REMARK    8  A    between atoms: C_15  and  C_16
REMARK    9  A    between atoms: C_16  and  C_18
REMARK   10  A    between atoms: C_23  and  O_24
REMARK   11  A    between atoms: O_24  and  C_25
REMARK   12  A    between atoms: C_25  and  C_27
REMARK   13  A    between atoms: C_28  and  C_29
REMARK   14  A    between atoms: C_32  and  O_35
REMARK                            x       y       z     vdW  Elec       q    Type
REMARK                         _______ _______ _______ _____ _____    ______ ____
ROOT
ATOM      1  C   UNL     1       2.757   2.465   0.516  0.00  0.00    +0.015 C 
ATOM      2  C   UNL     1       2.644   0.943   0.586  0.00  0.00    +0.005 C 
ATOM      3  C   UNL     1       1.221   0.508   0.239  0.00  0.00    +0.010 C 
ATOM      4  C   UNL     1       0.260   0.717   1.404  0.00  0.00    +0.001 C 
ATOM      5  C   UNL     1       0.759  -0.070   2.619  0.00  0.00    +0.007 C 
ATOM      6  C   UNL     1       2.118   0.485   3.058  0.00  0.00    -0.023 C 
ATOM      7  C   UNL     1       3.110   0.380   1.913  0.00  0.00    +0.005 C 
ATOM      8  C   UNL     1       4.462   0.951   2.341  0.00  0.00    +0.007 C 
ATOM      9  C   UNL     1       5.005   0.086   3.483  0.00  0.00    +0.035 C 
ATOM     10  C   UNL     1       4.048   0.090   4.670  0.00  0.00    +0.067 C 
ATOM     11  C   UNL     1       2.627  -0.293   4.273  0.00  0.00    +0.027 C 
ATOM     12  C   UNL     1       4.553  -0.942   5.697  0.00  0.00    +0.041 C 
ATOM     13  C   UNL     1       1.907   1.941   3.499  0.00  0.00    +0.012 C 
ENDROOT
BRANCH  10  14
ATOM     14  O   UNL     1       4.067   1.374   5.301  0.00  0.00    -0.389 OA
ATOM     15  H   UNL     1       4.936   1.633   5.637  0.00  0.00    +0.210 HD
ENDBRANCH  10  14
BRANCH  11  16
ATOM     16  C   UNL     1       2.555  -1.802   4.041  0.00  0.00    +0.011 C 
BRANCH  16  17
ATOM     17  C   UNL     1       1.177  -2.318   4.461  0.00  0.00    +0.035 C 
BRANCH  17  18
ATOM     18  C   UNL     1       1.159  -3.823   4.385  0.00  0.00    -0.055 C 
ATOM     19  C   UNL     1       1.402  -4.546   5.473  0.00  0.00    +0.012 C 
BRANCH  18  20
ATOM     20  C   UNL     1       0.873  -4.492   3.107  0.00  0.00    -0.005 C 
ATOM     21  C   UNL     1       0.739  -3.774   1.996  0.00  0.00    +0.009 C 
ENDBRANCH  18  20
ENDBRANCH  17  18
ENDBRANCH  16  17
ENDBRANCH  11  16
BRANCH   2  22
ATOM     22  C   UNL     1       3.560   0.369  -0.524  0.00  0.00    +0.239 C 
BRANCH  22  23
ATOM     23  O   UNL     1       3.123   0.850  -1.797  0.00  0.00    -0.461 OA
BRANCH  23  24
ATOM     24  C   UNL     1       3.820   0.441  -2.878  0.00  0.00    +0.332 C 
ATOM     25  O   UNL     1       4.771  -0.305  -2.742  0.00  0.00    -0.246 OA
BRANCH  24  26
ATOM     26  C   UNL     1       3.442   0.879  -4.173  0.00  0.00    +0.092 C 
ATOM     27  C   UNL     1       4.054   0.369  -5.264  0.00  0.00    +0.015 C 
BRANCH  27  28
ATOM     28  C   UNL     1       4.867  -0.849  -5.148  0.00  0.00    -0.025 A 
ATOM     29  C   UNL     1       4.399  -1.938  -4.404  0.00  0.00    +0.011 A 
ATOM     30  C   UNL     1       5.165  -3.077  -4.298  0.00  0.00    +0.046 A 
ATOM     31  C   UNL     1       6.402  -3.147  -4.930  0.00  0.00    +0.117 A 
ATOM     32  C   UNL     1       6.871  -2.068  -5.670  0.00  0.00    +0.046 A 
ATOM     33  C   UNL     1       6.110  -0.927  -5.787  0.00  0.00    +0.011 A 
BRANCH  31  34
ATOM     34  O   UNL     1       7.153  -4.272  -4.822  0.00  0.00    -0.507 OA
ATOM     35  H   UNL     1       6.983  -4.926  -5.514  0.00  0.00    +0.292 HD
ENDBRANCH  31  34
ENDBRANCH  27  28
ENDBRANCH  24  26
ENDBRANCH  23  24
ENDBRANCH  22  23
ENDBRANCH   2  22
TORSDOF 11
