REMARK  Name = ZINC40134586
REMARK  6 active torsions:
REMARK  status: ('A' for Active; 'I' for Inactive)
REMARK    1  A    between atoms: C_3  and  C_7
REMARK    2  A    between atoms: C_10  and  S_12
REMARK    3  A    between atoms: S_12  and  C_13
REMARK    4  A    between atoms: C_13  and  C_14
REMARK    5  A    between atoms: C_14  and  S_15
REMARK    6  A    between atoms: S_15  and  C_17
REMARK                            x       y       z     vdW  Elec       q    Type
REMARK                         _______ _______ _______ _____ _____    ______ ____
ROOT
ATOM      1  S   UNL     1       7.111  -0.940  -0.082  0.00  0.00    -0.065 S 
ENDROOT
BRANCH   1   5
ATOM      2  C   UNL     1       3.585   0.680  -0.029  0.00  0.00    +0.265 A 
ATOM      3  N   UNL     1       4.367   1.735  -0.025  0.00  0.00    -0.105 NA
ATOM      4  N   UNL     1       5.596   1.355  -0.042  0.00  0.00    -0.101 NA
ATOM      5  C   UNL     1       5.649   0.044  -0.056  0.00  0.00    +0.278 A 
ATOM      6  O   UNL     1       4.381  -0.412  -0.042  0.00  0.00    -0.410 OA
BRANCH   2   9
ATOM      7  C   UNL     1      -0.016   1.347   0.009  0.00  0.00    +0.020 A 
ATOM      8  C   UNL     1       1.314   1.793  -0.001  0.00  0.00    +0.032 A 
ATOM      9  C   UNL     1       2.114   0.686  -0.014  0.00  0.00    +0.104 A 
ATOM     10  N   UNL     1       1.300  -0.420  -0.013  0.00  0.00    -0.357 N 
ATOM     11  H   UNL     1       1.599  -1.343  -0.020  0.00  0.00    +0.165 HD
ATOM     12  C   UNL     1       0.002  -0.004   0.002  0.00  0.00    +0.083 A 
ENDBRANCH   2   9
ENDBRANCH   1   5
BRANCH   1  13
ATOM     13  C   UNL     1       8.457   0.275  -0.082  0.00  0.00    +0.092 C 
BRANCH  13  14
ATOM     14  C   UNL     1       9.802  -0.454  -0.104  0.00  0.00    +0.120 C 
BRANCH  14  15
ATOM     15  S   UNL     1      11.149   0.761  -0.104  0.00  0.00    +0.056 S 
ATOM     16  O   UNL     1      11.197   1.415   1.156  0.00  0.00    -0.252 OA
BRANCH  15  17
ATOM     17  C   UNL     1      12.611  -0.223  -0.130  0.00  0.00    +0.058 A 
ATOM     18  C   UNL     1      13.233  -0.505  -1.331  0.00  0.00    +0.038 A 
ATOM     19  C   UNL     1      14.381  -1.277  -1.351  0.00  0.00    +0.042 A 
ATOM     20  C   UNL     1      14.905  -1.768  -0.169  0.00  0.00    +0.021 A 
ATOM     21  C   UNL     1      14.283  -1.486   1.033  0.00  0.00    +0.022 A 
ATOM     22  C   UNL     1      13.138  -0.709   1.053  0.00  0.00    +0.057 A 
ATOM     23 CL   UNL     1      12.361  -0.349   2.563  0.00  0.00    -0.082 Cl
ATOM     24 CL   UNL     1      15.162  -1.631  -2.860  0.00  0.00    -0.084 Cl
ENDBRANCH  15  17
ENDBRANCH  14  15
ENDBRANCH  13  14
ENDBRANCH   1  13
TORSDOF 6
