REMARK  Name = ZINC12247034
REMARK  11 active torsions:
REMARK  status: ('A' for Active; 'I' for Inactive)
REMARK    1  A    between atoms: C_1  and  N_76
REMARK    2  A    between atoms: C_2  and  N_76
REMARK    3  A    between atoms: C_3  and  C_4
REMARK    4  A    between atoms: C_3  and  N_76
REMARK    5  A    between atoms: C_4  and  N_5
REMARK    6  A    between atoms: N_5  and  C_6
REMARK    7  A    between atoms: C_6  and  C_7
REMARK    8  A    between atoms: C_13  and  C_15
REMARK    9  A    between atoms: N_18  and  C_21
REMARK   10  A    between atoms: N_29  and  C_32
REMARK   11  A    between atoms: C_32  and  C_33
REMARK                            x       y       z     vdW  Elec       q    Type
REMARK                         _______ _______ _______ _____ _____    ______ ____
ROOT
ATOM      1  C   UNL     1      -2.291  -0.066   0.618  0.00  0.00    +0.078 C 
ATOM      2  C   UNL     1      -2.439   0.456  -0.814  0.00  0.00    +0.031 C 
ATOM      3  C   UNL     1      -3.045  -0.642  -1.692  0.00  0.00    +0.106 C 
ATOM      4  N   UNL     1      -4.355  -1.033  -1.155  0.00  0.00    -0.329 N 
ATOM      5  C   UNL     1      -4.231  -1.581   0.201  0.00  0.00    +0.106 C 
ATOM      6  C   UNL     1      -3.662  -0.511   1.135  0.00  0.00    +0.031 C 
ENDROOT
BRANCH   4   7
ATOM      7  C   UNL     1      -4.989  -1.933  -1.999  0.00  0.00    +0.043 A 
ATOM      8  C   UNL     1      -4.284  -2.534  -3.045  0.00  0.00    +0.024 A 
ATOM      9  C   UNL     1      -4.912  -3.428  -3.885  0.00  0.00    +0.003 A 
ATOM     10  C   UNL     1      -6.252  -3.745  -3.706  0.00  0.00    +0.014 A 
ATOM     11  C   UNL     1      -6.969  -3.161  -2.677  0.00  0.00    +0.051 A 
ATOM     12  C   UNL     1      -6.333  -2.248  -1.807  0.00  0.00    +0.070 A 
ATOM     13  C   UNL     1      -7.361  -1.829  -0.839  0.00  0.00    +0.256 C 
ATOM     14  O   UNL     1      -7.197  -1.042   0.071  0.00  0.00    -0.269 OA
ATOM     15  N   UNL     1      -8.510  -2.465  -1.129  0.00  0.00    -0.232 N 
ATOM     16  C   UNL     1      -8.365  -3.261  -2.204  0.00  0.00    +0.254 C 
ATOM     17  O   UNL     1      -9.232  -3.955  -2.695  0.00  0.00    -0.270 OA
BRANCH  15  18
ATOM     18  C   UNL     1      -9.759  -2.301  -0.381  0.00  0.00    +0.148 C 
BRANCH  18  19
ATOM     19  C   UNL     1     -10.574  -1.159  -0.992  0.00  0.00    +0.136 C 
ATOM     20  C   UNL     1     -11.867  -0.922  -0.172  0.00  0.00    +0.035 C 
ATOM     21  C   UNL     1     -12.162   0.565  -0.511  0.00  0.00    +0.031 C 
ATOM     22  C   UNL     1     -10.743   1.159  -0.644  0.00  0.00    +0.160 C 
ATOM     23  O   UNL     1      -9.844   0.075  -0.907  0.00  0.00    -0.375 OA
ENDBRANCH  18  19
ENDBRANCH  15  18
ENDBRANCH   4   7
BRANCH   1  25
ATOM     24  N   UNL     1      -0.498   1.489   1.315  0.00  0.00    -0.299 N 
ATOM     25  C   UNL     1      -1.752   1.030   1.500  0.00  0.00    +0.219 C 
ATOM     26  O   UNL     1      -2.446   1.500   2.376  0.00  0.00    -0.275 OA
BRANCH  24  27
ATOM     27  C   UNL     1      -0.011   2.626   2.099  0.00  0.00    +0.089 C 
BRANCH  27  28
ATOM     28  C   UNL     1       0.507   2.130   3.450  0.00  0.00    -0.060 C 
BRANCH  28  31
ATOM     29  C   UNL     1       0.077   4.244   4.550  0.00  0.00    -0.097 C 
ATOM     30  C   UNL     1       1.816   2.778   5.381  0.00  0.00    -0.097 C 
ATOM     31  N   UNL     1       1.119   3.265   4.173  0.00  0.00    +0.377 N 
ATOM     32  H   UNL     1       1.800   3.724   3.557  0.00  0.00    -0.083 HD
ENDBRANCH  28  31
ENDBRANCH  27  28
ENDBRANCH  24  27
BRANCH  24  33
ATOM     33  C   UNL     1       0.378   0.850   0.329  0.00  0.00    +0.142 C 
BRANCH  33  34
ATOM     34  C   UNL     1       1.271  -0.147   1.022  0.00  0.00    -0.030 A 
ATOM     35  C   UNL     1       2.433   0.278   1.638  0.00  0.00    +0.005 A 
ATOM     36  C   UNL     1       3.250  -0.636   2.278  0.00  0.00    +0.000 A 
ATOM     37  C   UNL     1       2.909  -1.975   2.294  0.00  0.00    +0.000 A 
ATOM     38  C   UNL     1       1.749  -2.401   1.674  0.00  0.00    +0.000 A 
ATOM     39  C   UNL     1       0.930  -1.487   1.038  0.00  0.00    +0.005 A 
ENDBRANCH  33  34
ENDBRANCH  24  33
ENDBRANCH   1  25
TORSDOF 9
