REMARK  Name = ZINC13127592
REMARK  7 active torsions:
REMARK  status: ('A' for Active; 'I' for Inactive)
REMARK    1  A    between atoms: C_3  and  C_6
REMARK    2  A    between atoms: C_6  and  N_7
REMARK    3  A    between atoms: C_8  and  C_24
REMARK    4  A    between atoms: C_11  and  S_12
REMARK    5  A    between atoms: S_12  and  C_13
REMARK    6  A    between atoms: C_13  and  C_14
REMARK    7  A    between atoms: C_17  and  C_19
REMARK                            x       y       z     vdW  Elec       q    Type
REMARK                         _______ _______ _______ _____ _____    ______ ____
ROOT
ATOM      1  N   UNL     1      -1.040  -0.785  -0.036  0.00  0.00    -0.295 N 
ATOM      2  C   UNL     1      -0.507  -2.053  -0.004  0.00  0.00    +0.165 A 
ATOM      3  N   UNL     1       0.794  -1.922   0.107  0.00  0.00    -0.128 NA
ATOM      4  N   UNL     1       1.108  -0.676   0.141  0.00  0.00    -0.122 NA
ATOM      5  C   UNL     1       0.025   0.065   0.063  0.00  0.00    +0.193 A 
ENDROOT
BRANCH   2   6
ATOM      6  C   UNL     1      -1.259  -3.324  -0.080  0.00  0.00    +0.019 A 
ATOM      7  C   UNL     1      -0.652  -4.521   0.306  0.00  0.00    +0.013 A 
ATOM      8  C   UNL     1      -1.360  -5.703   0.238  0.00  0.00    +0.021 A 
ATOM      9  C   UNL     1      -2.666  -5.705  -0.223  0.00  0.00    +0.041 A 
ATOM     10  C   UNL     1      -3.271  -4.522  -0.613  0.00  0.00    +0.021 A 
ATOM     11  C   UNL     1      -2.575  -3.333  -0.544  0.00  0.00    +0.013 A 
ATOM     12 CL   UNL     1      -3.548  -7.198  -0.313  0.00  0.00    -0.084 Cl
ENDBRANCH   2   6
BRANCH   1  13
ATOM     13  C   UNL     1      -2.455  -0.422  -0.151  0.00  0.00    +0.200 C 
BRANCH  13  16
ATOM     14  C   UNL     1      -3.460  -0.287  -3.694  0.00  0.00    +0.041 A 
ATOM     15  C   UNL     1      -3.326  -0.982  -2.470  0.00  0.00    +0.046 A 
ATOM     16  C   UNL     1      -2.781  -0.122  -1.591  0.00  0.00    +0.125 A 
ATOM     17  O   UNL     1      -2.570   1.048  -2.217  0.00  0.00    -0.466 OA
ATOM     18  C   UNL     1      -2.980   0.953  -3.493  0.00  0.00    +0.195 A 
ENDBRANCH  13  16
ENDBRANCH   1  13
BRANCH   5  19
ATOM     19  S   UNL     1      -0.041   1.825   0.075  0.00  0.00    -0.077 S 
BRANCH  19  20
ATOM     20  C   UNL     1       1.722   2.204   0.227  0.00  0.00    +0.173 C 
BRANCH  20  21
ATOM     21  C   UNL     1       1.914   3.699   0.259  0.00  0.00    +0.230 C 
ATOM     22  O   UNL     1       0.953   4.435   0.185  0.00  0.00    -0.274 OA
ATOM     23  N   UNL     1       3.153   4.217   0.368  0.00  0.00    -0.251 N 
ATOM     24  C   UNL     1       3.324   5.554   0.396  0.00  0.00    +0.257 C 
ATOM     25  O   UNL     1       2.360   6.292   0.322  0.00  0.00    -0.269 OA
ATOM     26  H   UNL     1       3.921   3.628   0.427  0.00  0.00    +0.158 HD
BRANCH  24  27
ATOM     27  C   UNL     1       4.671   6.117   0.515  0.00  0.00    +0.074 A 
ATOM     28  C   UNL     1       5.062   7.447   0.556  0.00  0.00    +0.021 A 
ATOM     29  C   UNL     1       6.405   7.700   0.678  0.00  0.00    +0.008 A 
ATOM     30  C   UNL     1       7.274   6.657   0.740  0.00  0.00    +0.046 A 
ATOM     31  S   UNL     1       6.237   5.271   0.638  0.00  0.00    -0.092 S 
ENDBRANCH  24  27
ENDBRANCH  20  21
ENDBRANCH  19  20
ENDBRANCH   5  19
TORSDOF 7
