REMARK  Name = ZINC02316390
REMARK  6 active torsions:
REMARK  status: ('A' for Active; 'I' for Inactive)
REMARK    1  A    between atoms: C_3  and  C_6
REMARK    2  A    between atoms: C_6  and  C_7
REMARK    3  A    between atoms: N_9  and  C_10
REMARK    4  A    between atoms: C_10  and  N_12
REMARK    5  A    between atoms: N_12  and  C_13
REMARK    6  A    between atoms: C_14  and  C_22
REMARK                            x       y       z     vdW  Elec       q    Type
REMARK                         _______ _______ _______ _____ _____    ______ ____
ROOT
ATOM      1  N   UNL     1      -1.963   6.946  -1.642  0.00  0.00    -0.290 N 
ATOM      2  H   UNL     1      -1.978   7.651  -0.976  0.00  0.00    +0.154 HD
ENDROOT
BRANCH   1   3
ATOM      3  C   UNL     1      -1.620   5.653  -1.275  0.00  0.00    +0.089 A 
ATOM      4  C   UNL     1      -1.270   5.178  -0.019  0.00  0.00    +0.084 A 
ATOM      5  C   UNL     1      -0.951   3.765   0.100  0.00  0.00    -0.018 A 
ATOM      6  C   UNL     1      -1.032   3.059  -1.049  0.00  0.00    -0.004 A 
ATOM      7  S   UNL     1      -1.523   4.240  -2.273  0.00  0.00    -0.077 S 
ATOM      8  C   UNL     1      -0.761   1.597  -1.232  0.00  0.00    +0.043 C 
ATOM      9  C   UNL     1      -0.013   1.086   0.008  0.00  0.00    +0.005 C 
ATOM     10  C   UNL     1      -0.735   1.583   1.264  0.00  0.00    +0.005 C 
ATOM     11  C   UNL     1      -0.551   3.094   1.407  0.00  0.00    +0.037 C 
BRANCH   4  12
ATOM     12  C   UNL     1      -1.226   6.047   1.118  0.00  0.00    +0.102 C 
ATOM     13  N   UNL     1      -1.191   6.737   2.020  0.00  0.00    -0.191 NA
ENDBRANCH   4  12
ENDBRANCH   1   3
BRANCH   1  14
ATOM     14  C   UNL     1      -2.277   7.222  -2.923  0.00  0.00    +0.141 C 
ATOM     15  S   UNL     1      -2.251   5.976  -4.098  0.00  0.00    -0.018 S 
BRANCH  14  18
ATOM     16  C   UNL     1      -2.923   8.754  -4.561  0.00  0.00    +0.223 C 
ATOM     17  O   UNL     1      -2.905   7.872  -5.393  0.00  0.00    -0.275 OA
ATOM     18  N   UNL     1      -2.610   8.478  -3.280  0.00  0.00    -0.267 N 
ATOM     19  H   UNL     1      -2.624   9.183  -2.615  0.00  0.00    +0.157 HD
BRANCH  16  20
ATOM     20  C   UNL     1      -3.296  10.158  -4.960  0.00  0.00    +0.138 C 
BRANCH  20  23
ATOM     21  C   UNL     1      -4.824  10.092  -8.449  0.00  0.00    +0.008 A 
ATOM     22  C   UNL     1      -4.781  10.004  -7.071  0.00  0.00    +0.011 A 
ATOM     23  C   UNL     1      -3.599  10.198  -6.436  0.00  0.00    -0.001 A 
ATOM     24  S   UNL     1      -2.492  10.505  -7.803  0.00  0.00    -0.101 S 
ATOM     25  C   UNL     1      -3.681  10.361  -9.127  0.00  0.00    +0.045 A 
ENDBRANCH  20  23
ENDBRANCH  16  20
ENDBRANCH  14  18
ENDBRANCH   1  14
TORSDOF 6
