REMARK  Name = ZINC13881112
REMARK  10 active torsions:
REMARK  status: ('A' for Active; 'I' for Inactive)
REMARK    1  A    between atoms: C_1  and  C_2
REMARK    2  A    between atoms: C_2  and  O_3
REMARK    3  A    between atoms: O_3  and  C_4
REMARK    4  A    between atoms: C_7  and  N_10
REMARK    5  A    between atoms: C_16  and  C_17
REMARK    6  A    between atoms: C_19  and  C_33
REMARK    7  A    between atoms: N_20  and  C_23
REMARK    8  A    between atoms: C_21  and  C_22
REMARK    9  A    between atoms: C_26  and  S_29
REMARK   10  A    between atoms: S_29  and  N_32
REMARK                            x       y       z     vdW  Elec       q    Type
REMARK                         _______ _______ _______ _____ _____    ______ ____
ROOT
ATOM      1  C   UNL     1       6.921  -5.959   3.318  0.00  0.00    -0.003 A 
ATOM      2  C   UNL     1       6.481  -4.577   3.092  0.00  0.00    +0.031 A 
ATOM      3  C   UNL     1       7.549  -3.792   3.315  0.00  0.00    +0.022 A 
ATOM      4  N   UNL     1       8.616  -4.574   3.660  0.00  0.00    -0.317 N 
ATOM      5  C   UNL     1       8.253  -5.882   3.672  0.00  0.00    +0.028 A 
ATOM      6  C   UNL     1       9.149  -7.046   4.009  0.00  0.00    +0.064 C 
ATOM      7  C   UNL     1       7.568  -2.290   3.202  0.00  0.00    +0.064 C 
ENDROOT
BRANCH   1  14
ATOM      8  N   UNL     1       1.134  -5.929   1.750  0.00  0.00    -0.226 NA
ATOM      9  C   UNL     1       2.282  -6.461   2.104  0.00  0.00    +0.166 C 
ATOM     10  N   UNL     1       2.588  -7.791   2.296  0.00  0.00    -0.260 N 
ATOM     11  C   UNL     1       3.807  -8.156   2.655  0.00  0.00    +0.256 C 
ATOM     12  O   UNL     1       4.095  -9.327   2.829  0.00  0.00    -0.269 OA
ATOM     13  C   UNL     1       4.801  -7.085   2.837  0.00  0.00    +0.078 C 
ATOM     14  C   UNL     1       6.108  -7.175   3.197  0.00  0.00    +0.030 C 
ATOM     15  S   UNL     1       3.829  -5.638   2.447  0.00  0.00    -0.049 S 
ATOM     16  H   UNL     1       1.903  -8.465   2.166  0.00  0.00    +0.157 HD
BRANCH   8  20
ATOM     17  C   UNL     1       0.802  -1.825   1.306  0.00  0.00    +0.121 A 
ATOM     18  C   UNL     1       0.258  -2.671   0.349  0.00  0.00    +0.048 A 
ATOM     19  C   UNL     1       0.367  -4.038   0.493  0.00  0.00    +0.031 A 
ATOM     20  C   UNL     1       1.025  -4.572   1.603  0.00  0.00    +0.067 A 
ATOM     21  C   UNL     1       1.570  -3.717   2.563  0.00  0.00    +0.031 A 
ATOM     22  C   UNL     1       1.462  -2.350   2.408  0.00  0.00    +0.048 A 
BRANCH  17  23
ATOM     23  O   UNL     1       0.693  -0.477   1.160  0.00  0.00    -0.492 OA
BRANCH  23  25
ATOM     24  C   UNL     1      -0.019   1.526   0.010  0.00  0.00    +0.048 C 
ATOM     25  C   UNL     1       0.002  -0.004   0.002  0.00  0.00    +0.225 C 
ENDBRANCH  23  25
ENDBRANCH  17  23
ENDBRANCH   8  20
ENDBRANCH   1  14
BRANCH   4  26
ATOM     26  C   UNL     1       9.897  -4.094   3.963  0.00  0.00    +0.047 A 
ATOM     27  C   UNL     1      10.970  -4.408   3.141  0.00  0.00    +0.028 A 
ATOM     28  C   UNL     1      12.232  -3.933   3.442  0.00  0.00    +0.030 A 
ATOM     29  C   UNL     1      12.426  -3.146   4.562  0.00  0.00    +0.105 A 
ATOM     30  C   UNL     1      11.360  -2.832   5.383  0.00  0.00    +0.030 A 
ATOM     31  C   UNL     1      10.095  -3.298   5.084  0.00  0.00    +0.028 A 
BRANCH  29  32
ATOM     32  S   UNL     1      14.037  -2.543   4.943  0.00  0.00    +0.056 S 
ATOM     33  O   UNL     1      14.053  -2.282   6.340  0.00  0.00    -0.153 OA
ATOM     34  O   UNL     1      14.960  -3.428   4.322  0.00  0.00    -0.153 OA
BRANCH  32  35
ATOM     35  N   UNL     1      14.204  -1.079   4.186  0.00  0.00    -0.204 NA
ATOM     36  H   UNL     1      14.773  -0.395   4.573  0.00  0.00    +0.144 HD
ATOM     37  H   UNL     1      13.732  -0.905   3.357  0.00  0.00    +0.144 HD
ENDBRANCH  32  35
ENDBRANCH  29  32
ENDBRANCH   4  26
TORSDOF 7
