REMARK  Name = ZINC28949002
REMARK  10 active torsions:
REMARK  status: ('A' for Active; 'I' for Inactive)
REMARK    1  A    between atoms: C_1  and  O_2
REMARK    2  A    between atoms: O_2  and  C_3
REMARK    3  A    between atoms: C_4  and  O_29
REMARK    4  A    between atoms: C_7  and  C_9
REMARK    5  A    between atoms: C_10  and  C_11
REMARK    6  A    between atoms: C_13  and  C_18
REMARK    7  A    between atoms: C_19  and  C_20
REMARK    8  A    between atoms: C_22  and  O_27
REMARK    9  A    between atoms: C_23  and  O_26
REMARK   10  A    between atoms: O_27  and  C_28
REMARK                            x       y       z     vdW  Elec       q    Type
REMARK                         _______ _______ _______ _____ _____    ______ ____
ROOT
ATOM      1  C   UNL     1      -7.290   0.372   0.054  0.00  0.00    +0.066 A 
ATOM      2  N   UNL     1      -7.237   1.700   0.050  0.00  0.00    -0.248 NA
ATOM      3  C   UNL     1      -8.342   2.438   0.058  0.00  0.00    +0.066 A 
ATOM      4  C   UNL     1      -9.602   1.834   0.071  0.00  0.00    +0.043 A 
ATOM      5  C   UNL     1      -9.691   0.451   0.075  0.00  0.00    +0.022 A 
ATOM      6  C   UNL     1      -8.520  -0.291   0.062  0.00  0.00    +0.043 A 
ATOM      7 BR   UNL     1     -11.376  -0.407   0.093  0.00  0.00    -0.050 Br
ENDROOT
BRANCH   1   9
ATOM      8  C   UNL     1      -4.855   0.224   0.038  0.00  0.00    +0.010 C 
ATOM      9  C   UNL     1      -6.041  -0.407   0.045  0.00  0.00    +0.028 C 
BRANCH   8  14
ATOM     10  C   UNL     1      -1.201  -0.638   0.010  0.00  0.00    +0.162 A 
ATOM     11  C   UNL     1      -1.255  -2.031   0.009  0.00  0.00    +0.158 A 
ATOM     12  C   UNL     1      -2.480  -2.681   0.017  0.00  0.00    +0.050 A 
ATOM     13  C   UNL     1      -3.651  -1.953   0.026  0.00  0.00    +0.012 A 
ATOM     14  C   UNL     1      -3.605  -0.556   0.028  0.00  0.00    -0.021 A 
ATOM     15  C   UNL     1      -2.370   0.099   0.025  0.00  0.00    +0.057 A 
BRANCH  10  17
ATOM     16  C   UNL     1      -0.017   1.425   0.010  0.00  0.00    +0.277 C 
ATOM     17  O   UNL     1       0.002  -0.004   0.002  0.00  0.00    -0.491 OA
ENDBRANCH  10  17
BRANCH  11  18
ATOM     18  O   UNL     1      -0.104  -2.753  -0.001  0.00  0.00    -0.503 OA
ATOM     19  H   UNL     1       0.236  -2.964   0.880  0.00  0.00    +0.292 HD
ENDBRANCH  11  18
ENDBRANCH   8  14
ENDBRANCH   1   9
BRANCH   3  20
ATOM     20  C   UNL     1      -8.237   3.907   0.054  0.00  0.00    +0.028 C 
ATOM     21  C   UNL     1      -7.029   4.495   0.042  0.00  0.00    +0.010 C 
BRANCH  21  22
ATOM     22  C   UNL     1      -6.925   5.964   0.038  0.00  0.00    -0.021 A 
ATOM     23  C   UNL     1      -5.669   6.578   0.019  0.00  0.00    +0.057 A 
ATOM     24  C   UNL     1      -5.577   7.956   0.015  0.00  0.00    +0.162 A 
ATOM     25  C   UNL     1      -6.735   8.732   0.029  0.00  0.00    +0.158 A 
ATOM     26  C   UNL     1      -7.982   8.124   0.047  0.00  0.00    +0.050 A 
ATOM     27  C   UNL     1      -8.082   6.749   0.046  0.00  0.00    +0.012 A 
BRANCH  25  28
ATOM     28  O   UNL     1      -6.642  10.088   0.025  0.00  0.00    -0.503 OA
ATOM     29  H   UNL     1      -6.627  10.479  -0.859  0.00  0.00    +0.292 HD
ENDBRANCH  25  28
BRANCH  24  30
ATOM     30  O   UNL     1      -4.357   8.556  -0.003  0.00  0.00    -0.491 OA
ATOM     31  C   UNL     1      -3.213   7.700  -0.016  0.00  0.00    +0.277 C 
ENDBRANCH  24  30
ENDBRANCH  21  22
ENDBRANCH   3  20
TORSDOF 8
