REMARK  Name = ZINC15718122
REMARK  7 active torsions:
REMARK  status: ('A' for Active; 'I' for Inactive)
REMARK    1  A    between atoms: C_1  and  N_2
REMARK    2  A    between atoms: N_2  and  C_3
REMARK    3  A    between atoms: N_2  and  S_4
REMARK    4  A    between atoms: S_4  and  C_7
REMARK    5  A    between atoms: C_16  and  C_18
REMARK    6  A    between atoms: N_21  and  S_24
REMARK    7  A    between atoms: S_24  and  C_27
REMARK                            x       y       z     vdW  Elec       q    Type
REMARK                         _______ _______ _______ _____ _____    ______ ____
ROOT
ATOM      1  C   UNL     1      -6.034  -7.590   6.886  0.00  0.00    +0.106 A 
ATOM      2  C   UNL     1      -6.718  -6.599   6.205  0.00  0.00    +0.030 A 
ATOM      3  C   UNL     1      -6.029  -5.572   5.597  0.00  0.00    +0.026 A 
ATOM      4  C   UNL     1      -4.635  -5.520   5.670  0.00  0.00    +0.040 A 
ATOM      5  C   UNL     1      -3.959  -6.520   6.350  0.00  0.00    -0.023 A 
ATOM      6  C   UNL     1      -4.654  -7.548   6.958  0.00  0.00    +0.034 A 
ATOM      7  C   UNL     1      -2.476  -6.236   6.273  0.00  0.00    +0.056 C 
ATOM      8  C   UNL     1      -2.372  -4.940   5.452  0.00  0.00    +0.118 C 
ATOM      9  N   UNL     1      -3.754  -4.581   5.125  0.00  0.00    -0.271 N 
ATOM     10  C   UNL     1      -4.122  -3.501   4.408  0.00  0.00    +0.223 C 
ATOM     11  O   UNL     1      -5.298  -3.239   4.266  0.00  0.00    -0.275 OA
ENDROOT
BRANCH  10  12
ATOM     12  C   UNL     1      -3.073  -2.618   3.782  0.00  0.00    +0.078 C 
ATOM     13  C   UNL     1      -3.561  -1.167   3.783  0.00  0.00    +0.030 C 
ATOM     14  C   UNL     1      -2.478  -0.268   3.178  0.00  0.00    +0.110 C 
ATOM     15  N   UNL     1      -2.123  -0.785   1.849  0.00  0.00    -0.176 NA
ATOM     16  C   UNL     1      -1.732  -2.195   1.721  0.00  0.00    +0.110 C 
ATOM     17  C   UNL     1      -2.818  -3.071   2.343  0.00  0.00    +0.030 C 
BRANCH  15  18
ATOM     18  S   UNL     1      -2.168   0.203   0.520  0.00  0.00    +0.067 S 
ATOM     19  O   UNL     1      -3.076   1.253   0.826  0.00  0.00    -0.152 OA
ATOM     20  O   UNL     1      -2.335  -0.644  -0.609  0.00  0.00    -0.152 OA
BRANCH  18  21
ATOM     21  C   UNL     1      -0.577   0.942   0.365  0.00  0.00    +0.143 A 
ATOM     22  C   UNL     1       0.508   0.498  -0.316  0.00  0.00    +0.036 A 
ATOM     23  C   UNL     1       1.666   1.253  -0.298  0.00  0.00    +0.010 A 
ATOM     24  C   UNL     1       1.683   2.414   0.402  0.00  0.00    +0.047 A 
ATOM     25  S   UNL     1       0.026   2.470   1.065  0.00  0.00    -0.077 S 
ENDBRANCH  18  21
ENDBRANCH  15  18
ENDBRANCH  10  12
BRANCH   1  26
ATOM     26  S   UNL     1      -6.919  -8.901   7.662  0.00  0.00    +0.060 S 
ATOM     27  O   UNL     1      -8.165  -9.006   6.985  0.00  0.00    -0.153 OA
ATOM     28  O   UNL     1      -6.016  -9.993   7.768  0.00  0.00    -0.153 OA
BRANCH  26  30
ATOM     29  C   UNL     1      -8.505  -7.698   9.493  0.00  0.00    +0.131 C 
ATOM     30  N   UNL     1      -7.260  -8.415   9.208  0.00  0.00    -0.183 NA
ATOM     31  C   UNL     1      -6.316  -8.703  10.290  0.00  0.00    +0.131 C 
ENDBRANCH  26  30
ENDBRANCH   1  26
TORSDOF 5
