REMARK  Name = ZINC03846537
REMARK  9 active torsions:
REMARK  status: ('A' for Active; 'I' for Inactive)
REMARK    1  A    between atoms: C_1  and  C_2
REMARK    2  A    between atoms: C_4  and  N_9
REMARK    3  A    between atoms: C_7  and  O_8
REMARK    4  A    between atoms: N_9  and  C_10
REMARK    5  A    between atoms: C_10  and  C_12
REMARK    6  A    between atoms: C_10  and  C_28
REMARK    7  A    between atoms: C_12  and  C_13
REMARK    8  A    between atoms: C_13  and  C_15
REMARK    9  A    between atoms: N_24  and  C_27
REMARK                            x       y       z     vdW  Elec       q    Type
REMARK                         _______ _______ _______ _____ _____    ______ ____
ROOT
ATOM      1  C   UNL     1      -0.119   4.202   0.025  0.00  0.00    +0.108 C 
ENDROOT
BRANCH   1   2
ATOM      2  C   UNL     1      -0.631   4.347  -1.385  0.00  0.00    -0.027 A 
ATOM      3  C   UNL     1       0.246   4.644  -2.412  0.00  0.00    +0.007 A 
ATOM      4  C   UNL     1      -0.222   4.771  -3.706  0.00  0.00    +0.020 A 
ATOM      5  C   UNL     1      -1.571   4.612  -3.972  0.00  0.00    +0.041 A 
ATOM      6  C   UNL     1      -2.449   4.321  -2.944  0.00  0.00    +0.020 A 
ATOM      7  C   UNL     1      -1.979   4.188  -1.651  0.00  0.00    +0.007 A 
ATOM      8 CL   UNL     1      -2.160   4.779  -5.596  0.00  0.00    -0.084 Cl
ENDBRANCH   1   2
BRANCH   1   9
ATOM      9  N   UNL     1       1.159   3.486   0.009  0.00  0.00    -0.337 N 
ATOM     10  H   UNL     1       2.104   4.048   0.003  0.00  0.00    +0.147 HD
BRANCH   9  14
ATOM     11  C   UNL     1       3.719  -0.710  -0.038  0.00  0.00    +0.047 C 
ATOM     12  C   UNL     1       2.405   0.027  -0.021  0.00  0.00    -0.007 A 
ATOM     13  C   UNL     1       2.388   1.408  -0.014  0.00  0.00    +0.030 A 
ATOM     14  C   UNL     1       1.177   2.087   0.002  0.00  0.00    +0.028 A 
ATOM     15  C   UNL     1      -0.017   1.377   0.010  0.00  0.00    +0.026 A 
ATOM     16  C   UNL     1       0.002  -0.004   0.002  0.00  0.00    +0.047 A 
ATOM     17  C   UNL     1       1.212  -0.682  -0.013  0.00  0.00    +0.120 A 
BRANCH  17  18
ATOM     18  O   UNL     1       1.230  -2.042  -0.021  0.00  0.00    -0.507 OA
ATOM     19  H   UNL     1       0.285  -2.604  -0.014  0.00  0.00    +0.292 HD
ENDBRANCH  17  18
ENDBRANCH   9  14
ENDBRANCH   1   9
BRANCH   1  20
ATOM     20  C   UNL     1       0.081   5.589   0.640  0.00  0.00    +0.107 C 
BRANCH  20  21
ATOM     21  C   UNL     1       0.474   5.445   2.087  0.00  0.00    +0.174 C 
ATOM     22  O   UNL     1       0.585   4.340   2.579  0.00  0.00    -0.292 OA
BRANCH  21  23
ATOM     23  C   UNL     1       0.716   6.596   2.872  0.00  0.00    +0.129 A 
ATOM     24  C   UNL     1       0.592   7.940   2.289  0.00  0.00    +0.204 A 
ATOM     25  O   UNL     1       0.281   8.098   1.122  0.00  0.00    -0.286 OA
ATOM     26  C   UNL     1       0.856   9.090   3.175  0.00  0.00    +0.046 A 
ATOM     27  C   UNL     1       0.757  10.398   2.702  0.00  0.00    +0.014 A 
ATOM     28  C   UNL     1       1.015  11.451   3.552  0.00  0.00    +0.001 A 
ATOM     29  C   UNL     1       1.371  11.214   4.872  0.00  0.00    +0.002 A 
ATOM     30  C   UNL     1       1.472   9.927   5.352  0.00  0.00    +0.026 A 
ATOM     31  C   UNL     1       1.217   8.848   4.511  0.00  0.00    +0.055 A 
ATOM     32  N   UNL     1       1.317   7.555   4.985  0.00  0.00    -0.310 N 
ATOM     33  C   UNL     1       1.082   6.478   4.216  0.00  0.00    +0.266 A 
ATOM     34  O   UNL     1       1.201   5.250   4.756  0.00  0.00    -0.267 OA
ATOM     35  C   UNL     1       1.697   7.349   6.385  0.00  0.00    +0.152 C 
ENDBRANCH  21  23
ENDBRANCH  20  21
ENDBRANCH   1  20
TORSDOF 7
