REMARK  Name = ZINC67066061
REMARK  3 active torsions:
REMARK  status: ('A' for Active; 'I' for Inactive)
REMARK    1  A    between atoms: C_2  and  C_3
REMARK    2  A    between atoms: C_3  and  N_4
REMARK    3  A    between atoms: C_11  and  C_14
REMARK                            x       y       z     vdW  Elec       q    Type
REMARK                         _______ _______ _______ _____ _____    ______ ____
ROOT
ATOM      1  N   UNL     1       3.543  -2.281   0.500  0.00  0.00    -0.295 N 
ATOM      2  C   UNL     1       2.578  -2.233   1.440  0.00  0.00    +0.303 C 
ATOM      3  O   UNL     1       1.624  -1.494   1.295  0.00  0.00    -0.253 OA
ATOM      4  N   UNL     1       2.671  -3.005   2.542  0.00  0.00    -0.281 N 
ATOM      5  C   UNL     1       1.576  -3.060   3.523  0.00  0.00    +0.137 C 
ATOM      6  C   UNL     1       2.163  -2.819   4.918  0.00  0.00    +0.179 C 
ATOM      7  O   UNL     1       3.253  -3.719   5.132  0.00  0.00    -0.369 OA
ATOM      8  C   UNL     1       4.347  -3.539   4.228  0.00  0.00    +0.166 C 
ATOM      9  C   UNL     1       3.869  -3.822   2.795  0.00  0.00    +0.145 C 
ATOM     10  H   UNL     1       4.338  -2.816   0.649  0.00  0.00    +0.151 HD
ENDROOT
BRANCH   8  11
ATOM     11  C   UNL     1       5.457  -4.493   4.585  0.00  0.00    -0.016 A 
ATOM     12  C   UNL     1       5.158  -5.789   4.964  0.00  0.00    +0.009 A 
ATOM     13  C   UNL     1       6.175  -6.666   5.292  0.00  0.00    +0.040 A 
ATOM     14  C   UNL     1       7.494  -6.247   5.240  0.00  0.00    +0.142 A 
ATOM     15  C   UNL     1       7.792  -4.949   4.861  0.00  0.00    +0.076 A 
ATOM     16  C   UNL     1       6.773  -4.074   4.528  0.00  0.00    +0.029 A 
ATOM     17 CL   UNL     1       9.445  -4.421   4.795  0.00  0.00    -0.081 Cl
ATOM     18  F   UNL     1       8.488  -7.104   5.561  0.00  0.00    -0.204 F 
ENDBRANCH   8  11
BRANCH   1  19
ATOM     19  C   UNL     1       3.389  -1.526  -0.746  0.00  0.00    +0.148 C 
BRANCH  19  21
ATOM     20  C   UNL     1       4.470  -2.368  -2.768  0.00  0.00    +0.021 C 
ATOM     21  C   UNL     1       4.597  -1.748  -1.619  0.00  0.00    +0.006 C 
ATOM     22 BR   UNL     1       6.295  -1.134  -1.059  0.00  0.00    -0.054 Br
ENDBRANCH  19  21
ENDBRANCH   1  19
TORSDOF 3
