REMARK  Name = ZINC09685621
REMARK  15 active torsions:
REMARK  status: ('A' for Active; 'I' for Inactive)
REMARK    1  A    between atoms: C_1  and  C_2
REMARK    2  A    between atoms: C_2  and  C_3
REMARK    3  A    between atoms: C_3  and  C_4
REMARK    4  A    between atoms: C_4  and  N_72
REMARK    5  A    between atoms: C_5  and  C_6
REMARK    6  A    between atoms: C_5  and  N_72
REMARK    7  A    between atoms: C_7  and  C_8
REMARK    8  A    between atoms: C_7  and  N_72
REMARK    9  A    between atoms: C_11  and  C_13
REMARK   10  A    between atoms: C_13  and  N_14
REMARK   11  A    between atoms: N_14  and  S_15
REMARK   12  A    between atoms: S_15  and  C_18
REMARK   13  A    between atoms: C_23  and  C_24
REMARK   14  A    between atoms: C_30  and  C_34
REMARK   15  A    between atoms: C_30  and  C_35
REMARK                            x       y       z     vdW  Elec       q    Type
REMARK                         _______ _______ _______ _____ _____    ______ ____
ROOT
ATOM      1  S   UNL     1       0.179   8.329   2.020  0.00  0.00    +0.059 S 
ATOM      2  O   UNL     1       0.043   8.585   3.411  0.00  0.00    -0.153 OA
ATOM      3  O   UNL     1       1.353   8.670   1.294  0.00  0.00    -0.153 OA
ENDROOT
BRANCH   1   4
ATOM      4  C   UNL     1      -1.161   9.150   1.223  0.00  0.00    +0.110 A 
ATOM      5  C   UNL     1      -0.920   9.940   0.120  0.00  0.00    +0.055 A 
ATOM      6  C   UNL     1      -1.973  10.590  -0.514  0.00  0.00    +0.049 A 
ATOM      7  C   UNL     1      -3.280  10.433  -0.018  0.00  0.00    +0.011 A 
ATOM      8  C   UNL     1      -3.507   9.631   1.097  0.00  0.00    +0.016 A 
ATOM      9  C   UNL     1      -2.451   8.991   1.708  0.00  0.00    -0.023 A 
ATOM     10  C   UNL     1      -2.697   8.118   2.912  0.00  0.00    +0.046 C 
ATOM     11  C   UNL     1      -4.132  11.236  -0.899  0.00  0.00    +0.046 A 
ATOM     12  C   UNL     1      -3.298  11.806  -1.849  0.00  0.00    +0.028 A 
ATOM     13  N   UNL     1      -2.035  11.427  -1.613  0.00  0.00    -0.357 N 
ATOM     14  H   UNL     1      -1.269  11.702  -2.141  0.00  0.00    +0.166 HD
ATOM     15  C   UNL     1      -3.831  12.697  -2.946  0.00  0.00    +0.060 C 
ATOM     16  C   UNL     1      -5.290  12.306  -3.208  0.00  0.00    -0.023 C 
ATOM     17  C   UNL     1      -6.108  12.390  -1.920  0.00  0.00    +0.086 C 
ATOM     18  C   UNL     1      -5.530  11.457  -0.877  0.00  0.00    +0.166 C 
ATOM     19  O   UNL     1      -6.240  10.918  -0.053  0.00  0.00    -0.292 OA
ATOM     20  C   UNL     1      -5.340  10.874  -3.745  0.00  0.00    +0.011 C 
ATOM     21  C   UNL     1      -5.888  13.256  -4.248  0.00  0.00    +0.011 C 
ENDBRANCH   1   4
BRANCH   1  22
ATOM     22  N   UNL     1      -0.050   6.702   1.812  0.00  0.00    -0.183 NA
ATOM     23  H   UNL     1      -0.196   6.131   2.583  0.00  0.00    +0.148 HD
BRANCH  22  24
ATOM     24  C   UNL     1      -0.033   6.126   0.466  0.00  0.00    +0.180 C 
BRANCH  24  28
ATOM     25  C   UNL     1       0.956   2.617   0.683  0.00  0.00    +0.089 A 
ATOM     26  C   UNL     1      -0.380   2.465   0.713  0.00  0.00    +0.043 A 
ATOM     27  C   UNL     1      -0.942   3.760   0.629  0.00  0.00    +0.046 A 
ATOM     28  C   UNL     1       0.085   4.627   0.563  0.00  0.00    +0.121 A 
ATOM     29  O   UNL     1       1.232   3.929   0.592  0.00  0.00    -0.465 OA
BRANCH  25  30
ATOM     30  C   UNL     1       1.971   1.505   0.742  0.00  0.00    -0.003 C 
BRANCH  30  31
ATOM     31  N   UNL     1       2.288   1.075  -0.636  0.00  0.00    +0.384 N 
ATOM     32  H   UNL     1       2.538   1.899  -1.194  0.00  0.00    -0.081 HD
BRANCH  31  33
ATOM     33  C   UNL     1       1.109   0.422  -1.244  0.00  0.00    -0.082 C 
ATOM     34  C   UNL     1       1.320   0.340  -2.757  0.00  0.00    -0.017 C 
ENDBRANCH  31  33
BRANCH  31  35
ATOM     35  C   UNL     1       3.432   0.139  -0.623  0.00  0.00    -0.078 C 
BRANCH  35  36
ATOM     36  C   UNL     1       4.720   0.943  -0.427  0.00  0.00    -0.019 C 
BRANCH  36  38
ATOM     37  C   UNL     1       7.212   0.806  -0.316  0.00  0.00    +0.004 C 
ATOM     38  C   UNL     1       5.925   0.003  -0.512  0.00  0.00    -0.005 C 
ENDBRANCH  36  38
ENDBRANCH  35  36
ENDBRANCH  31  35
ENDBRANCH  30  31
ENDBRANCH  25  30
ENDBRANCH  24  28
ENDBRANCH  22  24
ENDBRANCH   1  22
TORSDOF 10
