REMARK  Name = ZINC39494161
REMARK  12 active torsions:
REMARK  status: ('A' for Active; 'I' for Inactive)
REMARK    1  A    between atoms: C_1  and  C_2
REMARK    2  A    between atoms: C_2  and  C_3
REMARK    3  A    between atoms: C_2  and  C_4
REMARK    4  A    between atoms: C_4  and  C_5
REMARK    5  A    between atoms: C_5  and  C_7
REMARK    6  A    between atoms: C_5  and  C_25
REMARK    7  A    between atoms: C_7  and  C_9
REMARK    8  A    between atoms: C_7  and  N_15
REMARK    9  A    between atoms: C_16  and  C_18
REMARK   10  A    between atoms: C_23  and  O_24
REMARK   11  A    between atoms: C_25  and  C_27
REMARK   12  A    between atoms: C_27  and  C_28
REMARK                            x       y       z     vdW  Elec       q    Type
REMARK                         _______ _______ _______ _____ _____    ______ ____
ROOT
ATOM      1  C   UNL     1      -2.039  -2.870  -0.435  0.00  0.00    +0.114 C 
ENDROOT
BRANCH   1   2
ATOM      2  C   UNL     1      -1.210  -4.068  -0.823  0.00  0.00    -0.027 A 
ATOM      3  C   UNL     1      -0.628  -4.129  -2.075  0.00  0.00    +0.005 A 
ATOM      4  C   UNL     1       0.132  -5.228  -2.431  0.00  0.00    +0.000 A 
ATOM      5  C   UNL     1       0.310  -6.265  -1.534  0.00  0.00    +0.000 A 
ATOM      6  C   UNL     1      -0.271  -6.203  -0.281  0.00  0.00    +0.000 A 
ATOM      7  C   UNL     1      -1.028  -5.102   0.076  0.00  0.00    +0.005 A 
ENDBRANCH   1   2
BRANCH   1   8
ATOM      8  N   UNL     1      -2.860  -2.455  -1.575  0.00  0.00    -0.304 N 
ATOM      9  C   UNL     1      -4.152  -2.832  -1.648  0.00  0.00    +0.248 C 
ATOM     10  O   UNL     1      -4.636  -3.517  -0.768  0.00  0.00    -0.270 OA
ATOM     11  H   UNL     1      -2.474  -1.908  -2.277  0.00  0.00    +0.150 HD
BRANCH   9  12
ATOM     12  C   UNL     1      -4.979  -2.413  -2.796  0.00  0.00    +0.078 A 
ATOM     13  C   UNL     1      -4.425  -1.631  -3.813  0.00  0.00    +0.017 A 
ATOM     14  C   UNL     1      -5.202  -1.244  -4.883  0.00  0.00    +0.001 A 
ATOM     15  C   UNL     1      -6.532  -1.627  -4.955  0.00  0.00    +0.004 A 
ATOM     16  C   UNL     1      -7.092  -2.400  -3.958  0.00  0.00    +0.046 A 
ATOM     17  C   UNL     1      -6.323  -2.803  -2.876  0.00  0.00    +0.129 A 
BRANCH  17  18
ATOM     18  O   UNL     1      -6.870  -3.567  -1.898  0.00  0.00    -0.506 OA
ATOM     19  H   UNL     1      -7.266  -3.058  -1.177  0.00  0.00    +0.292 HD
ENDBRANCH  17  18
ENDBRANCH   9  12
ENDBRANCH   1   8
BRANCH   1  20
ATOM     20  C   UNL     1      -1.115  -1.721  -0.027  0.00  0.00    +0.080 C 
BRANCH  20  21
ATOM     21  C   UNL     1      -0.158  -2.200   1.035  0.00  0.00    +0.143 C 
ATOM     22  O   UNL     1      -0.511  -3.033   1.835  0.00  0.00    -0.297 OA
BRANCH  21  23
ATOM     23  C   UNL     1       1.238  -1.637   1.099  0.00  0.00    +0.109 C 
BRANCH  23  24
ATOM     24  C   UNL     1       2.015  -2.344   2.180  0.00  0.00    -0.040 A 
ATOM     25  C   UNL     1       2.002  -1.854   3.473  0.00  0.00    +0.004 A 
ATOM     26  C   UNL     1       2.714  -2.502   4.465  0.00  0.00    +0.000 A 
ATOM     27  C   UNL     1       3.439  -3.639   4.164  0.00  0.00    +0.000 A 
ATOM     28  C   UNL     1       3.452  -4.130   2.872  0.00  0.00    +0.000 A 
ATOM     29  C   UNL     1       2.736  -3.484   1.881  0.00  0.00    +0.004 A 
ENDBRANCH  23  24
ENDBRANCH  21  23
ENDBRANCH  20  21
BRANCH  20  30
ATOM     30  C   UNL     1      -1.952  -0.565   0.524  0.00  0.00    +0.016 C 
BRANCH  30  32
ATOM     31  C   UNL     1      -3.649   1.177  -0.047  0.00  0.00    +0.007 C 
ATOM     32  C   UNL     1      -2.779   0.050  -0.606  0.00  0.00    -0.016 C 
ATOM     33  C   UNL     1      -1.841   0.613  -1.677  0.00  0.00    +0.007 C 
ENDBRANCH  30  32
ENDBRANCH  20  30
ENDBRANCH   1  20
TORSDOF 10
