REMARK  Name = ZINC66773969
REMARK  5 active torsions:
REMARK  status: ('A' for Active; 'I' for Inactive)
REMARK    1  A    between atoms: C_6  and  C_7
REMARK    2  A    between atoms: C_7  and  C_8
REMARK    3  A    between atoms: C_8  and  C_10
REMARK    4  A    between atoms: C_8  and  N_16
REMARK    5  A    between atoms: C_17  and  C_19
REMARK                            x       y       z     vdW  Elec       q    Type
REMARK                         _______ _______ _______ _____ _____    ______ ____
ROOT
ATOM      1  C   UNL     1      -1.745  -1.028  -1.429  0.00  0.00    +0.080 C 
ENDROOT
BRANCH   1   2
ATOM      2  C   UNL     1      -3.120  -1.700  -1.421  0.00  0.00    +0.010 C 
ATOM      3  C   UNL     1      -4.130  -0.787  -0.722  0.00  0.00    +0.005 C 
ATOM      4  C   UNL     1      -5.504  -1.459  -0.714  0.00  0.00    +0.000 C 
ATOM      5  C   UNL     1      -5.957  -1.713  -2.153  0.00  0.00    +0.000 C 
ATOM      6  C   UNL     1      -4.947  -2.625  -2.852  0.00  0.00    +0.000 C 
ATOM      7  C   UNL     1      -3.572  -1.953  -2.860  0.00  0.00    +0.005 C 
ENDBRANCH   1   2
BRANCH   1   8
ATOM      8  N   UNL     1      -0.778  -1.902  -2.098  0.00  0.00    -0.310 N 
ATOM      9  C   UNL     1      -0.658  -1.871  -3.440  0.00  0.00    +0.234 C 
ATOM     10  O   UNL     1      -1.351  -1.120  -4.094  0.00  0.00    -0.274 OA
ATOM     11  H   UNL     1      -0.225  -2.503  -1.575  0.00  0.00    +0.149 HD
BRANCH   9  12
ATOM     12  C   UNL     1       0.336  -2.770  -4.129  0.00  0.00    +0.159 C 
ATOM     13  C   UNL     1      -0.249  -4.190  -4.290  0.00  0.00    +0.041 C 
ATOM     14  C   UNL     1       0.333  -4.618  -5.657  0.00  0.00    +0.098 C 
ATOM     15  C   UNL     1       0.601  -3.312  -6.372  0.00  0.00    +0.214 C 
ATOM     16  O   UNL     1       0.795  -3.199  -7.563  0.00  0.00    -0.276 OA
ATOM     17  N   UNL     1       0.593  -2.293  -5.492  0.00  0.00    -0.304 N 
ATOM     18  H   UNL     1       0.737  -1.363  -5.729  0.00  0.00    +0.149 HD
ENDBRANCH   9  12
ENDBRANCH   1   8
BRANCH   1  19
ATOM     19  C   UNL     1      -1.293  -0.775   0.011  0.00  0.00    +0.057 C 
BRANCH  19  25
ATOM     20  C   UNL     1      -0.017   1.378   0.010  0.00  0.00    +0.005 A 
ATOM     21  C   UNL     1       1.171   2.086   0.002  0.00  0.00    +0.020 A 
ATOM     22  C   UNL     1       2.378   1.410  -0.013  0.00  0.00    +0.041 A 
ATOM     23  C   UNL     1       2.396   0.027  -0.021  0.00  0.00    +0.020 A 
ATOM     24  C   UNL     1       1.208  -0.679  -0.013  0.00  0.00    +0.005 A 
ATOM     25  C   UNL     1       0.002  -0.004   0.002  0.00  0.00    -0.046 A 
ATOM     26 CL   UNL     1       3.870   2.298  -0.023  0.00  0.00    -0.084 Cl
ENDBRANCH  19  25
ENDBRANCH   1  19
TORSDOF 5
