REMARK  Name = ZINC00473447
REMARK  2 active torsions:
REMARK  status: ('A' for Active; 'I' for Inactive)
REMARK    1  A    between atoms: C_6  and  C_7
REMARK    2  A    between atoms: C_8  and  C_9
REMARK                            x       y       z     vdW  Elec       q    Type
REMARK                         _______ _______ _______ _____ _____    ______ ____
ROOT
ATOM      1  C   UNL     1      -2.447   0.987   0.019  0.00  0.00    +0.243 C 
ATOM      2  O   UNL     1      -2.430  -0.230   0.012  0.00  0.00    -0.270 OA
ATOM      3  N   UNL     1      -3.623   1.645   0.028  0.00  0.00    -0.261 N 
ATOM      4  C   UNL     1      -4.816   0.934   0.030  0.00  0.00    +0.165 A 
ATOM      5  N   UNL     1      -5.003  -0.369   0.018  0.00  0.00    -0.229 NA
ATOM      6  C   UNL     1      -6.219  -0.911   0.027  0.00  0.00    +0.054 A 
ATOM      7  C   UNL     1      -7.260  -0.038   0.036  0.00  0.00    +0.014 A 
ATOM      8  S   UNL     1      -6.447   1.537   0.041  0.00  0.00    -0.057 S 
ATOM      9  C   UNL     1      -8.717  -0.353   0.039  0.00  0.00    +0.044 C 
ATOM     10  C   UNL     1      -8.891  -1.833  -0.336  0.00  0.00    +0.006 C 
ATOM     11  C   UNL     1      -7.910  -2.669   0.490  0.00  0.00    +0.006 C 
ATOM     12  C   UNL     1      -6.476  -2.414   0.021  0.00  0.00    +0.056 C 
ATOM     13  H   UNL     1      -3.636   2.615   0.034  0.00  0.00    +0.157 HD
ENDROOT
BRANCH   1  15
ATOM     14  C   UNL     1      -0.013   1.076   0.008  0.00  0.00    +0.013 C 
ATOM     15  C   UNL     1      -1.191   1.735   0.017  0.00  0.00    +0.068 C 
BRANCH  14  21
ATOM     16  C   UNL     1       1.234   3.227   0.008  0.00  0.00    +0.012 A 
ATOM     17  C   UNL     1       2.419   3.929   0.000  0.00  0.00    +0.050 A 
ATOM     18  C   UNL     1       3.632   3.254  -0.015  0.00  0.00    +0.166 A 
ATOM     19  C   UNL     1       3.656   1.858  -0.023  0.00  0.00    +0.167 A 
ATOM     20  C   UNL     1       2.473   1.147  -0.010  0.00  0.00    +0.057 A 
ATOM     21  C   UNL     1       1.250   1.828  -0.000  0.00  0.00    -0.021 A 
ATOM     22  O   UNL     1       4.958   1.445  -0.038  0.00  0.00    -0.453 OA
ATOM     23  C   UNL     1       5.728   2.590   0.373  0.00  0.00    +0.466 C 
ATOM     24  O   UNL     1       4.917   3.711  -0.026  0.00  0.00    -0.453 OA
ENDBRANCH  14  21
ENDBRANCH   1  15
TORSDOF 2
