REMARK  Name = ZINC28239023
REMARK  10 active torsions:
REMARK  status: ('A' for Active; 'I' for Inactive)
REMARK    1  A    between atoms: C_1  and  C_2
REMARK    2  A    between atoms: C_2  and  N_3
REMARK    3  A    between atoms: C_5  and  N_11
REMARK    4  A    between atoms: C_6  and  C_8
REMARK    5  A    between atoms: C_12  and  C_14
REMARK    6  A    between atoms: C_17  and  C_19
REMARK    7  A    between atoms: C_19  and  O_20
REMARK    8  A    between atoms: O_20  and  C_21
REMARK    9  A    between atoms: C_26  and  C_27
REMARK   10  A    between atoms: C_27  and  C_28
REMARK                            x       y       z     vdW  Elec       q    Type
REMARK                         _______ _______ _______ _____ _____    ______ ____
ROOT
ATOM      1  N   UNL     1      -1.014   3.863   4.225  0.00  0.00    -0.276 N 
ATOM      2  C   UNL     1       0.114   4.566   4.452  0.00  0.00    +0.284 C 
ATOM      3  O   UNL     1       1.043   4.495   3.669  0.00  0.00    -0.266 OA
ATOM      4  H   UNL     1      -1.853   3.927   4.933  0.00  0.00    +0.155 HD
ENDROOT
BRANCH   1   7
ATOM      5  N   UNL     1      -0.704   1.998   1.216  0.00  0.00    -0.269 N 
ATOM      6  C   UNL     1      -0.175   2.857   2.124  0.00  0.00    +0.132 A 
ATOM      7  C   UNL     1      -1.116   3.050   3.087  0.00  0.00    +0.084 A 
ATOM      8  C   UNL     1      -2.222   2.250   2.698  0.00  0.00    +0.168 A 
ATOM      9  N   UNL     1      -1.891   1.655   1.568  0.00  0.00    -0.165 NA
BRANCH   8  10
ATOM     10  C   UNL     1      -3.500   2.110   3.421  0.00  0.00    +0.263 C 
ATOM     11  O   UNL     1      -3.681   2.717   4.459  0.00  0.00    -0.269 OA
ATOM     12  N   UNL     1      -4.467   1.310   2.931  0.00  0.00    -0.324 N 
ATOM     13  H   UNL     1      -5.420   1.206   3.470  0.00  0.00    +0.145 HD
ATOM     14  H   UNL     1      -4.304   0.761   1.992  0.00  0.00    +0.145 HD
ENDBRANCH   8  10
BRANCH   5  16
ATOM     15  C   UNL     1       0.002  -0.004   0.002  0.00  0.00    +0.029 C 
ATOM     16  C   UNL     1      -0.019   1.526   0.010  0.00  0.00    +0.140 C 
ENDBRANCH   5  16
ENDBRANCH   1   7
BRANCH   2  17
ATOM     17  C   UNL     1       0.221   5.415   5.642  0.00  0.00    +0.190 A 
ATOM     18  C   UNL     1       1.303   6.171   5.994  0.00  0.00    +0.055 A 
ATOM     19  C   UNL     1       0.969   6.820   7.193  0.00  0.00    +0.049 A 
ATOM     20  C   UNL     1      -0.281   6.428   7.522  0.00  0.00    +0.143 A 
ATOM     21  O   UNL     1      -0.729   5.582   6.585  0.00  0.00    -0.452 OA
BRANCH  20  22
ATOM     22  C   UNL     1      -1.047   6.872   8.742  0.00  0.00    +0.303 C 
BRANCH  22  23
ATOM     23  O   UNL     1      -1.796   8.049   8.433  0.00  0.00    -0.484 OA
BRANCH  23  24
ATOM     24  C   UNL     1      -2.548   8.582   9.432  0.00  0.00    +0.125 A 
ATOM     25  C   UNL     1      -2.568   7.981  10.682  0.00  0.00    +0.046 A 
ATOM     26  C   UNL     1      -3.329   8.528  11.697  0.00  0.00    +0.004 A 
ATOM     27  C   UNL     1      -4.078   9.668  11.465  0.00  0.00    +0.001 A 
ATOM     28  C   UNL     1      -4.063  10.265  10.218  0.00  0.00    +0.007 A 
ATOM     29  C   UNL     1      -3.300   9.724   9.201  0.00  0.00    -0.002 A 
BRANCH  29  30
ATOM     30  C   UNL     1      -3.285  10.375   7.842  0.00  0.00    +0.065 C 
BRANCH  30  31
ATOM     31  C   UNL     1      -4.299   9.703   6.952  0.00  0.00    -0.030 C 
ATOM     32  C   UNL     1      -5.226  10.415   6.360  0.00  0.00    +0.004 C 
ENDBRANCH  30  31
ENDBRANCH  29  30
ENDBRANCH  23  24
ENDBRANCH  22  23
ENDBRANCH  20  22
ENDBRANCH   2  17
TORSDOF 9
