REMARK  Name = ZINC08997339
REMARK  9 active torsions:
REMARK  status: ('A' for Active; 'I' for Inactive)
REMARK    1  A    between atoms: C_1  and  C_2
REMARK    2  A    between atoms: C_2  and  C_3
REMARK    3  A    between atoms: C_2  and  C_4
REMARK    4  A    between atoms: C_4  and  C_5
REMARK    5  A    between atoms: C_5  and  O_6
REMARK    6  A    between atoms: O_6  and  C_7
REMARK    7  A    between atoms: C_10  and  C_15
REMARK    8  A    between atoms: C_12  and  O_13
REMARK    9  A    between atoms: O_13  and  C_14
REMARK                            x       y       z     vdW  Elec       q    Type
REMARK                         _______ _______ _______ _____ _____    ______ ____
ROOT
ATOM      1  C   UNL     1      -6.651   0.506  -5.793  0.00  0.00    +0.209 C 
ATOM      2  N   UNL     1      -5.837   0.383  -7.017  0.00  0.00    -0.294 N 
ATOM      3  C   UNL     1      -5.020   1.450  -7.362  0.00  0.00    +0.159 C 
ATOM      4  N   UNL     1      -5.628   2.705  -7.418  0.00  0.00    -0.259 N 
ATOM      5  C   UNL     1      -6.644   2.912  -6.489  0.00  0.00    +0.205 A 
ATOM      6  N   UNL     1      -7.146   1.885  -5.719  0.00  0.00    -0.288 N 
ATOM      7  C   UNL     1      -8.129   2.413  -4.931  0.00  0.00    +0.072 A 
ATOM      8  C   UNL     1      -8.974   1.860  -3.977  0.00  0.00    +0.028 A 
ATOM      9  C   UNL     1      -9.872   2.715  -3.358  0.00  0.00    +0.002 A 
ATOM     10  C   UNL     1      -9.935   4.062  -3.667  0.00  0.00    +0.002 A 
ATOM     11  C   UNL     1      -9.105   4.637  -4.613  0.00  0.00    +0.030 A 
ATOM     12  C   UNL     1      -8.190   3.792  -5.251  0.00  0.00    +0.091 A 
ATOM     13  N   UNL     1      -7.260   4.027  -6.203  0.00  0.00    -0.214 NA
ATOM     14  N   UNL     1      -3.753   1.289  -7.620  0.00  0.00    -0.375 N 
ATOM     15  H   UNL     1      -5.362   3.383  -8.058  0.00  0.00    +0.158 HD
ATOM     16  H   UNL     1      -3.357   0.405  -7.573  0.00  0.00    +0.158 HD
ATOM     17  H   UNL     1      -5.871  -0.418  -7.562  0.00  0.00    +0.151 HD
ATOM     18  H   UNL     1      -3.206   2.054  -7.858  0.00  0.00    +0.158 HD
ENDROOT
BRANCH   1  22
ATOM     19  C   UNL     1      -4.243  -0.353  -2.365  0.00  0.00    +0.162 A 
ATOM     20  C   UNL     1      -3.715   0.369  -3.423  0.00  0.00    +0.050 A 
ATOM     21  C   UNL     1      -4.495   0.645  -4.530  0.00  0.00    +0.011 A 
ATOM     22  C   UNL     1      -5.804   0.202  -4.584  0.00  0.00    -0.003 A 
ATOM     23  C   UNL     1      -6.337  -0.519  -3.532  0.00  0.00    +0.056 A 
ATOM     24  C   UNL     1      -5.558  -0.804  -2.422  0.00  0.00    +0.162 A 
BRANCH  24  25
ATOM     25  O   UNL     1      -6.079  -1.519  -1.389  0.00  0.00    -0.491 OA
ATOM     26  C   UNL     1      -7.436  -1.949  -1.517  0.00  0.00    +0.277 C 
ENDBRANCH  24  25
BRANCH  19  27
ATOM     27  O   UNL     1      -3.476  -0.626  -1.276  0.00  0.00    -0.488 OA
BRANCH  27  28
ATOM     28  C   UNL     1      -2.135  -0.131  -1.286  0.00  0.00    +0.229 C 
BRANCH  28  29
ATOM     29  C   UNL     1      -1.433  -0.534   0.013  0.00  0.00    +0.044 C 
BRANCH  29  31
ATOM     30  C   UNL     1      -0.019   1.526   0.010  0.00  0.00    +0.007 C 
ATOM     31  C   UNL     1       0.002  -0.004   0.002  0.00  0.00    -0.014 C 
ATOM     32  C   UNL     1       0.742  -0.511   1.242  0.00  0.00    +0.007 C 
ENDBRANCH  29  31
ENDBRANCH  28  29
ENDBRANCH  27  28
ENDBRANCH  19  27
ENDBRANCH   1  22
TORSDOF 6
