REMARK  Name = ZINC27644174
REMARK  13 active torsions:
REMARK  status: ('A' for Active; 'I' for Inactive)
REMARK    1  A    between atoms: C_1  and  C_2
REMARK    2  A    between atoms: C_2  and  C_4
REMARK    3  A    between atoms: C_2  and  C_11
REMARK    4  A    between atoms: C_4  and  C_5
REMARK    5  A    between atoms: C_5  and  C_6
REMARK    6  A    between atoms: C_6  and  C_7
REMARK    7  A    between atoms: C_7  and  C_8
REMARK    8  A    between atoms: C_7  and  C_9
REMARK    9  A    between atoms: C_7  and  O_10
REMARK   10  A    between atoms: C_17  and  C_35
REMARK   11  A    between atoms: C_22  and  C_23
REMARK   12  A    between atoms: C_26  and  O_34
REMARK   13  A    between atoms: C_29  and  O_33
REMARK                            x       y       z     vdW  Elec       q    Type
REMARK                         _______ _______ _______ _____ _____    ______ ____
ROOT
ATOM      1  C   UNL     1      -2.273  -2.635  -1.055  0.00  0.00    -0.002 C 
ATOM      2  C   UNL     1      -2.644  -1.143  -1.101  0.00  0.00    +0.005 C 
ATOM      3  C   UNL     1      -1.392  -0.383  -0.622  0.00  0.00    +0.009 C 
ATOM      4  C   UNL     1      -0.675  -1.361   0.329  0.00  0.00    +0.021 C 
ATOM      5  C   UNL     1      -1.047  -2.766  -0.134  0.00  0.00    -0.022 C 
ATOM      6  C   UNL     1       0.096  -3.399  -0.928  0.00  0.00    +0.008 C 
ATOM      7  C   UNL     1       1.338  -3.492  -0.045  0.00  0.00    +0.005 C 
ATOM      8  C   UNL     1       1.875  -2.094   0.235  0.00  0.00    +0.031 C 
ATOM      9  C   UNL     1       0.781  -1.092   0.381  0.00  0.00    -0.066 C 
ATOM     10  C   UNL     1       1.150   0.173   0.582  0.00  0.00    -0.000 C 
ATOM     11  C   UNL     1      -1.392  -3.643   1.071  0.00  0.00    +0.012 C 
ENDROOT
BRANCH  10  12
ATOM     12  C   UNL     1       2.572   0.519   0.651  0.00  0.00    +0.004 C 
ATOM     13  C   UNL     1       2.945   1.799   0.855  0.00  0.00    -0.040 C 
ATOM     14  C   UNL     1       4.405   2.198   0.933  0.00  0.00    +0.067 C 
ATOM     15  C   UNL     1       4.591   3.113   2.147  0.00  0.00    +0.122 C 
ATOM     16  C   UNL     1       3.677   4.332   2.022  0.00  0.00    +0.067 C 
ATOM     17  C   UNL     1       2.212   3.893   2.110  0.00  0.00    +0.147 C 
ATOM     18  C   UNL     1       1.950   2.881   1.008  0.00  0.00    -0.023 C 
ATOM     19  C   UNL     1       0.878   2.961   0.220  0.00  0.00    +0.015 C 
BRANCH  17  20
ATOM     20  O   UNL     1       1.963   3.299   3.385  0.00  0.00    -0.387 OA
ATOM     21  H   UNL     1       0.959   2.922   3.630  0.00  0.00    +0.210 HD
ENDBRANCH  17  20
BRANCH  15  22
ATOM     22  O   UNL     1       5.952   3.546   2.211  0.00  0.00    -0.391 OA
ATOM     23  H   UNL     1       6.279   4.215   3.021  0.00  0.00    +0.210 HD
ENDBRANCH  15  22
ENDBRANCH  10  12
BRANCH   1  25
ATOM     24  C   UNL     1      -3.213  -3.473  -3.213  0.00  0.00    +0.008 C 
ATOM     25  C   UNL     1      -1.926  -3.129  -2.460  0.00  0.00    -0.010 C 
BRANCH  25  26
ATOM     26  C   UNL     1      -1.172  -2.033  -3.215  0.00  0.00    +0.003 C 
BRANCH  26  27
ATOM     27  C   UNL     1      -0.662  -2.588  -4.546  0.00  0.00    +0.003 C 
BRANCH  27  28
ATOM     28  C   UNL     1       0.092  -1.492  -5.301  0.00  0.00    +0.034 C 
BRANCH  28  29
ATOM     29  C   UNL     1       0.602  -2.047  -6.633  0.00  0.00    +0.061 C 
ATOM     30  C   UNL     1       1.461  -0.991  -7.330  0.00  0.00    +0.041 C 
ATOM     31  C   UNL     1       1.443  -3.299  -6.374  0.00  0.00    +0.041 C 
BRANCH  29  32
ATOM     32  O   UNL     1      -0.509  -2.384  -7.465  0.00  0.00    -0.389 OA
ATOM     33  H   UNL     1      -0.339  -2.801  -8.469  0.00  0.00    +0.210 HD
ENDBRANCH  29  32
ENDBRANCH  28  29
ENDBRANCH  27  28
ENDBRANCH  26  27
ENDBRANCH  25  26
ENDBRANCH   1  25
TORSDOF 9
