REMARK  Name = ZINC21742702
REMARK  4 active torsions:
REMARK  status: ('A' for Active; 'I' for Inactive)
REMARK    1  A    between atoms: N_13  and  C_17
REMARK    2  A    between atoms: C_17  and  C_18
REMARK    3  A    between atoms: C_18  and  O_19
REMARK    4  A    between atoms: O_19  and  C_20
REMARK                            x       y       z     vdW  Elec       q    Type
REMARK                         _______ _______ _______ _____ _____    ______ ____
ROOT
ATOM      1  C   UNL     1       2.056   2.650  -3.605  0.00  0.00    +0.001 A 
ATOM      2  C   UNL     1       2.209   4.023  -3.545  0.00  0.00    +0.004 A 
ATOM      3  C   UNL     1       2.099   4.676  -2.334  0.00  0.00    +0.046 A 
ATOM      4  C   UNL     1       1.835   3.957  -1.173  0.00  0.00    +0.126 A 
ATOM      5  C   UNL     1       1.679   2.582  -1.236  0.00  0.00    +0.027 A 
ATOM      6  C   UNL     1       1.792   1.933  -2.454  0.00  0.00    +0.010 A 
ATOM      7  C   UNL     1       1.386   1.777  -0.002  0.00  0.00    +0.144 C 
ATOM      8  C   UNL     1       1.707   2.579   1.256  0.00  0.00    +0.081 C 
ATOM      9  C   UNL     1       1.100   3.980   1.101  0.00  0.00    +0.232 C 
ATOM     10  O   UNL     1       1.738   4.632   0.002  0.00  0.00    -0.492 OA
ATOM     11  C   UNL     1       2.171   0.485  -0.017  0.00  0.00    +0.251 C 
ATOM     12  O   UNL     1       3.376   0.359  -0.030  0.00  0.00    -0.272 OA
ATOM     13  N   UNL     1       1.246  -0.498  -0.013  0.00  0.00    -0.221 N 
ATOM     14  C   UNL     1       0.002  -0.004   0.002  0.00  0.00    +0.310 C 
ATOM     15  O   UNL     1      -0.999  -0.694   0.008  0.00  0.00    -0.252 OA
ATOM     16  N   UNL     1      -0.016   1.343   0.009  0.00  0.00    -0.281 N 
ATOM     17  H   UNL     1      -0.823   2.090   0.021  0.00  0.00    +0.152 HD
ENDROOT
BRANCH  13  18
ATOM     18  C   UNL     1       1.565  -1.928  -0.025  0.00  0.00    +0.159 C 
BRANCH  18  19
ATOM     19  C   UNL     1       1.661  -2.417  -1.471  0.00  0.00    +0.248 C 
BRANCH  19  20
ATOM     20  O   UNL     1       2.764  -1.779  -2.118  0.00  0.00    -0.490 OA
BRANCH  20  21
ATOM     21  C   UNL     1       2.990  -2.106  -3.417  0.00  0.00    +0.121 A 
ATOM     22  C   UNL     1       2.171  -3.026  -4.055  0.00  0.00    +0.047 A 
ATOM     23  C   UNL     1       2.399  -3.352  -5.378  0.00  0.00    +0.019 A 
ATOM     24  C   UNL     1       3.451  -2.770  -6.063  0.00  0.00    +0.018 A 
ATOM     25  C   UNL     1       4.273  -1.857  -5.427  0.00  0.00    +0.019 A 
ATOM     26  C   UNL     1       4.044  -1.524  -4.106  0.00  0.00    +0.047 A 
ATOM     27 BR   UNL     1       3.765  -3.224  -7.872  0.00  0.00    -0.050 Br
ENDBRANCH  20  21
ENDBRANCH  19  20
ENDBRANCH  18  19
ENDBRANCH  13  18
TORSDOF 4
