REMARK  Name = ZINC35780819
REMARK  16 active torsions:
REMARK  status: ('A' for Active; 'I' for Inactive)
REMARK    1  A    between atoms: C_1  and  C_2
REMARK    2  A    between atoms: N_8  and  C_9
REMARK    3  A    between atoms: C_10  and  C_20
REMARK    4  A    between atoms: C_11  and  C_14
REMARK    5  A    between atoms: C_20  and  N_21
REMARK    6  A    between atoms: N_21  and  C_22
REMARK    7  A    between atoms: N_21  and  C_35
REMARK    8  A    between atoms: C_22  and  C_23
REMARK    9  A    between atoms: C_23  and  C_25
REMARK   10  A    between atoms: C_23  and  O_34
REMARK   11  A    between atoms: C_25  and  O_26
REMARK   12  A    between atoms: O_26  and  C_27
REMARK   13  A    between atoms: C_27  and  C_28
REMARK   14  A    between atoms: C_35  and  C_36
REMARK   15  A    between atoms: C_36  and  C_37
REMARK   16  A    between atoms: C_36  and  C_38
REMARK                            x       y       z     vdW  Elec       q    Type
REMARK                         _______ _______ _______ _____ _____    ______ ____
ROOT
ATOM      1  C   UNL     1       2.707  -0.814   2.946  0.00  0.00    -0.035 C 
ENDROOT
BRANCH   1   3
ATOM      2  C   UNL     1       1.967   1.190   1.548  0.00  0.00    +0.222 A 
ATOM      3  C   UNL     1       2.261   0.610   2.740  0.00  0.00    +0.025 A 
ATOM      4  C   UNL     1       2.074   1.576   3.751  0.00  0.00    +0.117 A 
ATOM      5  N   UNL     1       1.683   2.691   3.178  0.00  0.00    -0.076 NA
ATOM      6  O   UNL     1       1.615   2.466   1.782  0.00  0.00    -0.339 OA
BRANCH   2  13
ATOM      7  C   UNL     1      -0.313  -0.014   0.740  0.00  0.00    +0.028 C 
ATOM      8  C   UNL     1       0.879  -0.184  -0.204  0.00  0.00    +0.073 C 
ATOM      9  C   UNL     1       0.514   0.346  -1.594  0.00  0.00    +0.022 C 
ATOM     10  C   UNL     1       1.752   0.301  -2.493  0.00  0.00    +0.003 C 
ATOM     11  C   UNL     1       2.844   1.198  -1.906  0.00  0.00    +0.019 C 
ATOM     12  C   UNL     1       3.235   0.677  -0.519  0.00  0.00    +0.108 C 
ATOM     13  N   UNL     1       2.026   0.577   0.310  0.00  0.00    -0.296 N 
ENDBRANCH   2  13
BRANCH   4  14
ATOM     14  C   UNL     1       2.283   1.369   5.206  0.00  0.00    +0.004 A 
ATOM     15  C   UNL     1       2.951   2.331   5.960  0.00  0.00    +0.010 A 
ATOM     16  C   UNL     1       3.142   2.133   7.313  0.00  0.00    +0.001 A 
ATOM     17  C   UNL     1       2.671   0.982   7.919  0.00  0.00    +0.000 A 
ATOM     18  C   UNL     1       2.007   0.024   7.175  0.00  0.00    +0.001 A 
ATOM     19  C   UNL     1       1.807   0.214   5.823  0.00  0.00    +0.010 A 
ENDBRANCH   4  14
ENDBRANCH   1   3
BRANCH   1  20
ATOM     20  N   UNL     1       4.156  -0.910   2.724  0.00  0.00    +0.384 N 
ATOM     21  H   UNL     1       4.373  -0.607   1.787  0.00  0.00    -0.081 HD
BRANCH  20  22
ATOM     22  C   UNL     1       4.587  -2.304   2.900  0.00  0.00    -0.044 C 
BRANCH  22  23
ATOM     23  C   UNL     1       3.993  -3.166   1.784  0.00  0.00    +0.124 C 
BRANCH  23  24
ATOM     24  O   UNL     1       2.577  -3.255   1.954  0.00  0.00    -0.391 OA
ATOM     25  H   UNL     1       2.306  -3.650   2.795  0.00  0.00    +0.210 HD
ENDBRANCH  23  24
BRANCH  23  26
ATOM     26  C   UNL     1       4.603  -4.567   1.842  0.00  0.00    +0.189 C 
BRANCH  26  27
ATOM     27  O   UNL     1       4.137  -5.336   0.732  0.00  0.00    -0.373 OA
BRANCH  27  28
ATOM     28  C   UNL     1       4.650  -6.669   0.691  0.00  0.00    +0.195 C 
BRANCH  28  29
ATOM     29  C   UNL     1       4.096  -7.385  -0.513  0.00  0.00    -0.022 A 
ATOM     30  C   UNL     1       2.909  -8.086  -0.415  0.00  0.00    +0.006 A 
ATOM     31  C   UNL     1       2.400  -8.743  -1.520  0.00  0.00    +0.000 A 
ATOM     32  C   UNL     1       3.079  -8.697  -2.724  0.00  0.00    +0.000 A 
ATOM     33  C   UNL     1       4.265  -7.995  -2.822  0.00  0.00    +0.000 A 
ATOM     34  C   UNL     1       4.771  -7.335  -1.718  0.00  0.00    +0.006 A 
ENDBRANCH  28  29
ENDBRANCH  27  28
ENDBRANCH  26  27
ENDBRANCH  23  26
ENDBRANCH  22  23
ENDBRANCH  20  22
BRANCH  20  35
ATOM     35  C   UNL     1       4.858  -0.055   3.691  0.00  0.00    -0.075 C 
BRANCH  35  36
ATOM     36  C   UNL     1       6.356  -0.060   3.382  0.00  0.00    -0.034 C 
ATOM     37  C   UNL     1       6.591   0.519   1.986  0.00  0.00    +0.005 C 
ATOM     38  C   UNL     1       7.093   0.792   4.418  0.00  0.00    +0.005 C 
ENDBRANCH  35  36
ENDBRANCH  20  35
ENDBRANCH   1  20
TORSDOF 13
