REMARK  Name = ZINC13499466
REMARK  11 active torsions:
REMARK  status: ('A' for Active; 'I' for Inactive)
REMARK    1  A    between atoms: C_1  and  C_2
REMARK    2  A    between atoms: C_2  and  C_3
REMARK    3  A    between atoms: C_3  and  C_4
REMARK    4  A    between atoms: C_4  and  C_6
REMARK    5  A    between atoms: C_4  and  N_75
REMARK    6  A    between atoms: N_10  and  C_11
REMARK    7  A    between atoms: C_16  and  C_17
REMARK    8  A    between atoms: C_16  and  N_75
REMARK    9  A    between atoms: C_21  and  C_30
REMARK   10  A    between atoms: C_22  and  C_29
REMARK   11  A    between atoms: C_31  and  N_75
REMARK                            x       y       z     vdW  Elec       q    Type
REMARK                         _______ _______ _______ _____ _____    ______ ____
ROOT
ATOM      1  N   UNL     1      -5.337   3.838  -1.250  0.00  0.00    +0.391 N 
ATOM      2  H   UNL     1      -4.659   4.243  -1.905  0.00  0.00    -0.080 HD
ENDROOT
BRANCH   1   3
ATOM      3  C   UNL     1      -5.738   2.502  -1.740  0.00  0.00    -0.067 C 
ATOM      4  C   UNL     1      -6.992   2.018  -1.009  0.00  0.00    -0.015 C 
ATOM      5  C   UNL     1      -7.390   0.638  -1.538  0.00  0.00    -0.002 C 
ATOM      6  C   UNL     1      -6.246  -0.349  -1.297  0.00  0.00    -0.000 C 
ATOM      7  C   UNL     1      -4.992   0.135  -2.027  0.00  0.00    -0.002 C 
ATOM      8  C   UNL     1      -4.594   1.515  -1.498  0.00  0.00    -0.015 C 
ENDBRANCH   1   3
BRANCH   1   9
ATOM      9  C   UNL     1      -6.519   4.723  -1.174  0.00  0.00    +0.003 C 
BRANCH   9  10
ATOM     10  C   UNL     1      -7.513   4.326  -2.235  0.00  0.00    +0.138 A 
ATOM     11  N   UNL     1      -7.242   3.965  -3.465  0.00  0.00    -0.115 NA
ATOM     12  N   UNL     1      -8.355   3.702  -4.057  0.00  0.00    -0.023 NA
ATOM     13  N   UNL     1      -9.330   3.893  -3.239  0.00  0.00    -0.044 NA
ATOM     14  N   UNL     1      -8.851   4.279  -2.104  0.00  0.00    -0.228 N 
BRANCH  14  15
ATOM     15  C   UNL     1      -9.620   4.604  -0.901  0.00  0.00    +0.111 C 
ATOM     16  C   UNL     1     -10.475   3.392  -0.476  0.00  0.00    +0.027 C 
ATOM     17  C   UNL     1     -11.795   4.020   0.039  0.00  0.00    +0.002 C 
ATOM     18  C   UNL     1     -12.018   5.199  -0.941  0.00  0.00    +0.002 C 
ATOM     19  C   UNL     1     -10.601   5.753  -1.196  0.00  0.00    +0.027 C 
ENDBRANCH  14  15
ENDBRANCH   9  10
BRANCH   9  20
ATOM     20  C   UNL     1      -6.064   6.164  -1.415  0.00  0.00    -0.008 C 
BRANCH  20  22
ATOM     21  C   UNL     1      -4.653   8.026  -0.530  0.00  0.00    +0.004 C 
ATOM     22  C   UNL     1      -5.010   6.547  -0.374  0.00  0.00    -0.005 C 
ENDBRANCH  20  22
ENDBRANCH   9  20
ENDBRANCH   1   9
BRANCH   1  23
ATOM     23  C   UNL     1      -4.708   3.720   0.082  0.00  0.00    -0.036 C 
BRANCH  23  24
ATOM     24  C   UNL     1      -5.688   3.163   1.082  0.00  0.00    +0.001 A 
ATOM     25  C   UNL     1      -5.687   1.836   1.361  0.00  0.00    +0.017 A 
ATOM     26  C   UNL     1      -6.651   1.326   2.338  0.00  0.00    -0.001 A 
ATOM     27  C   UNL     1      -6.698  -0.033   2.667  0.00  0.00    +0.013 A 
ATOM     28  C   UNL     1      -7.610  -0.477   3.582  0.00  0.00    -0.047 A 
ATOM     29  C   UNL     1      -8.490   0.408   4.189  0.00  0.00    -0.046 A 
ATOM     30  C   UNL     1      -8.462   1.751   3.880  0.00  0.00    +0.030 A 
ATOM     31  C   UNL     1      -7.546   2.225   2.947  0.00  0.00    +0.049 A 
ATOM     32  N   UNL     1      -7.492   3.565   2.623  0.00  0.00    -0.322 N 
ATOM     33  H   UNL     1      -8.106   4.184   3.047  0.00  0.00    +0.169 HD
ATOM     34  C   UNL     1      -6.603   4.024   1.725  0.00  0.00    +0.251 A 
ATOM     35  O   UNL     1      -6.587   5.213   1.460  0.00  0.00    -0.268 OA
ATOM     36  C   UNL     1      -9.487  -0.104   5.196  0.00  0.00    +0.044 C 
ATOM     37  C   UNL     1      -7.661  -1.941   3.936  0.00  0.00    +0.044 C 
ENDBRANCH  23  24
ENDBRANCH   1  23
TORSDOF 8
