REMARK  Name = ZINC23895043
REMARK  14 active torsions:
REMARK  status: ('A' for Active; 'I' for Inactive)
REMARK    1  A    between atoms: C_1  and  C_2
REMARK    2  A    between atoms: C_2  and  C_3
REMARK    3  A    between atoms: C_3  and  C_5
REMARK    4  A    between atoms: C_3  and  N_6
REMARK    5  A    between atoms: N_6  and  C_7
REMARK    6  A    between atoms: C_7  and  C_8
REMARK    7  A    between atoms: N_10  and  C_11
REMARK    8  A    between atoms: C_15  and  C_18
REMARK    9  A    between atoms: C_16  and  C_17
REMARK   10  A    between atoms: C_19  and  C_21
REMARK   11  A    between atoms: C_21  and  O_22
REMARK   12  A    between atoms: O_22  and  C_23
REMARK   13  A    between atoms: C_23  and  C_25
REMARK   14  A    between atoms: C_34  and  O_37
REMARK                            x       y       z     vdW  Elec       q    Type
REMARK                         _______ _______ _______ _____ _____    ______ ____
ROOT
ATOM      1  N   UNL     1       2.080  -0.111  -1.121  0.00  0.00    -0.287 N 
ATOM      2  C   UNL     1       2.856  -0.448  -0.072  0.00  0.00    +0.254 C 
ATOM      3  O   UNL     1       3.947   0.065   0.065  0.00  0.00    -0.272 OA
ENDROOT
BRANCH   1   4
ATOM      4  C   UNL     1       0.721  -0.647  -1.228  0.00  0.00    +0.073 C 
ATOM      5  C   UNL     1      -0.288   0.500  -1.137  0.00  0.00    +0.028 C 
BRANCH   4   7
ATOM      6  C   UNL     1       1.490  -2.576  -2.617  0.00  0.00    +0.005 C 
ATOM      7  C   UNL     1       0.558  -1.363  -2.570  0.00  0.00    +0.019 C 
ENDBRANCH   4   7
ENDBRANCH   1   4
BRANCH   1   8
ATOM      8  C   UNL     1       2.595   0.790  -2.155  0.00  0.00    +0.204 C 
BRANCH   8   9
ATOM      9  C   UNL     1       2.401   2.219  -1.717  0.00  0.00    +0.235 C 
ATOM     10  O   UNL     1       1.971   2.461  -0.609  0.00  0.00    -0.274 OA
ATOM     11  N   UNL     1       2.703   3.228  -2.558  0.00  0.00    -0.284 N 
ATOM     12  H   UNL     1       2.983   3.035  -3.466  0.00  0.00    +0.155 HD
BRANCH  11  13
ATOM     13  C   UNL     1       2.614   4.554  -2.120  0.00  0.00    +0.037 A 
ATOM     14  C   UNL     1       1.741   4.891  -1.093  0.00  0.00    +0.023 A 
ATOM     15  C   UNL     1       1.656   6.200  -0.663  0.00  0.00    +0.002 A 
ATOM     16  C   UNL     1       2.438   7.176  -1.254  0.00  0.00    +0.004 A 
ATOM     17  C   UNL     1       3.307   6.845  -2.277  0.00  0.00    -0.046 A 
ATOM     18  C   UNL     1       3.402   5.535  -2.707  0.00  0.00    -0.026 A 
ATOM     19  C   UNL     1       4.356   5.173  -3.817  0.00  0.00    +0.046 C 
ATOM     20  C   UNL     1       4.157   7.911  -2.918  0.00  0.00    +0.044 C 
ENDBRANCH  11  13
ENDBRANCH   8   9
ENDBRANCH   1   8
BRANCH   2  21
ATOM     21  C   UNL     1       2.369  -1.461   0.931  0.00  0.00    +0.327 C 
BRANCH  21  22
ATOM     22  O   UNL     1       3.312  -1.565   2.000  0.00  0.00    -0.455 OA
BRANCH  22  23
ATOM     23  C   UNL     1       3.025  -2.431   2.984  0.00  0.00    +0.314 C 
ATOM     24  O   UNL     1       2.008  -3.081   2.939  0.00  0.00    -0.250 OA
BRANCH  23  25
ATOM     25  C   UNL     1       3.973  -2.594   4.145  0.00  0.00    +0.071 C 
ATOM     26  C   UNL     1       5.336  -3.059   3.628  0.00  0.00    +0.021 C 
ATOM     27  C   UNL     1       6.298  -3.224   4.807  0.00  0.00    -0.007 C 
ATOM     28  C   UNL     1       6.456  -1.884   5.529  0.00  0.00    +0.007 C 
ATOM     29  C   UNL     1       5.093  -1.420   6.045  0.00  0.00    -0.007 C 
ATOM     30  C   UNL     1       4.130  -1.254   4.866  0.00  0.00    +0.021 C 
ATOM     31  C   UNL     1       4.534  -2.460   7.017  0.00  0.00    +0.038 C 
ATOM     32  C   UNL     1       4.376  -3.800   6.295  0.00  0.00    +0.068 C 
ATOM     33  C   UNL     1       5.739  -4.265   5.779  0.00  0.00    +0.038 C 
ATOM     34  C   UNL     1       3.414  -3.635   5.117  0.00  0.00    +0.052 C 
BRANCH  32  35
ATOM     35  O   UNL     1       3.854  -4.772   7.204  0.00  0.00    -0.389 OA
ATOM     36  H   UNL     1       4.414  -4.928   7.977  0.00  0.00    +0.210 HD
ENDBRANCH  32  35
ENDBRANCH  23  25
ENDBRANCH  22  23
ENDBRANCH  21  22
ENDBRANCH   2  21
TORSDOF 10
