REMARK  Name = ZINC53656116
REMARK  5 active torsions:
REMARK  status: ('A' for Active; 'I' for Inactive)
REMARK    1  A    between atoms: C_5  and  C_6
REMARK    2  A    between atoms: C_6  and  N_7
REMARK    3  A    between atoms: C_11  and  C_14
REMARK    4  A    between atoms: C_14  and  N_15
REMARK    5  A    between atoms: N_15  and  C_16
REMARK                            x       y       z     vdW  Elec       q    Type
REMARK                         _______ _______ _______ _____ _____    ______ ____
ROOT
ATOM      1  N   UNL     1      -1.546  -1.275  -1.374  0.00  0.00    -0.297 NA
ATOM      2  C   UNL     1      -2.081  -0.084  -2.046  0.00  0.00    +0.085 C 
ATOM      3  C   UNL     1      -2.340  -0.401  -3.521  0.00  0.00    +0.016 C 
ATOM      4  C   UNL     1      -3.338  -1.558  -3.621  0.00  0.00    +0.004 C 
ATOM      5  C   UNL     1      -2.778  -2.771  -2.872  0.00  0.00    -0.014 C 
ATOM      6  C   UNL     1      -2.507  -2.385  -1.417  0.00  0.00    +0.086 C 
ENDROOT
BRANCH   1   7
ATOM      7  C   UNL     1      -1.156  -0.969   0.009  0.00  0.00    +0.126 C 
BRANCH   7  12
ATOM      8  C   UNL     1      -0.016   1.351   0.009  0.00  0.00    +0.013 A 
ATOM      9  C   UNL     1       1.183   2.038   0.002  0.00  0.00    +0.023 A 
ATOM     10  C   UNL     1       2.343   1.335  -0.013  0.00  0.00    +0.055 A 
ATOM     11  S   UNL     1       1.753  -0.350  -0.017  0.00  0.00    -0.085 S 
ATOM     12  C   UNL     1       0.002  -0.004   0.002  0.00  0.00    +0.005 A 
ATOM     13 BR   UNL     1       4.123   1.974  -0.027  0.00  0.00    -0.043 Br
ENDBRANCH   7  12
ENDBRANCH   1   7
BRANCH   5  14
ATOM     14  C   UNL     1      -3.796  -3.913  -2.917  0.00  0.00    -0.078 C 
BRANCH  14  15
ATOM     15  N   UNL     1      -3.969  -4.359  -4.306  0.00  0.00    +0.381 N 
ATOM     16  H   UNL     1      -4.301  -3.590  -4.868  0.00  0.00    -0.086 HD
ATOM     17  H   UNL     1      -3.084  -4.683  -4.668  0.00  0.00    -0.086 HD
BRANCH  15  18
ATOM     18  C   UNL     1      -4.946  -5.456  -4.349  0.00  0.00    -0.072 C 
ATOM     19  C   UNL     1      -4.450  -6.825  -4.821  0.00  0.00    -0.017 C 
ATOM     20  C   UNL     1      -5.354  -5.984  -5.726  0.00  0.00    -0.017 C 
ENDBRANCH  15  18
ENDBRANCH  14  15
ENDBRANCH   5  14
TORSDOF 5
