REMARK  Name = ZINC59364886
REMARK  17 active torsions:
REMARK  status: ('A' for Active; 'I' for Inactive)
REMARK    1  A    between atoms: C_1  and  C_2
REMARK    2  A    between atoms: C_2  and  O_3
REMARK    3  A    between atoms: O_3  and  C_4
REMARK    4  A    between atoms: C_7  and  N_10
REMARK    5  A    between atoms: C_12  and  C_33
REMARK    6  A    between atoms: C_16  and  C_17
REMARK    7  A    between atoms: C_20  and  O_25
REMARK    8  A    between atoms: C_21  and  O_23
REMARK    9  A    between atoms: O_23  and  C_24
REMARK   10  A    between atoms: O_25  and  C_26
REMARK   11  A    between atoms: C_26  and  C_27
REMARK   12  A    between atoms: C_27  and  O_29
REMARK   13  A    between atoms: O_29  and  C_30
REMARK   14  A    between atoms: C_30  and  C_31
REMARK   15  A    between atoms: C_33  and  O_35
REMARK   16  A    between atoms: O_35  and  C_36
REMARK   17  A    between atoms: C_36  and  C_37
REMARK                            x       y       z     vdW  Elec       q    Type
REMARK                         _______ _______ _______ _____ _____    ______ ____
ROOT
ATOM      1  N   UNL     1      -2.869  -5.854  -0.714  0.00  0.00    -0.240 NA
ATOM      2  C   UNL     1      -3.555  -6.440   0.249  0.00  0.00    +0.120 C 
ATOM      3  C   UNL     1      -3.893  -7.864   0.406  0.00  0.00    +0.139 C 
ATOM      4  C   UNL     1      -4.625  -8.204   1.514  0.00  0.00    +0.209 C 
ATOM      5  O   UNL     1      -4.980  -9.490   1.738  0.00  0.00    -0.286 OA
ATOM      6  C   UNL     1      -5.002  -7.182   2.418  0.00  0.00    +0.062 C 
ATOM      7  C   UNL     1      -5.722  -7.297   3.570  0.00  0.00    +0.027 C 
ATOM      8  S   UNL     1      -4.302  -5.710   1.696  0.00  0.00    -0.065 S 
ENDROOT
BRANCH   1  12
ATOM      9  C   UNL     1      -2.222  -1.768  -0.601  0.00  0.00    +0.121 A 
ATOM     10  C   UNL     1      -1.176  -2.626  -0.914  0.00  0.00    +0.048 A 
ATOM     11  C   UNL     1      -1.386  -3.988  -0.953  0.00  0.00    +0.031 A 
ATOM     12  C   UNL     1      -2.655  -4.505  -0.676  0.00  0.00    +0.065 A 
ATOM     13  C   UNL     1      -3.705  -3.637  -0.361  0.00  0.00    +0.031 A 
ATOM     14  C   UNL     1      -3.482  -2.277  -0.320  0.00  0.00    +0.048 A 
BRANCH   9  15
ATOM     15  O   UNL     1      -2.009  -0.426  -0.564  0.00  0.00    -0.492 OA
BRANCH  15  17
ATOM     16  C   UNL     1      -0.642   1.557  -0.771  0.00  0.00    +0.048 C 
ATOM     17  C   UNL     1      -0.688   0.030  -0.863  0.00  0.00    +0.225 C 
ENDBRANCH  15  17
ENDBRANCH   9  15
ENDBRANCH   1  12
BRANCH   7  18
ATOM     18  C   UNL     1      -6.148  -6.094   4.292  0.00  0.00    -0.020 A 
ATOM     19  C   UNL     1      -6.198  -4.859   3.632  0.00  0.00    +0.012 A 
ATOM     20  C   UNL     1      -6.598  -3.731   4.313  0.00  0.00    +0.050 A 
ATOM     21  C   UNL     1      -6.953  -3.814   5.653  0.00  0.00    +0.163 A 
ATOM     22  C   UNL     1      -6.907  -5.039   6.318  0.00  0.00    +0.162 A 
ATOM     23  C   UNL     1      -6.511  -6.176   5.643  0.00  0.00    +0.057 A 
BRANCH  22  24
ATOM     24  O   UNL     1      -7.255  -5.114   7.630  0.00  0.00    -0.491 OA
ATOM     25  C   UNL     1      -7.184  -6.401   8.248  0.00  0.00    +0.277 C 
ENDBRANCH  22  24
BRANCH  21  26
ATOM     26  O   UNL     1      -7.347  -2.697   6.319  0.00  0.00    -0.477 OA
BRANCH  26  27
ATOM     27  C   UNL     1      -7.372  -1.475   5.578  0.00  0.00    +0.349 C 
BRANCH  27  28
ATOM     28  C   UNL     1      -7.831  -0.354   6.475  0.00  0.00    +0.345 C 
ATOM     29  O   UNL     1      -8.108  -0.578   7.629  0.00  0.00    -0.247 OA
BRANCH  28  30
ATOM     30  O   UNL     1      -7.931   0.894   5.991  0.00  0.00    -0.463 OA
BRANCH  30  31
ATOM     31  C   UNL     1      -8.372   1.908   6.896  0.00  0.00    +0.229 C 
ATOM     32  C   UNL     1      -8.424   3.253   6.170  0.00  0.00    +0.048 C 
ENDBRANCH  30  31
ENDBRANCH  28  30
ENDBRANCH  27  28
ENDBRANCH  26  27
ENDBRANCH  21  26
ENDBRANCH   7  18
BRANCH   3  33
ATOM     33  C   UNL     1      -3.469  -8.867  -0.572  0.00  0.00    +0.346 C 
ATOM     34  O   UNL     1      -3.765 -10.036  -0.412  0.00  0.00    -0.245 OA
BRANCH  33  35
ATOM     35  O   UNL     1      -2.749  -8.494  -1.651  0.00  0.00    -0.461 OA
BRANCH  35  36
ATOM     36  C   UNL     1      -2.369  -9.525  -2.564  0.00  0.00    +0.229 C 
ATOM     37  C   UNL     1      -1.565  -8.916  -3.715  0.00  0.00    +0.048 C 
ENDBRANCH  35  36
ENDBRANCH  33  35
ENDBRANCH   3  33
TORSDOF 13
