REMARK  Name = ZINC38701005
REMARK  13 active torsions:
REMARK  status: ('A' for Active; 'I' for Inactive)
REMARK    1  A    between atoms: C_1  and  C_2
REMARK    2  A    between atoms: C_2  and  C_3
REMARK    3  A    between atoms: C_3  and  O_4
REMARK    4  A    between atoms: O_4  and  C_5
REMARK    5  A    between atoms: C_9  and  C_11
REMARK    6  A    between atoms: C_16  and  O_25
REMARK    7  A    between atoms: C_20  and  N_24
REMARK    8  A    between atoms: C_21  and  C_22
REMARK    9  A    between atoms: O_25  and  C_26
REMARK   10  A    between atoms: C_26  and  C_28
REMARK   11  A    between atoms: C_29  and  C_39
REMARK   12  A    between atoms: C_32  and  C_38
REMARK   13  A    between atoms: C_33  and  C_37
REMARK                            x       y       z     vdW  Elec       q    Type
REMARK                         _______ _______ _______ _____ _____    ______ ____
ROOT
ATOM      1  C   UNL     1      -4.013  -6.117  -0.009  0.00  0.00    +0.098 C 
ATOM      2  C   UNL     1      -4.713  -6.590   1.238  0.00  0.00    +0.008 A 
ATOM      3  C   UNL     1      -4.008  -6.667   2.426  0.00  0.00    +0.012 A 
ATOM      4  C   UNL     1      -4.633  -7.100   3.579  0.00  0.00    +0.047 A 
ATOM      5  C   UNL     1      -5.973  -7.460   3.548  0.00  0.00    +0.136 A 
ATOM      6  C   UNL     1      -6.682  -7.383   2.360  0.00  0.00    +0.093 A 
ATOM      7  C   UNL     1      -6.051  -6.948   1.201  0.00  0.00    +0.138 A 
ATOM      8  O   UNL     1      -6.758  -6.879   0.046  0.00  0.00    -0.441 OA
ATOM      9  C   UNL     1      -6.114  -6.843  -1.132  0.00  0.00    +0.199 C 
ATOM     10  C   UNL     1      -4.814  -6.489  -1.224  0.00  0.00    +0.098 C 
ENDROOT
BRANCH   1  15
ATOM     11  C   UNL     1      -2.451  -2.676   0.066  0.00  0.00    +0.121 A 
ATOM     12  C   UNL     1      -3.575  -1.867   0.146  0.00  0.00    +0.045 A 
ATOM     13  C   UNL     1      -4.834  -2.435   0.176  0.00  0.00    +0.004 A 
ATOM     14  C   UNL     1      -4.974  -3.810   0.125  0.00  0.00    +0.005 A 
ATOM     15  C   UNL     1      -3.856  -4.619   0.046  0.00  0.00    -0.031 A 
ATOM     16  C   UNL     1      -2.595  -4.055   0.010  0.00  0.00    +0.050 A 
BRANCH  11  17
ATOM     17  O   UNL     1      -1.212  -2.120   0.036  0.00  0.00    -0.492 OA
BRANCH  17  18
ATOM     18  C   UNL     1      -1.140  -0.694   0.098  0.00  0.00    +0.229 C 
BRANCH  18  20
ATOM     19  C   UNL     1       0.403   1.272   0.118  0.00  0.00    +0.007 C 
ATOM     20  C   UNL     1       0.325  -0.255   0.053  0.00  0.00    +0.038 C 
ENDBRANCH  18  20
ENDBRANCH  17  18
ENDBRANCH  11  17
ENDBRANCH   1  15
BRANCH   9  21
ATOM     21  N   UNL     1      -6.798  -7.176  -2.275  0.00  0.00    -0.328 N 
ATOM     22  H   UNL     1      -7.733  -7.431  -2.224  0.00  0.00    +0.145 HD
ATOM     23  H   UNL     1      -6.347  -7.155  -3.134  0.00  0.00    +0.145 HD
ENDBRANCH   9  21
BRANCH  10  24
ATOM     24  C   UNL     1      -4.186  -6.470  -2.511  0.00  0.00    +0.101 C 
ATOM     25  N   UNL     1      -3.688  -6.455  -3.532  0.00  0.00    -0.191 NA
ENDBRANCH  10  24
BRANCH   5  26
ATOM     26  O   UNL     1      -6.590  -7.887   4.681  0.00  0.00    -0.420 OA
BRANCH  26  27
ATOM     27  C   UNL     1      -6.949  -9.185   4.756  0.00  0.00    +0.380 C 
ATOM     28  O   UNL     1      -6.627  -9.957   3.874  0.00  0.00    -0.241 OA
BRANCH  27  29
ATOM     29  C   UNL     1      -7.728  -9.666   5.904  0.00  0.00    +0.216 A 
ATOM     30  C   UNL     1      -8.140 -10.948   6.088  0.00  0.00    +0.010 A 
ATOM     31  C   UNL     1      -8.875 -10.959   7.351  0.00  0.00    +0.024 A 
ATOM     32  C   UNL     1      -9.536 -11.948   8.084  0.00  0.00    +0.015 A 
ATOM     33  C   UNL     1     -10.143 -11.625   9.264  0.00  0.00    -0.047 A 
ATOM     34  C   UNL     1     -10.108 -10.320   9.739  0.00  0.00    -0.044 A 
ATOM     35  C   UNL     1      -9.462  -9.330   9.031  0.00  0.00    +0.050 A 
ATOM     36  C   UNL     1      -8.836  -9.636   7.828  0.00  0.00    +0.137 A 
ATOM     37  O   UNL     1      -8.139  -8.902   6.938  0.00  0.00    -0.448 OA
ATOM     38  C   UNL     1     -10.785  -9.983  11.043  0.00  0.00    +0.044 C 
ATOM     39  C   UNL     1     -10.857 -12.690  10.056  0.00  0.00    +0.044 C 
ATOM     40  C   UNL     1      -7.890 -12.120   5.174  0.00  0.00    +0.048 C 
ENDBRANCH  27  29
ENDBRANCH  26  27
ENDBRANCH   5  26
TORSDOF 9
