REMARK  Name = ZINC10215089
REMARK  4 active torsions:
REMARK  status: ('A' for Active; 'I' for Inactive)
REMARK    1  A    between atoms: C_1  and  O_2
REMARK    2  A    between atoms: O_2  and  C_3
REMARK    3  A    between atoms: C_6  and  C_9
REMARK    4  A    between atoms: C_22  and  C_24
REMARK                            x       y       z     vdW  Elec       q    Type
REMARK                         _______ _______ _______ _____ _____    ______ ____
ROOT
ATOM      1  C   UNL     1      -0.800   1.615  -1.174  0.00  0.00    +0.068 C 
ATOM      2  N   UNL     1      -1.888   2.171  -0.753  0.00  0.00    -0.185 NA
ATOM      3  N   UNL     1      -2.049   2.101   0.619  0.00  0.00    -0.205 N 
ATOM      4  C   UNL     1      -0.787   1.608   1.226  0.00  0.00    +0.136 C 
ATOM      5  C   UNL     1      -0.013   1.086   0.008  0.00  0.00    +0.086 C 
ATOM      6  C   UNL     1      -1.177   0.498   2.165  0.00  0.00    +0.018 A 
ATOM      7  C   UNL     1      -0.202  -0.365   2.628  0.00  0.00    +0.024 A 
ATOM      8  C   UNL     1      -0.524  -1.365   3.526  0.00  0.00    +0.018 A 
ATOM      9  C   UNL     1      -1.830  -1.501   3.961  0.00  0.00    +0.019 A 
ATOM     10  C   UNL     1      -2.807  -0.649   3.494  0.00  0.00    +0.047 A 
ATOM     11  C   UNL     1      -2.493   0.359   2.581  0.00  0.00    +0.129 A 
ATOM     12  O   UNL     1      -3.510   1.146   2.148  0.00  0.00    -0.465 OA
ATOM     13  C   UNL     1      -3.228   2.366   1.452  0.00  0.00    +0.311 C 
ATOM     14 BR   UNL     1       0.814  -2.543   4.157  0.00  0.00    -0.050 Br
ENDROOT
BRANCH   1  18
ATOM     15  C   UNL     1       0.386   1.316  -5.240  0.00  0.00    +0.120 A 
ATOM     16  C   UNL     1      -0.811   1.939  -4.912  0.00  0.00    +0.046 A 
ATOM     17  C   UNL     1      -1.200   2.038  -3.593  0.00  0.00    +0.013 A 
ATOM     18  C   UNL     1      -0.388   1.511  -2.586  0.00  0.00    -0.002 A 
ATOM     19  C   UNL     1       0.818   0.889  -2.920  0.00  0.00    +0.013 A 
ATOM     20  C   UNL     1       1.196   0.790  -4.242  0.00  0.00    +0.046 A 
BRANCH  15  22
ATOM     21  C   UNL     1       2.009   0.567  -6.808  0.00  0.00    +0.277 C 
ATOM     22  O   UNL     1       0.766   1.220  -6.541  0.00  0.00    -0.495 OA
ENDBRANCH  15  22
ENDBRANCH   1  18
BRANCH  13  23
ATOM     23  C   UNL     1      -4.399   2.750   0.585  0.00  0.00    +0.020 A 
ATOM     24  C   UNL     1      -5.379   3.599   1.063  0.00  0.00    +0.016 A 
ATOM     25  C   UNL     1      -6.416   3.929   0.255  0.00  0.00    +0.045 A 
ATOM     26  S   UNL     1      -6.032   3.015  -1.229  0.00  0.00    -0.105 S 
ATOM     27  C   UNL     1      -4.511   2.262  -0.675  0.00  0.00    +0.054 A 
ENDBRANCH  13  23
TORSDOF 3
