REMARK  Name = ZINC33389800
REMARK  11 active torsions:
REMARK  status: ('A' for Active; 'I' for Inactive)
REMARK    1  A    between atoms: C_1  and  C_2
REMARK    2  A    between atoms: C_2  and  C_3
REMARK    3  A    between atoms: C_3  and  C_4
REMARK    4  A    between atoms: C_4  and  N_5
REMARK    5  A    between atoms: C_10  and  C_32
REMARK    6  A    between atoms: C_13  and  C_18
REMARK    7  A    between atoms: C_13  and  C_29
REMARK    8  A    between atoms: C_18  and  C_19
REMARK    9  A    between atoms: C_35  and  C_38
REMARK   10  A    between atoms: C_38  and  O_40
REMARK   11  A    between atoms: O_40  and  C_41
REMARK                            x       y       z     vdW  Elec       q    Type
REMARK                         _______ _______ _______ _____ _____    ______ ____
ROOT
ATOM      1  N   UNL     1       1.028  -4.423  -0.942  0.00  0.00    -0.242 N 
ATOM      2  C   UNL     1       2.071  -3.731  -1.490  0.00  0.00    +0.224 C 
ATOM      3  O   UNL     1       3.023  -4.193  -2.083  0.00  0.00    -0.275 OA
ATOM      4  C   UNL     1       1.799  -2.287  -1.210  0.00  0.00    +0.077 C 
ATOM      5  C   UNL     1       2.036  -1.214  -2.259  0.00  0.00    -0.027 C 
ATOM      6  N   UNL     1       0.855  -0.303  -2.176  0.00  0.00    +0.396 N 
ATOM      7  C   UNL     1      -0.145  -0.932  -1.246  0.00  0.00    +0.052 C 
ATOM      8  C   UNL     1       0.221  -2.358  -1.297  0.00  0.00    +0.086 C 
ATOM      9  C   UNL     1      -0.043  -3.618  -0.643  0.00  0.00    +0.225 C 
ATOM     10  O   UNL     1      -1.008  -3.896   0.036  0.00  0.00    -0.275 OA
ATOM     11  H   UNL     1       1.173   0.676  -1.789  0.00  0.00    -0.083 HD
ATOM     12  H   UNL     1       0.418  -0.177  -3.177  0.00  0.00    -0.083 HD
ENDROOT
BRANCH   5  13
ATOM     13  C   UNL     1       2.121  -1.834  -3.630  0.00  0.00    -0.061 A 
ATOM     14  C   UNL     1       3.357  -2.125  -4.179  0.00  0.00    +0.003 A 
ATOM     15  C   UNL     1       3.441  -2.698  -5.431  0.00  0.00    +0.015 A 
ATOM     16  C   UNL     1       2.276  -2.974  -6.149  0.00  0.00    +0.059 A 
ATOM     17  C   UNL     1       1.032  -2.673  -5.591  0.00  0.00    +0.015 A 
ATOM     18  C   UNL     1       0.962  -2.105  -4.335  0.00  0.00    +0.003 A 
BRANCH  16  19
ATOM     19  C   UNL     1       2.359  -3.583  -7.492  0.00  0.00    +0.339 C 
ATOM     20  O   UNL     1       1.343  -3.822  -8.114  0.00  0.00    -0.245 OA
BRANCH  19  21
ATOM     21  O   UNL     1       3.561  -3.873  -8.027  0.00  0.00    -0.464 OA
ATOM     22  C   UNL     1       3.566  -4.469  -9.351  0.00  0.00    +0.280 C 
ENDBRANCH  19  21
ENDBRANCH  16  19
ENDBRANCH   5  13
BRANCH   7  23
ATOM     23  C   UNL     1      -1.551  -0.722  -1.748  0.00  0.00    +0.347 C 
ATOM     24  O   UNL     1      -2.366  -1.608  -1.650  0.00  0.00    -0.248 OA
ATOM     25  O   UNL     1      -1.896   0.450  -2.304  0.00  0.00    -0.248 OA
ENDBRANCH   7  23
BRANCH   1  26
ATOM     26  C   UNL     1       1.050  -5.868  -0.699  0.00  0.00    +0.116 C 
BRANCH  26  27
ATOM     27  C   UNL     1       1.599  -6.141   0.703  0.00  0.00    +0.019 C 
BRANCH  27  29
ATOM     28  C   UNL     1       2.170  -7.923   2.358  0.00  0.00    +0.004 C 
ATOM     29  C   UNL     1       1.622  -7.649   0.956  0.00  0.00    -0.002 C 
ENDBRANCH  27  29
ENDBRANCH  26  27
ENDBRANCH   1  26
BRANCH   7  30
ATOM     30  C   UNL     1       0.010  -0.382   0.173  0.00  0.00    +0.037 C 
BRANCH  30  31
ATOM     31  C   UNL     1      -0.308   1.091   0.179  0.00  0.00    -0.023 A 
ATOM     32  C   UNL     1       0.573   2.099   0.073  0.00  0.00    +0.087 A 
ATOM     33  N   UNL     1      -0.084   3.299   0.117  0.00  0.00    -0.360 N 
ATOM     34  H   UNL     1       0.483   4.239   0.043  0.00  0.00    +0.165 HD
ATOM     35  C   UNL     1      -1.437   3.087   0.254  0.00  0.00    +0.047 A 
ATOM     36  C   UNL     1      -1.638   1.695   0.293  0.00  0.00    +0.003 A 
ATOM     37  C   UNL     1      -2.929   1.181   0.424  0.00  0.00    +0.010 A 
ATOM     38  C   UNL     1      -3.993   2.033   0.509  0.00  0.00    +0.001 A 
ATOM     39  C   UNL     1      -3.801   3.407   0.468  0.00  0.00    +0.002 A 
ATOM     40  C   UNL     1      -2.535   3.936   0.347  0.00  0.00    +0.026 A 
ENDBRANCH  30  31
ENDBRANCH   7  30
TORSDOF 9
