REMARK  Name = ZINC40368044
REMARK  8 active torsions:
REMARK  status: ('A' for Active; 'I' for Inactive)
REMARK    1  A    between atoms: C_1  and  C_2
REMARK    2  A    between atoms: C_2  and  C_3
REMARK    3  A    between atoms: C_3  and  C_4
REMARK    4  A    between atoms: C_4  and  N_5
REMARK    5  A    between atoms: N_11  and  C_14
REMARK    6  A    between atoms: C_17  and  N_20
REMARK    7  A    between atoms: N_20  and  S_21
REMARK    8  A    between atoms: S_21  and  C_24
REMARK                            x       y       z     vdW  Elec       q    Type
REMARK                         _______ _______ _______ _____ _____    ______ ____
ROOT
ATOM      1  C   UNL     1       4.785  -5.538  -6.615  0.00  0.00    +0.030 A 
ATOM      2  C   UNL     1       4.773  -6.897  -6.899  0.00  0.00    +0.025 A 
ATOM      3  C   UNL     1       5.305  -7.359  -8.087  0.00  0.00    +0.026 A 
ATOM      4  C   UNL     1       5.852  -6.465  -8.997  0.00  0.00    +0.048 A 
ATOM      5  C   UNL     1       5.864  -5.105  -8.714  0.00  0.00    +0.026 A 
ATOM      6  C   UNL     1       5.327  -4.643  -7.529  0.00  0.00    +0.025 A 
ENDROOT
BRANCH   1  13
ATOM      7  N   UNL     1       1.486  -2.477  -2.447  0.00  0.00    -0.299 N 
ATOM      8  C   UNL     1       1.689  -3.797  -2.626  0.00  0.00    +0.302 C 
ATOM      9  O   UNL     1       1.404  -4.581  -1.741  0.00  0.00    -0.253 OA
ATOM     10  N   UNL     1       2.208  -4.248  -3.785  0.00  0.00    -0.283 N 
ATOM     11  C   UNL     1       2.668  -3.306  -4.815  0.00  0.00    +0.128 C 
ATOM     12  C   UNL     1       4.128  -3.627  -5.155  0.00  0.00    +0.124 C 
ATOM     13  N   UNL     1       4.246  -5.069  -5.411  0.00  0.00    -0.327 N 
ATOM     14  C   UNL     1       3.787  -6.011  -4.381  0.00  0.00    +0.124 C 
ATOM     15  C   UNL     1       2.331  -5.691  -4.038  0.00  0.00    +0.128 C 
ATOM     16  H   UNL     1       1.780  -1.845  -3.122  0.00  0.00    +0.150 HD
BRANCH   7  17
ATOM     17  C   UNL     1       0.822  -1.996  -1.233  0.00  0.00    +0.106 C 
BRANCH  17  18
ATOM     18  C   UNL     1       0.718  -0.470  -1.279  0.00  0.00    +0.018 C 
BRANCH  18  20
ATOM     19  C   UNL     1      -0.080   1.558  -0.058  0.00  0.00    +0.004 C 
ATOM     20  C   UNL     1       0.024   0.033  -0.011  0.00  0.00    -0.002 C 
ENDBRANCH  18  20
ENDBRANCH  17  18
ENDBRANCH   7  17
ENDBRANCH   1  13
BRANCH   4  21
ATOM     21  N   UNL     1       6.392  -6.933 -10.201  0.00  0.00    -0.216 N 
ATOM     22  H   UNL     1       6.985  -7.701 -10.200  0.00  0.00    +0.174 HD
BRANCH  21  23
ATOM     23  S   UNL     1       6.019  -6.176 -11.626  0.00  0.00    +0.072 S 
ATOM     24  O   UNL     1       6.301  -4.796 -11.438  0.00  0.00    -0.150 OA
ATOM     25  O   UNL     1       6.619  -6.943 -12.662  0.00  0.00    -0.150 OA
BRANCH  23  26
ATOM     26  C   UNL     1       4.276  -6.309 -11.845  0.00  0.00    +0.109 A 
ATOM     27  C   UNL     1       3.737  -7.444 -12.421  0.00  0.00    +0.030 A 
ATOM     28  C   UNL     1       2.369  -7.549 -12.593  0.00  0.00    +0.022 A 
ATOM     29  C   UNL     1       1.540  -6.517 -12.191  0.00  0.00    +0.041 A 
ATOM     30  C   UNL     1       2.081  -5.381 -11.615  0.00  0.00    +0.022 A 
ATOM     31  C   UNL     1       3.448  -5.280 -11.438  0.00  0.00    +0.030 A 
ATOM     32 CL   UNL     1      -0.177  -6.648 -12.408  0.00  0.00    -0.084 Cl
ENDBRANCH  23  26
ENDBRANCH  21  23
ENDBRANCH   4  21
TORSDOF 7
