REMARK  Name = ZINC02153560
REMARK  13 active torsions:
REMARK  status: ('A' for Active; 'I' for Inactive)
REMARK    1  A    between atoms: C_1  and  O_2
REMARK    2  A    between atoms: O_2  and  C_3
REMARK    3  A    between atoms: C_5  and  C_13
REMARK    4  A    between atoms: C_7  and  O_11
REMARK    5  A    between atoms: C_8  and  O_9
REMARK    6  A    between atoms: O_9  and  C_10
REMARK    7  A    between atoms: O_11  and  C_12
REMARK    8  A    between atoms: N_32  and  C_35
REMARK    9  A    between atoms: C_35  and  C_36
REMARK   10  A    between atoms: C_36  and  C_37
REMARK   11  A    between atoms: C_37  and  C_38
REMARK   12  A    between atoms: C_38  and  C_39
REMARK   13  A    between atoms: C_39  and  O_40
REMARK                            x       y       z     vdW  Elec       q    Type
REMARK                         _______ _______ _______ _____ _____    ______ ____
ROOT
ATOM      1  C   UNL     1      -1.122   7.129   1.860  0.00  0.00    +0.154 C 
ATOM      2  C   UNL     1      -0.139   7.836   0.954  0.00  0.00    +0.046 A 
ATOM      3  C   UNL     1       0.977   8.452   1.401  0.00  0.00    -0.015 A 
ATOM      4  C   UNL     1       1.651   9.001   0.242  0.00  0.00    +0.003 A 
ATOM      5  C   UNL     1       2.835   9.729   0.090  0.00  0.00    +0.010 A 
ATOM      6  C   UNL     1       3.178  10.097  -1.187  0.00  0.00    +0.001 A 
ATOM      7  C   UNL     1       2.397   9.767  -2.283  0.00  0.00    +0.002 A 
ATOM      8  C   UNL     1       1.221   9.046  -2.162  0.00  0.00    +0.026 A 
ATOM      9  C   UNL     1       0.848   8.660  -0.877  0.00  0.00    +0.047 A 
ATOM     10  N   UNL     1      -0.225   7.957  -0.408  0.00  0.00    -0.356 N 
ATOM     11  H   UNL     1      -0.939   7.596  -0.956  0.00  0.00    +0.166 HD
ATOM     12  C   UNL     1       1.395   8.527   2.847  0.00  0.00    +0.069 C 
ATOM     13  C   UNL     1       0.626   7.462   3.642  0.00  0.00    +0.167 C 
ATOM     14  N   UNL     1      -0.782   7.495   3.252  0.00  0.00    -0.276 N 
ATOM     15  C   UNL     1      -1.764   7.840   4.088  0.00  0.00    +0.234 C 
ATOM     16  O   UNL     1      -2.890   7.902   3.643  0.00  0.00    -0.274 OA
ATOM     17  C   UNL     1      -1.568   8.155   5.535  0.00  0.00    +0.203 C 
ATOM     18  N   UNL     1      -0.180   8.012   5.942  0.00  0.00    -0.291 N 
ATOM     19  C   UNL     1       0.809   7.700   5.106  0.00  0.00    +0.237 C 
ATOM     20  O   UNL     1       1.929   7.603   5.562  0.00  0.00    -0.274 OA
ENDROOT
BRANCH   1  23
ATOM     21  C   UNL     1      -2.026   3.514   1.233  0.00  0.00    +0.165 A 
ATOM     22  C   UNL     1      -2.131   4.886   1.406  0.00  0.00    +0.055 A 
ATOM     23  C   UNL     1      -1.004   5.638   1.679  0.00  0.00    -0.014 A 
ATOM     24  C   UNL     1       0.231   5.026   1.785  0.00  0.00    +0.055 A 
ATOM     25  C   UNL     1       0.344   3.654   1.619  0.00  0.00    +0.165 A 
ATOM     26  C   UNL     1      -0.787   2.894   1.345  0.00  0.00    +0.204 A 
BRANCH  21  28
ATOM     27  C   UNL     1      -4.374   3.478   0.859  0.00  0.00    +0.277 C 
ATOM     28  O   UNL     1      -3.135   2.775   0.960  0.00  0.00    -0.491 OA
ENDBRANCH  21  28
BRANCH  26  29
ATOM     29  O   UNL     1      -0.680   1.547   1.180  0.00  0.00    -0.488 OA
ATOM     30  C   UNL     1      -0.820   0.738   2.350  0.00  0.00    +0.277 C 
ENDBRANCH  26  29
BRANCH  25  31
ATOM     31  O   UNL     1       1.559   3.053   1.725  0.00  0.00    -0.491 OA
ATOM     32  C   UNL     1       2.677   3.896   2.008  0.00  0.00    +0.277 C 
ENDBRANCH  25  31
ENDBRANCH   1  23
BRANCH  18  33
ATOM     33  C   UNL     1       0.151   8.222   7.354  0.00  0.00    +0.108 C 
BRANCH  33  34
ATOM     34  C   UNL     1       0.044   6.894   8.106  0.00  0.00    +0.019 C 
BRANCH  34  35
ATOM     35  C   UNL     1       0.389   7.113   9.580  0.00  0.00    +0.004 C 
BRANCH  35  36
ATOM     36  C   UNL     1       0.283   5.785  10.332  0.00  0.00    +0.028 C 
BRANCH  36  37
ATOM     37  C   UNL     1       0.628   6.005  11.806  0.00  0.00    +0.156 C 
BRANCH  37  38
ATOM     38  O   UNL     1       0.529   4.764  12.509  0.00  0.00    -0.395 OA
ATOM     39  H   UNL     1       0.735   4.828  13.451  0.00  0.00    +0.209 HD
ENDBRANCH  37  38
ENDBRANCH  36  37
ENDBRANCH  35  36
ENDBRANCH  34  35
ENDBRANCH  33  34
ENDBRANCH  18  33
TORSDOF 10
