REMARK  Name = ZINC12161205
REMARK  6 active torsions:
REMARK  status: ('A' for Active; 'I' for Inactive)
REMARK    1  A    between atoms: C_1  and  C_2
REMARK    2  A    between atoms: C_2  and  N_53
REMARK    3  A    between atoms: C_6  and  C_8
REMARK    4  A    between atoms: C_8  and  N_9
REMARK    5  A    between atoms: C_12  and  C_26
REMARK    6  A    between atoms: C_13  and  C_19
REMARK                            x       y       z     vdW  Elec       q    Type
REMARK                         _______ _______ _______ _____ _____    ______ ____
ROOT
ATOM      1  N   UNL     1      -1.304   1.216  -7.763  0.00  0.00    -0.330 N 
ATOM      2  C   UNL     1      -2.240   1.961  -7.075  0.00  0.00    +0.130 A 
ATOM      3  C   UNL     1      -1.993   2.368  -5.730  0.00  0.00    +0.051 A 
ATOM      4  C   UNL     1      -0.877   2.122  -4.920  0.00  0.00    -0.019 A 
ATOM      5  C   UNL     1      -0.843   2.607  -3.648  0.00  0.00    +0.080 A 
ATOM      6  S   UNL     1      -2.409   3.450  -3.501  0.00  0.00    -0.064 S 
ATOM      7  C   UNL     1      -3.028   3.128  -5.132  0.00  0.00    +0.114 A 
ATOM      8  N   UNL     1      -4.131   3.427  -5.789  0.00  0.00    -0.228 NA
ATOM      9  C   UNL     1      -4.299   3.019  -7.033  0.00  0.00    +0.224 A 
ATOM     10  N   UNL     1      -3.377   2.307  -7.655  0.00  0.00    -0.220 NA
ATOM     11  C   UNL     1       0.283   1.323  -5.455  0.00  0.00    +0.046 C 
ATOM     12  H   UNL     1      -0.513   0.889  -7.305  0.00  0.00    +0.147 HD
ENDROOT
BRANCH   5  13
ATOM     13  C   UNL     1       0.218   2.466  -2.643  0.00  0.00    +0.254 C 
ATOM     14  O   UNL     1       1.231   1.847  -2.911  0.00  0.00    -0.269 OA
ATOM     15  N   UNL     1       0.071   3.022  -1.425  0.00  0.00    -0.297 N 
ATOM     16  C   UNL     1       1.049   2.958  -0.329  0.00  0.00    +0.108 C 
ATOM     17  C   UNL     1       0.445   3.711   0.874  0.00  0.00    +0.020 C 
ATOM     18  C   UNL     1      -1.081   3.669   0.575  0.00  0.00    +0.020 C 
ATOM     19  C   UNL     1      -1.099   3.796  -0.969  0.00  0.00    +0.108 C 
ENDBRANCH   5  13
BRANCH   1  20
ATOM     20  C   UNL     1      -1.504   0.918  -9.183  0.00  0.00    +0.088 C 
BRANCH  20  24
ATOM     21  C   UNL     1      -0.130  -1.682 -11.329  0.00  0.00    -0.078 C 
ATOM     22  C   UNL     1      -0.707  -2.413 -10.091  0.00  0.00    -0.020 C 
ATOM     23  C   UNL     1      -0.512  -1.381  -8.957  0.00  0.00    -0.016 C 
ATOM     24  C   UNL     1      -0.396  -0.019  -9.668  0.00  0.00    -0.051 C 
ATOM     25  N   UNL     1      -0.551  -0.289 -11.098  0.00  0.00    +0.382 N 
ATOM     26  H   UNL     1      -1.536  -0.176 -11.367  0.00  0.00    -0.081 HD
BRANCH  25  28
ATOM     27  C   UNL     1       0.190   0.295 -13.385  0.00  0.00    -0.017 C 
ATOM     28  C   UNL     1       0.288   0.653 -11.901  0.00  0.00    -0.082 C 
ENDBRANCH  25  28
ENDBRANCH  20  24
ENDBRANCH   1  20
TORSDOF 4
