REMARK  Name = ZINC59293553
REMARK  11 active torsions:
REMARK  status: ('A' for Active; 'I' for Inactive)
REMARK    1  A    between atoms: C_1  and  C_2
REMARK    2  A    between atoms: C_2  and  C_3
REMARK    3  A    between atoms: C_3  and  N_4
REMARK    4  A    between atoms: N_4  and  C_5
REMARK    5  A    between atoms: C_5  and  C_6
REMARK    6  A    between atoms: C_6  and  C_7
REMARK    7  A    between atoms: C_8  and  C_10
REMARK    8  A    between atoms: C_16  and  C_17
REMARK    9  A    between atoms: C_25  and  N_38
REMARK   10  A    between atoms: C_26  and  C_36
REMARK   11  A    between atoms: C_27  and  C_29
REMARK                            x       y       z     vdW  Elec       q    Type
REMARK                         _______ _______ _______ _____ _____    ______ ____
ROOT
ATOM      1  C   UNL     1      -1.861  -2.192  -2.247  0.00  0.00    +0.058 C 
ATOM      2  C   UNL     1      -1.825  -2.886  -3.415  0.00  0.00    +0.099 A 
ATOM      3  N   UNL     1      -1.782  -2.305  -4.665  0.00  0.00    -0.257 N 
ATOM      4  C   UNL     1      -1.750  -3.124  -5.736  0.00  0.00    +0.271 A 
ATOM      5  O   UNL     1      -1.711  -2.672  -6.865  0.00  0.00    -0.266 OA
ATOM      6  C   UNL     1      -1.762  -4.573  -5.507  0.00  0.00    +0.080 A 
ATOM      7  C   UNL     1      -1.736  -5.588  -6.408  0.00  0.00    +0.031 C 
ATOM      8  S   UNL     1      -1.821  -4.641  -3.724  0.00  0.00    -0.065 S 
ATOM      9  C   UNL     1      -1.774  -0.909  -4.768  0.00  0.00    +0.118 C 
ATOM     10  C   UNL     1      -1.807  -0.078  -3.702  0.00  0.00    +0.079 C 
ATOM     11  C   UNL     1      -1.860  -0.677  -2.311  0.00  0.00    +0.103 C 
ENDROOT
BRANCH   7  12
ATOM     12  C   UNL     1      -1.520  -5.301  -7.832  0.00  0.00    +0.011 A 
ATOM     13  C   UNL     1      -0.570  -4.349  -8.221  0.00  0.00    +0.011 A 
ATOM     14  C   UNL     1      -0.372  -4.086  -9.559  0.00  0.00    +0.001 A 
ATOM     15  C   UNL     1      -1.109  -4.759 -10.519  0.00  0.00    +0.003 A 
ATOM     16  C   UNL     1      -2.049  -5.702 -10.146  0.00  0.00    +0.039 A 
ATOM     17  C   UNL     1      -2.258  -5.983  -8.809  0.00  0.00    +0.131 A 
ATOM     18  F   UNL     1      -3.173  -6.908  -8.445  0.00  0.00    -0.205 F 
ENDBRANCH   7  12
BRANCH  11  19
ATOM     19  C   UNL     1      -0.667  -0.174  -1.539  0.00  0.00    +0.001 A 
ATOM     20  C   UNL     1       0.612  -0.458  -1.979  0.00  0.00    +0.007 A 
ATOM     21  C   UNL     1       1.705   0.004  -1.271  0.00  0.00    +0.000 A 
ATOM     22  C   UNL     1       1.521   0.751  -0.123  0.00  0.00    +0.003 A 
ATOM     23  C   UNL     1       0.244   1.037   0.319  0.00  0.00    +0.038 A 
ATOM     24  C   UNL     1      -0.853   0.579  -0.393  0.00  0.00    +0.127 A 
ATOM     25  F   UNL     1      -2.103   0.863   0.035  0.00  0.00    -0.205 F 
ENDBRANCH  11  19
BRANCH   1  27
ATOM     26  N   UNL     1      -3.055  -3.414  -0.586  0.00  0.00    -0.298 N 
ATOM     27  C   UNL     1      -1.903  -2.860  -1.013  0.00  0.00    +0.246 C 
ATOM     28  O   UNL     1      -0.898  -2.940  -0.328  0.00  0.00    -0.270 OA
BRANCH  26  29
ATOM     29  C   UNL     1      -4.285  -3.236  -1.362  0.00  0.00    +0.108 C 
BRANCH  29  31
ATOM     30  C   UNL     1      -6.319  -1.815  -1.654  0.00  0.00    +0.005 C 
ATOM     31  C   UNL     1      -4.973  -1.938  -0.936  0.00  0.00    +0.016 C 
ENDBRANCH  29  31
ENDBRANCH  26  29
BRANCH  26  32
ATOM     32  C   UNL     1      -3.078  -4.194   0.654  0.00  0.00    +0.108 C 
BRANCH  32  33
ATOM     33  C   UNL     1      -2.787  -5.662   0.339  0.00  0.00    +0.016 C 
ATOM     34  C   UNL     1      -2.811  -6.476   1.634  0.00  0.00    +0.005 C 
ENDBRANCH  32  33
ENDBRANCH  26  32
ENDBRANCH   1  27
BRANCH   9  35
ATOM     35  N   UNL     1      -1.731  -0.351  -6.022  0.00  0.00    -0.343 N 
ATOM     36  H   UNL     1      -2.132  -0.815  -6.774  0.00  0.00    +0.144 HD
ATOM     37  H   UNL     1      -1.299   0.507  -6.157  0.00  0.00    +0.144 HD
ENDBRANCH   9  35
BRANCH  10  38
ATOM     38  C   UNL     1      -1.796   1.342  -3.884  0.00  0.00    +0.099 C 
ATOM     39  N   UNL     1      -1.787   2.469  -4.029  0.00  0.00    -0.191 NA
ENDBRANCH  10  38
TORSDOF 9
