REMARK  Name = ZINC41586472
REMARK  11 active torsions:
REMARK  status: ('A' for Active; 'I' for Inactive)
REMARK    1  A    between atoms: C_1  and  C_2
REMARK    2  A    between atoms: C_2  and  O_3
REMARK    3  A    between atoms: O_3  and  C_4
REMARK    4  A    between atoms: C_7  and  C_10
REMARK    5  A    between atoms: C_17  and  O_34
REMARK    6  A    between atoms: C_18  and  C_21
REMARK    7  A    between atoms: C_21  and  N_22
REMARK    8  A    between atoms: C_26  and  C_29
REMARK    9  A    between atoms: C_29  and  O_31
REMARK   10  A    between atoms: O_31  and  C_32
REMARK   11  A    between atoms: C_32  and  C_33
REMARK                            x       y       z     vdW  Elec       q    Type
REMARK                         _______ _______ _______ _____ _____    ______ ____
ROOT
ATOM      1  C   UNL     1       1.107  -6.005  -1.843  0.00  0.00    +0.058 C 
ATOM      2  C   UNL     1       1.644  -6.511  -2.982  0.00  0.00    +0.176 C 
ATOM      3  C   UNL     1       1.725  -7.933  -3.348  0.00  0.00    +0.231 C 
ATOM      4  O   UNL     1       1.332  -8.891  -2.705  0.00  0.00    -0.283 OA
ATOM      5  C   UNL     1       2.388  -7.939  -4.664  0.00  0.00    +0.068 A 
ATOM      6  C   UNL     1       2.757  -8.959  -5.543  0.00  0.00    +0.019 A 
ATOM      7  C   UNL     1       3.373  -8.652  -6.722  0.00  0.00    +0.046 A 
ATOM      8  C   UNL     1       3.635  -7.324  -7.050  0.00  0.00    +0.122 A 
ATOM      9  C   UNL     1       3.274  -6.301  -6.188  0.00  0.00    +0.020 A 
ATOM     10  C   UNL     1       2.646  -6.596  -4.984  0.00  0.00    +0.144 A 
ATOM     11  O   UNL     1       2.197  -5.797  -3.991  0.00  0.00    -0.451 OA
ENDROOT
BRANCH   1  15
ATOM     12  C   UNL     1       0.770  -1.809  -1.339  0.00  0.00    +0.121 A 
ATOM     13  C   UNL     1       1.437  -2.322  -2.446  0.00  0.00    +0.046 A 
ATOM     14  C   UNL     1       1.549  -3.683  -2.615  0.00  0.00    +0.011 A 
ATOM     15  C   UNL     1       0.991  -4.552  -1.668  0.00  0.00    -0.021 A 
ATOM     16  C   UNL     1       0.321  -4.029  -0.554  0.00  0.00    +0.011 A 
ATOM     17  C   UNL     1       0.219  -2.666  -0.394  0.00  0.00    +0.046 A 
BRANCH  12  18
ATOM     18  O   UNL     1       0.663  -0.465  -1.178  0.00  0.00    -0.492 OA
BRANCH  18  20
ATOM     19  C   UNL     1       1.030   1.831  -1.835  0.00  0.00    +0.048 C 
ATOM     20  C   UNL     1       1.252   0.359  -2.186  0.00  0.00    +0.225 C 
ENDBRANCH  18  20
ENDBRANCH  12  18
ENDBRANCH   1  15
BRANCH   8  21
ATOM     21  O   UNL     1       4.248  -7.029  -8.224  0.00  0.00    -0.506 OA
ATOM     22  H   UNL     1       3.639  -6.886  -8.961  0.00  0.00    +0.292 HD
ENDBRANCH   8  21
BRANCH   9  23
ATOM     23  C   UNL     1       3.564  -4.869  -6.555  0.00  0.00    -0.036 C 
BRANCH  23  24
ATOM     24  N   UNL     1       2.424  -4.313  -7.297  0.00  0.00    +0.383 N 
ATOM     25  C   UNL     1       1.247  -4.268  -6.420  0.00  0.00    -0.078 C 
ATOM     26  C   UNL     1       0.037  -3.766  -7.210  0.00  0.00    -0.018 C 
ATOM     27  C   UNL     1       0.330  -2.362  -7.747  0.00  0.00    +0.011 C 
ATOM     28  C   UNL     1       1.602  -2.407  -8.599  0.00  0.00    +0.081 C 
ATOM     29  C   UNL     1       2.754  -2.959  -7.757  0.00  0.00    -0.064 C 
ATOM     30  H   UNL     1       2.225  -4.899  -8.094  0.00  0.00    -0.081 HD
BRANCH  28  31
ATOM     31  C   UNL     1       1.942  -1.016  -9.069  0.00  0.00    +0.308 C 
ATOM     32  O   UNL     1       3.000  -0.518  -8.766  0.00  0.00    -0.251 OA
BRANCH  31  33
ATOM     33  O   UNL     1       1.070  -0.331  -9.825  0.00  0.00    -0.465 OA
BRANCH  33  34
ATOM     34  C   UNL     1       1.458   0.981 -10.235  0.00  0.00    +0.229 C 
ATOM     35  C   UNL     1       0.345   1.601 -11.082  0.00  0.00    +0.048 C 
ENDBRANCH  33  34
ENDBRANCH  31  33
ENDBRANCH  28  31
ENDBRANCH  23  24
ENDBRANCH   9  23
TORSDOF 9
