REMARK  Name = ZINC38999778
REMARK  8 active torsions:
REMARK  status: ('A' for Active; 'I' for Inactive)
REMARK    1  A    between atoms: C_1  and  C_2
REMARK    2  A    between atoms: C_5  and  C_9
REMARK    3  A    between atoms: C_6  and  O_8
REMARK    4  A    between atoms: C_12  and  C_14
REMARK    5  A    between atoms: N_16  and  C_17
REMARK    6  A    between atoms: C_19  and  C_32
REMARK    7  A    between atoms: N_21  and  C_31
REMARK    8  A    between atoms: N_22  and  C_25
REMARK                            x       y       z     vdW  Elec       q    Type
REMARK                         _______ _______ _______ _____ _____    ______ ____
ROOT
ATOM      1  C   UNL     1      -0.077  -8.222  -2.169  0.00  0.00    +0.261 C 
ATOM      2  O   UNL     1      -0.296  -8.685  -3.273  0.00  0.00    -0.269 OA
ATOM      3  N   UNL     1       0.093  -9.045  -1.115  0.00  0.00    -0.297 N 
ATOM      4  H   UNL     1       0.268  -8.677  -0.235  0.00  0.00    +0.150 HD
ENDROOT
BRANCH   3   5
ATOM      5  C   UNL     1       0.014 -10.497  -1.299  0.00  0.00    +0.179 C 
ATOM      6  C   UNL     1      -0.317 -11.204   0.037  0.00  0.00    +0.102 C 
ATOM      7  N   UNL     1       1.033 -11.551   0.541  0.00  0.00    -0.218 NA
ATOM      8  N   UNL     1       1.863 -11.668  -0.534  0.00  0.00    -0.201 N 
ATOM      9  C   UNL     1       1.375 -11.072  -1.645  0.00  0.00    +0.256 C 
ATOM     10  O   UNL     1       1.923 -11.008  -2.725  0.00  0.00    -0.272 OA
ATOM     11  C   UNL     1       1.524 -10.530   1.476  0.00  0.00    +0.128 C 
ATOM     12  C   UNL     1      -1.152 -12.463  -0.202  0.00  0.00    +0.028 C 
BRANCH   8  13
ATOM     13  C   UNL     1       3.091 -12.336  -0.493  0.00  0.00    +0.053 A 
ATOM     14  C   UNL     1       4.226 -11.740  -1.028  0.00  0.00    +0.025 A 
ATOM     15  C   UNL     1       5.437 -12.402  -0.986  0.00  0.00    +0.002 A 
ATOM     16  C   UNL     1       5.521 -13.658  -0.413  0.00  0.00    +0.000 A 
ATOM     17  C   UNL     1       4.393 -14.254   0.120  0.00  0.00    +0.002 A 
ATOM     18  C   UNL     1       3.180 -13.594   0.087  0.00  0.00    +0.025 A 
ENDBRANCH   8  13
ENDBRANCH   3   5
BRANCH   1  22
ATOM     19  C   UNL     1       0.031  -4.428  -2.224  0.00  0.00    +0.080 C 
ATOM     20  N   UNL     1       0.245  -4.851  -0.999  0.00  0.00    -0.153 NA
ATOM     21  N   UNL     1       0.229  -6.120  -0.873  0.00  0.00    -0.148 NA
ATOM     22  C   UNL     1       0.003  -6.770  -1.985  0.00  0.00    +0.131 C 
ATOM     23  C   UNL     1      -0.167  -5.693  -3.043  0.00  0.00    +0.120 C 
BRANCH  19  28
ATOM     24  C   UNL     1      -0.151   1.008  -4.081  0.00  0.00    +0.044 C 
ATOM     25  C   UNL     1      -0.102  -0.416  -3.590  0.00  0.00    -0.047 A 
ATOM     26  C   UNL     1      -0.305  -1.459  -4.482  0.00  0.00    +0.004 A 
ATOM     27  C   UNL     1      -0.264  -2.764  -4.047  0.00  0.00    +0.013 A 
ATOM     28  C   UNL     1      -0.015  -3.042  -2.696  0.00  0.00    +0.040 A 
ATOM     29  C   UNL     1       0.191  -1.980  -1.796  0.00  0.00    +0.126 A 
ATOM     30  C   UNL     1       0.150  -0.674  -2.257  0.00  0.00    +0.049 A 
BRANCH  29  31
ATOM     31  O   UNL     1       0.433  -2.234  -0.486  0.00  0.00    -0.506 OA
ATOM     32  H   UNL     1       1.371  -2.336  -0.272  0.00  0.00    +0.292 HD
ENDBRANCH  29  31
ENDBRANCH  19  28
ENDBRANCH   1  22
TORSDOF 5
