REMARK  Name = ZINC19923115
REMARK  6 active torsions:
REMARK  status: ('A' for Active; 'I' for Inactive)
REMARK    1  A    between atoms: C_1  and  C_2
REMARK    2  A    between atoms: C_2  and  C_4
REMARK    3  A    between atoms: C_2  and  N_12
REMARK    4  A    between atoms: C_7  and  O_11
REMARK    5  A    between atoms: C_9  and  O_10
REMARK    6  A    between atoms: N_12  and  C_13
REMARK                            x       y       z     vdW  Elec       q    Type
REMARK                         _______ _______ _______ _____ _____    ______ ____
ROOT
ATOM      1  C   UNL     1      -3.174   4.023  -1.343  0.00  0.00    +0.033 C 
ATOM      2  C   UNL     1      -2.552   3.879   0.047  0.00  0.00    +0.101 C 
ENDROOT
BRANCH   2   3
ATOM      3  C   UNL     1      -1.221   3.182  -0.067  0.00  0.00    +0.014 A 
ATOM      4  C   UNL     1      -0.062   3.924  -0.195  0.00  0.00    +0.012 A 
ATOM      5  C   UNL     1       1.160   3.289  -0.300  0.00  0.00    +0.046 A 
ATOM      6  C   UNL     1       1.227   1.903  -0.278  0.00  0.00    +0.120 A 
ATOM      7  C   UNL     1       0.066   1.156  -0.149  0.00  0.00    +0.091 A 
ATOM      8  C   UNL     1      -1.160   1.796  -0.050  0.00  0.00    +0.125 A 
BRANCH   8   9
ATOM      9  O   UNL     1      -2.300   1.067   0.070  0.00  0.00    -0.506 OA
ATOM     10  H   UNL     1      -2.251  -0.032   0.084  0.00  0.00    +0.292 HD
ENDBRANCH   8   9
BRANCH   6  11
ATOM     11  O   UNL     1       2.429   1.278  -0.382  0.00  0.00    -0.507 OA
ATOM     12  H   UNL     1       2.482   0.179  -0.364  0.00  0.00    +0.292 HD
ENDBRANCH   6  11
ENDBRANCH   2   3
BRANCH   2  13
ATOM     13  N   UNL     1      -2.360   5.206   0.636  0.00  0.00    -0.337 N 
ATOM     14  H   UNL     1      -1.392   5.718   0.534  0.00  0.00    +0.147 HD
BRANCH  13  15
ATOM     15  C   UNL     1      -3.406   5.822   1.329  0.00  0.00    +0.028 A 
ATOM     16  C   UNL     1      -4.630   5.178   1.455  0.00  0.00    +0.024 A 
ATOM     17  C   UNL     1      -5.661   5.787   2.144  0.00  0.00    +0.017 A 
ATOM     18  C   UNL     1      -5.478   7.041   2.700  0.00  0.00    +0.018 A 
ATOM     19  C   UNL     1      -4.261   7.686   2.571  0.00  0.00    +0.017 A 
ATOM     20  C   UNL     1      -3.225   7.080   1.888  0.00  0.00    +0.024 A 
ATOM     21 BR   UNL     1      -6.893   7.874   3.637  0.00  0.00    -0.050 Br
ENDBRANCH  13  15
ENDBRANCH   2  13
TORSDOF 5
