REMARK  Name = ZINC37298719
REMARK  6 active torsions:
REMARK  status: ('A' for Active; 'I' for Inactive)
REMARK    1  A    between atoms: C_1  and  C_2
REMARK    2  A    between atoms: C_5  and  N_11
REMARK    3  A    between atoms: C_7  and  N_8
REMARK    4  A    between atoms: N_11  and  C_12
REMARK    5  A    between atoms: C_12  and  C_14
REMARK    6  A    between atoms: C_12  and  C_15
REMARK                            x       y       z     vdW  Elec       q    Type
REMARK                         _______ _______ _______ _____ _____    ______ ____
ROOT
ATOM      1  C   UNL     1      -0.537   1.447   0.088  0.00  0.00    +0.046 C 
ATOM      2  C   UNL     1      -0.246  -0.031   0.040  0.00  0.00    -0.020 A 
ATOM      3  C   UNL     1      -0.348  -0.715  -1.158  0.00  0.00    +0.007 A 
ATOM      4  C   UNL     1      -0.082  -2.069  -1.207  0.00  0.00    +0.023 A 
ATOM      5  C   UNL     1       0.289  -2.744  -0.051  0.00  0.00    +0.030 A 
ATOM      6  C   UNL     1       0.390  -2.054   1.150  0.00  0.00    +0.056 A 
ATOM      7  C   UNL     1       0.127  -0.699   1.191  0.00  0.00    +0.131 A 
ENDROOT
BRANCH   7   8
ATOM      8  N   UNL     1       0.241   0.038   2.469  0.00  0.00    +0.057 N 
ATOM      9  O   UNL     1       0.674   1.167   2.480  0.00  0.00    -0.126 OA
ATOM     10  O   UNL     1      -0.100  -0.488   3.503  0.00  0.00    -0.126 OA
ENDBRANCH   7   8
BRANCH   5  11
ATOM     11  N   UNL     1       0.558  -4.114  -0.096  0.00  0.00    -0.337 N 
ATOM     12  H   UNL     1       0.817  -4.584   0.712  0.00  0.00    +0.147 HD
BRANCH  11  13
ATOM     13  C   UNL     1       0.450  -4.840  -1.364  0.00  0.00    +0.105 C 
ATOM     14  C   UNL     1      -1.002  -5.267  -1.585  0.00  0.00    +0.033 C 
BRANCH  13  15
ATOM     15  C   UNL     1       1.332  -6.061  -1.320  0.00  0.00    +0.024 A 
ATOM     16  C   UNL     1       2.189  -6.529  -2.261  0.00  0.00    +0.030 A 
ATOM     17  C   UNL     1       2.905  -7.684  -2.000  0.00  0.00    +0.023 A 
ATOM     18  C   UNL     1       2.728  -8.312  -0.812  0.00  0.00    +0.046 A 
ATOM     19  S   UNL     1       1.526  -7.262  -0.013  0.00  0.00    -0.099 S 
ATOM     20 BR   UNL     1       2.402  -5.619  -3.904  0.00  0.00    -0.049 Br
ENDBRANCH  13  15
ENDBRANCH  11  13
ENDBRANCH   5  11
TORSDOF 4
