REMARK  Name = ZINC15985696
REMARK  11 active torsions:
REMARK  status: ('A' for Active; 'I' for Inactive)
REMARK    1  A    between atoms: C_1  and  C_2
REMARK    2  A    between atoms: C_5  and  C_27
REMARK    3  A    between atoms: C_6  and  S_8
REMARK    4  A    between atoms: S_8  and  C_9
REMARK    5  A    between atoms: C_12  and  N_15
REMARK    6  A    between atoms: C_16  and  C_18
REMARK    7  A    between atoms: C_18  and  C_20
REMARK    8  A    between atoms: C_18  and  N_23
REMARK    9  A    between atoms: C_20  and  C_21
REMARK   10  A    between atoms: C_20  and  C_22
REMARK   11  A    between atoms: C_24  and  C_26
REMARK                            x       y       z     vdW  Elec       q    Type
REMARK                         _______ _______ _______ _____ _____    ______ ____
ROOT
ATOM      1  C   UNL     1       0.225   3.470   0.899  0.00  0.00    +0.013 A 
ATOM      2  C   UNL     1       1.326   4.167   1.381  0.00  0.00    +0.017 A 
ATOM      3  C   UNL     1       1.353   5.546   1.312  0.00  0.00    +0.024 A 
ATOM      4  C   UNL     1       0.278   6.235   0.768  0.00  0.00    +0.034 A 
ATOM      5  C   UNL     1      -0.825   5.538   0.290  0.00  0.00    +0.024 A 
ATOM      6  C   UNL     1      -0.851   4.160   0.355  0.00  0.00    +0.017 A 
ENDROOT
BRANCH   4   7
ATOM      7  N   UNL     1       0.304   7.635   0.702  0.00  0.00    -0.284 N 
ATOM      8  C   UNL     1       1.467   8.277   0.473  0.00  0.00    +0.238 C 
ATOM      9  O   UNL     1       2.489   7.643   0.318  0.00  0.00    -0.273 OA
ATOM     10  H   UNL     1      -0.515   8.142   0.821  0.00  0.00    +0.155 HD
BRANCH   8  11
ATOM     11  C   UNL     1       1.496   9.782   0.409  0.00  0.00    +0.162 C 
BRANCH  11  12
ATOM     12  N   UNL     1       2.765  10.221  -0.179  0.00  0.00    -0.304 N 
ATOM     13  C   UNL     1       2.843  11.416  -0.796  0.00  0.00    +0.211 C 
ATOM     14  O   UNL     1       1.864  12.129  -0.865  0.00  0.00    -0.276 OA
ATOM     15  C   UNL     1       4.148  11.868  -1.400  0.00  0.00    +0.109 C 
ATOM     16  H   UNL     1       3.548   9.651  -0.123  0.00  0.00    +0.149 HD
ENDBRANCH  11  12
BRANCH  11  17
ATOM     17  C   UNL     1       1.363  10.355   1.821  0.00  0.00    +0.012 C 
ATOM     18  C   UNL     1       2.454   9.764   2.716  0.00  0.00    +0.009 C 
ATOM     19  C   UNL     1       1.514  11.877   1.770  0.00  0.00    +0.009 C 
ENDBRANCH  11  17
ENDBRANCH   8  11
ENDBRANCH   4   7
BRANCH   1  20
ATOM     20  S   UNL     1       0.192   1.710   0.983  0.00  0.00    -0.089 S 
BRANCH  20  26
ATOM     21  C   UNL     1       2.830   0.098   5.204  0.00  0.00    +0.044 C 
ATOM     22  C   UNL     1       2.853   0.553   3.768  0.00  0.00    -0.049 A 
ATOM     23  C   UNL     1       4.056   0.650   3.093  0.00  0.00    +0.004 A 
ATOM     24  C   UNL     1       4.082   1.068   1.775  0.00  0.00    +0.005 A 
ATOM     25  C   UNL     1       2.906   1.389   1.128  0.00  0.00    -0.037 A 
ATOM     26  C   UNL     1       1.695   1.293   1.802  0.00  0.00    +0.016 A 
ATOM     27  C   UNL     1       1.673   0.873   3.127  0.00  0.00    +0.018 A 
ATOM     28  C   UNL     1       2.935   1.845  -0.309  0.00  0.00    +0.045 C 
ENDBRANCH  20  26
ENDBRANCH   1  20
TORSDOF 6
