REMARK  Name = ZINC14383059
REMARK  7 active torsions:
REMARK  status: ('A' for Active; 'I' for Inactive)
REMARK    1  A    between atoms: C_4  and  C_7
REMARK    2  A    between atoms: C_7  and  N_8
REMARK    3  A    between atoms: C_9  and  N_33
REMARK    4  A    between atoms: C_10  and  N_17
REMARK    5  A    between atoms: N_17  and  C_18
REMARK    6  A    between atoms: C_18  and  C_19
REMARK    7  A    between atoms: C_25  and  C_27
REMARK                            x       y       z     vdW  Elec       q    Type
REMARK                         _______ _______ _______ _____ _____    ______ ____
ROOT
ATOM      1  N   UNL     1       0.674   2.637   0.224  0.00  0.00    -0.276 N 
ATOM      2  C   UNL     1       1.502   2.688   1.321  0.00  0.00    +0.128 A 
ATOM      3  C   UNL     1       2.859   2.504   1.150  0.00  0.00    +0.140 A 
ATOM      4  C   UNL     1       3.356   2.280  -0.148  0.00  0.00    +0.277 A 
ATOM      5  O   UNL     1       4.551   2.118  -0.328  0.00  0.00    -0.266 OA
ATOM      6  N   UNL     1       2.502   2.245  -1.190  0.00  0.00    -0.273 N 
ATOM      7  H   UNL     1       2.854   2.086  -2.112  0.00  0.00    +0.173 HD
ATOM      8  C   UNL     1       1.182   2.421  -1.003  0.00  0.00    +0.331 A 
ATOM      9  O   UNL     1       0.433   2.384  -1.961  0.00  0.00    -0.246 OA
ENDROOT
BRANCH   3  10
ATOM     10  N   UNL     1       3.734   2.545   2.256  0.00  0.00    -0.255 N 
ATOM     11  C   UNL     1       4.381   3.687   2.561  0.00  0.00    +0.258 C 
ATOM     12  O   UNL     1       5.082   3.743   3.555  0.00  0.00    -0.269 OA
BRANCH  11  13
ATOM     13  C   UNL     1       4.242   4.861   1.696  0.00  0.00    +0.076 A 
ATOM     14  C   UNL     1       4.711   6.151   1.891  0.00  0.00    +0.022 A 
ATOM     15  C   UNL     1       4.437   7.071   0.911  0.00  0.00    +0.028 A 
ATOM     16  C   UNL     1       3.732   6.683  -0.185  0.00  0.00    +0.079 A 
ATOM     17  S   UNL     1       3.430   5.002   0.114  0.00  0.00    -0.072 S 
ATOM     18 CL   UNL     1       3.255   7.637  -1.555  0.00  0.00    -0.076 Cl
ENDBRANCH  11  13
BRANCH  10  19
ATOM     19  C   UNL     1       3.938   1.347   3.074  0.00  0.00    +0.149 C 
BRANCH  19  20
ATOM     20  C   UNL     1       5.149   0.600   2.576  0.00  0.00    -0.030 A 
ATOM     21  C   UNL     1       5.027  -0.303   1.537  0.00  0.00    +0.005 A 
ATOM     22  C   UNL     1       6.138  -0.983   1.078  0.00  0.00    +0.000 A 
ATOM     23  C   UNL     1       7.372  -0.769   1.665  0.00  0.00    +0.000 A 
ATOM     24  C   UNL     1       7.493   0.130   2.708  0.00  0.00    +0.000 A 
ATOM     25  C   UNL     1       6.382   0.815   3.164  0.00  0.00    +0.005 A 
ENDBRANCH  19  20
ENDBRANCH  10  19
ENDBRANCH   3  10
BRANCH   2  26
ATOM     26  N   UNL     1       0.983   2.913   2.574  0.00  0.00    -0.343 N 
ATOM     27  H   UNL     1       0.024   2.992   2.695  0.00  0.00    +0.144 HD
ATOM     28  H   UNL     1       1.577   2.994   3.337  0.00  0.00    +0.144 HD
ENDBRANCH   2  26
BRANCH   1  29
ATOM     29  C   UNL     1      -0.769   2.824   0.392  0.00  0.00    +0.163 C 
BRANCH  29  33
ATOM     30  C   UNL     1      -2.663  -0.983   0.801  0.00  0.00    +0.000 A 
ATOM     31  C   UNL     1      -2.162  -0.337   1.915  0.00  0.00    +0.000 A 
ATOM     32  C   UNL     1      -1.549   0.895   1.783  0.00  0.00    +0.005 A 
ATOM     33  C   UNL     1      -1.437   1.481   0.536  0.00  0.00    -0.028 A 
ATOM     34  C   UNL     1      -1.944   0.838  -0.578  0.00  0.00    +0.005 A 
ATOM     35  C   UNL     1      -2.552  -0.397  -0.446  0.00  0.00    +0.000 A 
ENDBRANCH  29  33
ENDBRANCH   1  29
TORSDOF 7
