REMARK  Name = ZINC39662076
REMARK  7 active torsions:
REMARK  status: ('A' for Active; 'I' for Inactive)
REMARK    1  A    between atoms: C_1  and  O_2
REMARK    2  A    between atoms: O_2  and  C_3
REMARK    3  A    between atoms: C_7  and  C_9
REMARK    4  A    between atoms: C_13  and  C_22
REMARK    5  A    between atoms: N_24  and  C_25
REMARK    6  A    between atoms: C_25  and  C_26
REMARK    7  A    between atoms: C_26  and  S_27
REMARK                            x       y       z     vdW  Elec       q    Type
REMARK                         _______ _______ _______ _____ _____    ______ ____
ROOT
ATOM      1  C   UNL     1      -2.490  -3.952   0.092  0.00  0.00    +0.248 C 
ATOM      2  O   UNL     1      -3.587  -4.475   0.122  0.00  0.00    -0.270 OA
ATOM      3  N   UNL     1      -1.387  -4.708  -0.070  0.00  0.00    -0.296 N 
ATOM      4  C   UNL     1       0.028  -4.271  -0.029  0.00  0.00    +0.121 C 
ATOM      5  C   UNL     1       0.766  -5.407   0.713  0.00  0.00    +0.100 C 
ATOM      6  C   UNL     1      -0.119  -6.649   0.510  0.00  0.00    -0.004 C 
ATOM      7  C   UNL     1      -1.315  -6.167  -0.324  0.00  0.00    +0.115 C 
ATOM      8  C   UNL     1       0.651  -7.729  -0.243  0.00  0.00    -0.010 C 
ATOM      9  C   UNL     1      -0.230  -8.974  -0.382  0.00  0.00    -0.082 C 
ATOM     10  N   UNL     1      -0.613  -9.456   0.951  0.00  0.00    +0.379 N 
ATOM     11  C   UNL     1      -1.431  -8.447   1.633  0.00  0.00    -0.082 C 
ATOM     12  C   UNL     1      -0.601  -7.179   1.857  0.00  0.00    -0.010 C 
ATOM     13  H   UNL     1      -1.142 -10.310   0.859  0.00  0.00    -0.086 HD
ATOM     14  H   UNL     1       0.219  -9.636   1.494  0.00  0.00    -0.086 HD
ENDROOT
BRANCH   1  19
ATOM     15  C   UNL     1      -1.289  -0.418  -0.356  0.00  0.00    +0.121 A 
ATOM     16  C   UNL     1      -2.140   0.265   0.503  0.00  0.00    +0.047 A 
ATOM     17  C   UNL     1      -3.099  -0.420   1.224  0.00  0.00    +0.019 A 
ATOM     18  C   UNL     1      -3.218  -1.790   1.095  0.00  0.00    +0.030 A 
ATOM     19  C   UNL     1      -2.367  -2.486   0.233  0.00  0.00    +0.054 A 
ATOM     20  C   UNL     1      -1.403  -1.790  -0.498  0.00  0.00    +0.059 A 
ATOM     21 BR   UNL     1      -4.532  -2.724   2.084  0.00  0.00    -0.050 Br
BRANCH  15  23
ATOM     22  C   UNL     1      -0.286   1.676  -0.867  0.00  0.00    +0.277 C 
ATOM     23  O   UNL     1      -0.347   0.262  -1.062  0.00  0.00    -0.495 OA
ENDBRANCH  15  23
ENDBRANCH   1  19
BRANCH   5  24
ATOM     24  C   UNL     1       2.130  -5.628   0.111  0.00  0.00    +0.218 C 
ATOM     25  O   UNL     1       2.313  -5.417  -1.069  0.00  0.00    -0.275 OA
ATOM     26  N   UNL     1       3.146  -6.061   0.884  0.00  0.00    -0.314 N 
ATOM     27  H   UNL     1       2.999  -6.230   1.827  0.00  0.00    +0.149 HD
BRANCH  26  28
ATOM     28  C   UNL     1       4.472  -6.276   0.298  0.00  0.00    +0.114 C 
BRANCH  28  29
ATOM     29  C   UNL     1       5.435  -6.763   1.382  0.00  0.00    +0.084 C 
BRANCH  29  30
ATOM     30  S   UNL     1       7.077  -7.029   0.657  0.00  0.00    -0.177 S 
ATOM     31  H   UNL     1       7.825  -7.450   1.692  0.00  0.00    +0.102 HD
ENDBRANCH  29  30
ENDBRANCH  28  29
ENDBRANCH  26  28
ENDBRANCH   5  24
TORSDOF 6
