REMARK  Name = ZINC04473407
REMARK  7 active torsions:
REMARK  status: ('A' for Active; 'I' for Inactive)
REMARK    1  A    between atoms: C_1  and  C_2
REMARK    2  A    between atoms: C_2  and  C_3
REMARK    3  A    between atoms: C_2  and  C_4
REMARK    4  A    between atoms: C_2  and  C_5
REMARK    5  A    between atoms: C_12  and  N_28
REMARK    6  A    between atoms: C_13  and  C_26
REMARK    7  A    between atoms: C_14  and  C_16
REMARK                            x       y       z     vdW  Elec       q    Type
REMARK                         _______ _______ _______ _____ _____    ______ ____
ROOT
ATOM      1  C   UNL     1       0.862  -0.292  -1.310  0.00  0.00    +0.049 A 
ATOM      2  C   UNL     1       0.946  -1.569  -1.712  0.00  0.00    +0.050 A 
ATOM      3  C   UNL     1       1.650  -1.599  -2.936  0.00  0.00    +0.245 A 
ATOM      4  N   UNL     1       1.972  -0.376  -3.244  0.00  0.00    -0.135 NA
ATOM      5  N   UNL     1       1.483   0.472  -2.238  0.00  0.00    -0.277 N 
ATOM      6  H   UNL     1       1.575   1.437  -2.212  0.00  0.00    +0.189 HD
ATOM      7  O   UNL     1       1.895  -2.760  -3.600  0.00  0.00    -0.421 OA
ATOM      8  C   UNL     1       1.218  -3.856  -3.203  0.00  0.00    +0.201 C 
ATOM      9  C   UNL     1       0.521  -3.950  -2.052  0.00  0.00    +0.098 C 
ATOM     10  C   UNL     1       0.422  -2.821  -1.056  0.00  0.00    +0.102 C 
ENDROOT
BRANCH  10  11
ATOM     11  C   UNL     1       1.250  -3.142   0.161  0.00  0.00    -0.027 A 
ATOM     12  C   UNL     1       2.607  -3.194   0.072  0.00  0.00    +0.005 A 
ATOM     13  C   UNL     1       3.389  -3.490   1.186  0.00  0.00    +0.001 A 
ATOM     14  C   UNL     1       2.818  -3.735   2.398  0.00  0.00    +0.008 A 
ATOM     15  C   UNL     1       1.420  -3.691   2.529  0.00  0.00    -0.018 A 
ATOM     16  C   UNL     1       0.625  -3.384   1.396  0.00  0.00    -0.014 A 
ATOM     17  C   UNL     1      -0.773  -3.334   1.529  0.00  0.00    +0.009 A 
ATOM     18  C   UNL     1      -1.344  -3.574   2.741  0.00  0.00    +0.001 A 
ATOM     19  C   UNL     1      -0.561  -3.869   3.857  0.00  0.00    +0.001 A 
ATOM     20  C   UNL     1       0.795  -3.940   3.763  0.00  0.00    +0.008 A 
ENDBRANCH  10  11
BRANCH   1  22
ATOM     21  C   UNL     1       0.176   1.732  -0.053  0.00  0.00    +0.017 C 
ATOM     22  C   UNL     1       0.191   0.202  -0.054  0.00  0.00    +0.004 C 
ATOM     23  C   UNL     1       0.962  -0.301   1.168  0.00  0.00    +0.017 C 
ATOM     24  C   UNL     1      -1.245  -0.322  -0.003  0.00  0.00    +0.017 C 
ENDBRANCH   1  22
BRANCH   8  25
ATOM     25  N   UNL     1       1.238  -4.953  -4.028  0.00  0.00    -0.328 N 
ATOM     26  H   UNL     1       1.729  -4.921  -4.865  0.00  0.00    +0.145 HD
ATOM     27  H   UNL     1       0.762  -5.759  -3.775  0.00  0.00    +0.145 HD
ENDBRANCH   8  25
BRANCH   9  28
ATOM     28  C   UNL     1      -0.156  -5.178  -1.761  0.00  0.00    +0.101 C 
ATOM     29  N   UNL     1      -0.693  -6.152  -1.530  0.00  0.00    -0.191 NA
ENDBRANCH   9  28
TORSDOF 4
