REMARK  Name = ZINC40454408
REMARK  7 active torsions:
REMARK  status: ('A' for Active; 'I' for Inactive)
REMARK    1  A    between atoms: C_4  and  C_7
REMARK    2  A    between atoms: C_7  and  S_8
REMARK    3  A    between atoms: S_8  and  N_11
REMARK    4  A    between atoms: N_11  and  C_12
REMARK    5  A    between atoms: C_12  and  C_13
REMARK    6  A    between atoms: C_13  and  C_15
REMARK    7  A    between atoms: C_13  and  C_22
REMARK                            x       y       z     vdW  Elec       q    Type
REMARK                         _______ _______ _______ _____ _____    ______ ____
ROOT
ATOM      1  C   UNL     1       8.121  -1.939   1.223  0.00  0.00    +0.066 C 
ENDROOT
BRANCH   1   2
ATOM      2  C   UNL     1       9.290  -1.319   0.503  0.00  0.00    -0.014 A 
ATOM      3  C   UNL     1       9.749  -0.067   0.657  0.00  0.00    +0.088 A 
ATOM      4  N   UNL     1      10.825   0.140  -0.163  0.00  0.00    -0.360 N 
ATOM      5  H   UNL     1      11.326   0.969  -0.228  0.00  0.00    +0.165 HD
ATOM      6  C   UNL     1      11.091  -1.003  -0.883  0.00  0.00    +0.047 A 
ATOM      7  C   UNL     1      10.146  -1.969  -0.492  0.00  0.00    +0.003 A 
ATOM      8  C   UNL     1      10.177  -3.244  -1.060  0.00  0.00    +0.010 A 
ATOM      9  C   UNL     1      11.130  -3.549  -1.992  0.00  0.00    +0.001 A 
ATOM     10  C   UNL     1      12.067  -2.601  -2.377  0.00  0.00    +0.002 A 
ATOM     11  C   UNL     1      12.049  -1.333  -1.836  0.00  0.00    +0.026 A 
ENDBRANCH   1   2
BRANCH   1  12
ATOM     12  C   UNL     1       8.377  -1.917   2.708  0.00  0.00    -0.038 A 
ATOM     13  C   UNL     1       8.562  -0.712   3.360  0.00  0.00    +0.007 A 
ATOM     14  C   UNL     1       8.796  -0.691   4.721  0.00  0.00    +0.038 A 
ATOM     15  C   UNL     1       8.844  -1.877   5.434  0.00  0.00    +0.123 A 
ATOM     16  C   UNL     1       8.658  -3.084   4.780  0.00  0.00    +0.038 A 
ATOM     17  C   UNL     1       8.419  -3.102   3.419  0.00  0.00    +0.007 A 
ATOM     18  F   UNL     1       9.073  -1.858   6.765  0.00  0.00    -0.205 F 
ENDBRANCH   1  12
BRANCH   1  19
ATOM     19  C   UNL     1       6.851  -1.145   0.912  0.00  0.00    +0.118 C 
BRANCH  19  20
ATOM     20  N   UNL     1       5.696  -1.816   1.514  0.00  0.00    -0.193 NA
ATOM     21  H   UNL     1       5.774  -2.732   1.824  0.00  0.00    +0.148 HD
BRANCH  20  22
ATOM     22  S   UNL     1       4.257  -1.011   1.666  0.00  0.00    +0.034 S 
ATOM     23  O   UNL     1       4.593   0.216   2.298  0.00  0.00    -0.158 OA
ATOM     24  O   UNL     1       3.387  -1.939   2.300  0.00  0.00    -0.158 OA
BRANCH  22  25
ATOM     25  C   UNL     1       3.711  -0.707  -0.038  0.00  0.00    +0.220 C 
BRANCH  25  29
ATOM     26  C   UNL     1      -0.017   1.378   0.010  0.00  0.00    +0.000 A 
ATOM     27  C   UNL     1       1.171   2.086   0.002  0.00  0.00    +0.000 A 
ATOM     28  C   UNL     1       2.377   1.411  -0.013  0.00  0.00    +0.005 A 
ATOM     29  C   UNL     1       2.396   0.029  -0.020  0.00  0.00    -0.025 A 
ATOM     30  C   UNL     1       1.208  -0.679  -0.012  0.00  0.00    +0.005 A 
ATOM     31  C   UNL     1       0.002  -0.004   0.002  0.00  0.00    +0.000 A 
ENDBRANCH  25  29
ENDBRANCH  22  25
ENDBRANCH  20  22
ENDBRANCH  19  20
ENDBRANCH   1  19
TORSDOF 7
