REMARK  Name = ZINC09429829
REMARK  8 active torsions:
REMARK  status: ('A' for Active; 'I' for Inactive)
REMARK    1  A    between atoms: C_1  and  C_2
REMARK    2  A    between atoms: C_2  and  C_3
REMARK    3  A    between atoms: C_3  and  C_5
REMARK    4  A    between atoms: C_3  and  N_6
REMARK    5  A    between atoms: C_10  and  N_11
REMARK    6  A    between atoms: N_11  and  C_12
REMARK    7  A    between atoms: N_28  and  C_35
REMARK    8  A    between atoms: N_31  and  C_34
REMARK                            x       y       z     vdW  Elec       q    Type
REMARK                         _______ _______ _______ _____ _____    ______ ____
ROOT
ATOM      1  C   UNL     1       0.082   2.825  -7.719  0.00  0.00    +0.031 A 
ATOM      2  C   UNL     1       1.385   3.295  -7.615  0.00  0.00    +0.025 A 
ATOM      3  C   UNL     1       1.936   4.018  -8.654  0.00  0.00    +0.025 A 
ATOM      4  C   UNL     1       1.190   4.268  -9.794  0.00  0.00    +0.033 A 
ATOM      5  C   UNL     1      -0.112   3.792  -9.912  0.00  0.00    -0.023 A 
ATOM      6  C   UNL     1      -0.660   3.070  -8.865  0.00  0.00    +0.028 A 
ATOM      7  C   UNL     1      -0.931   4.024 -11.151  0.00  0.00    +0.064 C 
ATOM      8  C   UNL     1      -0.398   5.188 -11.990  0.00  0.00    +0.146 C 
ATOM      9  C   UNL     1       1.107   4.991 -12.199  0.00  0.00    +0.098 C 
ATOM     10  N   UNL     1       1.718   5.010 -10.853  0.00  0.00    -0.325 N 
ATOM     11  C   UNL     1       2.839   5.952 -10.843  0.00  0.00    +0.105 C 
ATOM     12  C   UNL     1       3.136   6.273 -12.329  0.00  0.00    +0.021 C 
ATOM     13  C   UNL     1       1.719   6.166 -12.980  0.00  0.00    +0.025 C 
ATOM     14  C   UNL     1      -1.089   5.198 -13.325  0.00  0.00    +0.240 C 
ATOM     15  O   UNL     1      -0.993   4.227 -14.045  0.00  0.00    -0.274 OA
ATOM     16  N   UNL     1      -1.808   6.249 -13.743  0.00  0.00    -0.228 N 
ATOM     17  C   UNL     1      -1.951   7.354 -12.996  0.00  0.00    +0.317 C 
ATOM     18  O   UNL     1      -2.615   8.277 -13.424  0.00  0.00    -0.252 OA
ATOM     19  N   UNL     1      -1.378   7.465 -11.788  0.00  0.00    -0.228 N 
ATOM     20  C   UNL     1      -0.636   6.481 -11.262  0.00  0.00    +0.240 C 
ATOM     21  O   UNL     1      -0.142   6.638 -10.166  0.00  0.00    -0.274 OA
ATOM     22  C   UNL     1      -1.569   8.698 -11.021  0.00  0.00    +0.143 C 
ATOM     23  C   UNL     1      -2.456   6.189 -15.055  0.00  0.00    +0.143 C 
ENDROOT
BRANCH   1  24
ATOM     24  N   UNL     1      -0.483   2.095  -6.666  0.00  0.00    -0.320 N 
ATOM     25  H   UNL     1      -1.391   1.763  -6.739  0.00  0.00    +0.152 HD
BRANCH  24  30
ATOM     26  N   UNL     1      -0.041  -0.145  -2.459  0.00  0.00    -0.219 N 
ATOM     27  C   UNL     1       0.528   0.650  -3.389  0.00  0.00    +0.261 C 
ATOM     28  O   UNL     1       1.677   1.032  -3.267  0.00  0.00    -0.269 OA
ATOM     29  C   UNL     1      -0.280   1.043  -4.557  0.00  0.00    +0.113 C 
ATOM     30  C   UNL     1       0.236   1.856  -5.551  0.00  0.00    +0.090 C 
ATOM     31  C   UNL     1      -1.661   0.533  -4.620  0.00  0.00    +0.258 C 
ATOM     32  O   UNL     1      -2.388   0.814  -5.554  0.00  0.00    -0.270 OA
ATOM     33  N   UNL     1      -2.096  -0.255  -3.616  0.00  0.00    -0.235 N 
ATOM     34  C   UNL     1      -1.303  -0.577  -2.584  0.00  0.00    +0.316 C 
ATOM     35  O   UNL     1      -1.755  -1.295  -1.713  0.00  0.00    -0.252 OA
ATOM     36  H   UNL     1      -3.003  -0.599  -3.642  0.00  0.00    +0.159 HD
BRANCH  26  37
ATOM     37  C   UNL     1       0.742  -0.549  -1.288  0.00  0.00    +0.083 C 
ATOM     38  C   UNL     1       0.857  -2.075  -1.254  0.00  0.00    +0.028 C 
BRANCH  37  40
ATOM     39  C   UNL     1       0.041   1.468   0.009  0.00  0.00    +0.006 C 
ATOM     40  C   UNL     1       0.045  -0.062  -0.016  0.00  0.00    +0.019 C 
ENDBRANCH  37  40
ENDBRANCH  26  37
ENDBRANCH  24  30
ENDBRANCH   1  24
TORSDOF 4
