REMARK  Name = ZINC50428445
REMARK  5 active torsions:
REMARK  status: ('A' for Active; 'I' for Inactive)
REMARK    1  A    between atoms: C_3  and  C_8
REMARK    2  A    between atoms: C_8  and  O_9
REMARK    3  A    between atoms: O_9  and  C_10
REMARK    4  A    between atoms: C_15  and  S_16
REMARK    5  A    between atoms: S_16  and  N_19
REMARK                            x       y       z     vdW  Elec       q    Type
REMARK                         _______ _______ _______ _____ _____    ______ ____
ROOT
ATOM      1  C   UNL     1       5.252   3.110   1.494  0.00  0.00    +0.147 A 
ATOM      2  C   UNL     1       5.965   3.555   0.390  0.00  0.00    +0.049 A 
ATOM      3  C   UNL     1       7.143   4.255   0.566  0.00  0.00    +0.019 A 
ATOM      4  C   UNL     1       7.611   4.514   1.842  0.00  0.00    +0.020 A 
ATOM      5  C   UNL     1       6.902   4.071   2.944  0.00  0.00    +0.047 A 
ATOM      6  C   UNL     1       5.721   3.376   2.772  0.00  0.00    +0.147 A 
ATOM      7 BR   UNL     1       9.223   5.473   2.079  0.00  0.00    -0.050 Br
ENDROOT
BRANCH   6   8
ATOM      8  S   UNL     1       4.814   2.820   4.177  0.00  0.00    +0.059 S 
ATOM      9  O   UNL     1       4.513   1.449   3.950  0.00  0.00    -0.153 OA
ATOM     10  O   UNL     1       5.527   3.264   5.323  0.00  0.00    -0.153 OA
BRANCH   8  11
ATOM     11  N   UNL     1       3.368   3.627   4.177  0.00  0.00    -0.203 NA
ATOM     12  H   UNL     1       2.578   3.207   4.552  0.00  0.00    +0.144 HD
ATOM     13  H   UNL     1       3.311   4.519   3.801  0.00  0.00    +0.144 HD
ENDBRANCH   8  11
ENDBRANCH   6   8
BRANCH   1  14
ATOM     14  O   UNL     1       4.094   2.421   1.323  0.00  0.00    -0.485 OA
BRANCH  14  15
ATOM     15  C   UNL     1       3.672   2.184  -0.021  0.00  0.00    +0.264 C 
BRANCH  15  18
ATOM     16  C   UNL     1      -0.017   1.378   0.010  0.00  0.00    +0.002 A 
ATOM     17  C   UNL     1       1.171   2.086   0.002  0.00  0.00    +0.007 A 
ATOM     18  C   UNL     1       2.378   1.412  -0.013  0.00  0.00    -0.009 A 
ATOM     19  C   UNL     1       2.398   0.029  -0.021  0.00  0.00    +0.027 A 
ATOM     20  C   UNL     1       1.210  -0.679  -0.013  0.00  0.00    +0.041 A 
ATOM     21  C   UNL     1       0.002  -0.004   0.002  0.00  0.00    +0.020 A 
ATOM     22 CL   UNL     1       1.234  -2.415  -0.024  0.00  0.00    -0.084 Cl
ENDBRANCH  15  18
ENDBRANCH  14  15
ENDBRANCH   1  14
TORSDOF 5
