REMARK  Name = ZINC63351209
REMARK  5 active torsions:
REMARK  status: ('A' for Active; 'I' for Inactive)
REMARK    1  A    between atoms: C_1  and  C_2
REMARK    2  A    between atoms: C_2  and  C_3
REMARK    3  A    between atoms: C_2  and  C_4
REMARK    4  A    between atoms: C_7  and  C_10
REMARK    5  A    between atoms: N_28  and  C_31
REMARK                            x       y       z     vdW  Elec       q    Type
REMARK                         _______ _______ _______ _____ _____    ______ ____
ROOT
ATOM      1  C   UNL     1       2.797  -1.919   4.683  0.00  0.00    +0.135 C 
ATOM      2  C   UNL     1       3.245  -3.370   4.465  0.00  0.00    +0.131 C 
ATOM      3  C   UNL     1       3.583  -3.947   5.834  0.00  0.00    -0.034 C 
ATOM      4  C   UNL     1       4.844  -4.362   5.765  0.00  0.00    -0.001 A 
ATOM      5  C   UNL     1       5.700  -5.053   6.742  0.00  0.00    +0.010 A 
ATOM      6  C   UNL     1       6.970  -5.324   6.340  0.00  0.00    +0.001 A 
ATOM      7  C   UNL     1       7.466  -4.982   5.078  0.00  0.00    +0.002 A 
ATOM      8  C   UNL     1       6.747  -4.352   4.115  0.00  0.00    +0.026 A 
ATOM      9  C   UNL     1       5.395  -4.018   4.420  0.00  0.00    +0.043 A 
ATOM     10  N   UNL     1       4.483  -3.432   3.683  0.00  0.00    -0.375 N 
ATOM     11  C   UNL     1       2.619  -3.933   6.997  0.00  0.00    +0.065 C 
ATOM     12  C   UNL     1       1.401  -3.109   6.545  0.00  0.00    +0.169 C 
ATOM     13  N   UNL     1       1.897  -1.906   5.843  0.00  0.00    -0.264 N 
ATOM     14  C   UNL     1       1.387  -0.845   6.482  0.00  0.00    +0.313 C 
ATOM     15  O   UNL     1       1.507   0.301   6.095  0.00  0.00    -0.252 OA
ATOM     16  N   UNL     1       0.729  -1.193   7.596  0.00  0.00    -0.221 N 
ATOM     17  C   UNL     1       0.677  -2.557   7.754  0.00  0.00    +0.244 C 
ATOM     18  O   UNL     1       0.174  -3.189   8.658  0.00  0.00    -0.273 OA
ATOM     19  H   UNL     1       4.601  -3.095   2.781  0.00  0.00    +0.160 HD
ENDROOT
BRANCH   1  23
ATOM     20  C   UNL     1       0.731  -0.503   1.223  0.00  0.00    -0.045 A 
ATOM     21  C   UNL     1       2.050  -0.148   1.434  0.00  0.00    +0.004 A 
ATOM     22  C   UNL     1       2.719  -0.606   2.554  0.00  0.00    +0.006 A 
ATOM     23  C   UNL     1       2.068  -1.419   3.463  0.00  0.00    -0.025 A 
ATOM     24  C   UNL     1       0.749  -1.773   3.252  0.00  0.00    +0.006 A 
ATOM     25  C   UNL     1       0.079  -1.312   2.135  0.00  0.00    +0.004 A 
BRANCH  20  27
ATOM     26  C   UNL     1      -0.019   1.526   0.010  0.00  0.00    +0.012 C 
ATOM     27  C   UNL     1       0.002  -0.004   0.002  0.00  0.00    +0.013 C 
ATOM     28  C   UNL     1       0.718  -0.497  -1.257  0.00  0.00    +0.012 C 
ENDBRANCH  20  27
ENDBRANCH   1  23
BRANCH  16  29
ATOM     29  C   UNL     1       0.124  -0.237   8.527  0.00  0.00    +0.086 C 
ATOM     30  C   UNL     1      -0.929   0.594   7.792  0.00  0.00    +0.023 C 
ATOM     31  C   UNL     1      -1.561   1.592   8.764  0.00  0.00    +0.002 C 
ATOM     32  C   UNL     1      -0.477   2.518   9.320  0.00  0.00    +0.000 C 
ATOM     33  C   UNL     1       0.576   1.687  10.055  0.00  0.00    +0.002 C 
ATOM     34  C   UNL     1       1.208   0.689   9.083  0.00  0.00    +0.023 C 
ENDBRANCH  16  29
TORSDOF 3
