REMARK  Name = ZINC01119130
REMARK  5 active torsions:
REMARK  status: ('A' for Active; 'I' for Inactive)
REMARK    1  A    between atoms: C_10  and  C_11
REMARK    2  A    between atoms: C_10  and  O_25
REMARK    3  A    between atoms: C_11  and  S_12
REMARK    4  A    between atoms: S_12  and  C_13
REMARK    5  A    between atoms: C_14  and  C_23
REMARK                            x       y       z     vdW  Elec       q    Type
REMARK                         _______ _______ _______ _____ _____    ______ ____
ROOT
ATOM      1  C   UNL     1      -0.184   0.936  -2.474  0.00  0.00    +0.115 C 
ENDROOT
BRANCH   1  11
ATOM      2  C   UNL     1       1.888   0.791   2.039  0.00  0.00    +0.000 A 
ATOM      3  C   UNL     1       1.579  -0.192   1.117  0.00  0.00    +0.000 A 
ATOM      4  C   UNL     1       0.723   0.091   0.074  0.00  0.00    +0.007 A 
ATOM      5  C   UNL     1       0.168   1.358  -0.060  0.00  0.00    -0.012 A 
ATOM      6  C   UNL     1       0.479   2.338   0.855  0.00  0.00    -0.041 A 
ATOM      7  C   UNL     1       1.339   2.050   1.907  0.00  0.00    +0.004 A 
ATOM      8  C   UNL     1      -0.078   3.735   0.767  0.00  0.00    +0.035 C 
ATOM      9  C   UNL     1      -1.302   3.769  -0.148  0.00  0.00    +0.008 C 
ATOM     10  C   UNL     1      -0.932   3.094  -1.474  0.00  0.00    +0.041 C 
ATOM     11  C   UNL     1      -0.762   1.597  -1.221  0.00  0.00    +0.100 C 
BRANCH  11  12
ATOM     12  O   UNL     1      -2.036   1.020  -0.930  0.00  0.00    -0.383 OA
ATOM     13  H   UNL     1      -2.007   0.069  -0.758  0.00  0.00    +0.211 HD
ENDBRANCH  11  12
ENDBRANCH   1  11
BRANCH   1  14
ATOM     14  S   UNL     1      -1.246   1.303  -3.894  0.00  0.00    -0.101 S 
BRANCH  14  15
ATOM     15  C   UNL     1      -0.371   0.446  -5.160  0.00  0.00    +0.115 A 
ATOM     16  C   UNL     1      -0.855   0.461  -6.481  0.00  0.00    +0.084 A 
ATOM     17  C   UNL     1      -0.139  -0.232  -7.460  0.00  0.00    +0.027 A 
ATOM     18  C   UNL     1       1.021  -0.905  -7.093  0.00  0.00    -0.025 A 
ATOM     19  C   UNL     1       1.439  -0.871  -5.780  0.00  0.00    +0.046 A 
ATOM     20  N   UNL     1       0.741  -0.203  -4.869  0.00  0.00    -0.244 NA
ATOM     21  C   UNL     1       2.692  -1.569  -5.316  0.00  0.00    +0.056 C 
ATOM     22  C   UNL     1       3.127  -2.623  -6.332  0.00  0.00    +0.006 C 
ATOM     23  C   UNL     1       3.191  -1.965  -7.715  0.00  0.00    +0.005 C 
ATOM     24  C   UNL     1       1.764  -1.655  -8.166  0.00  0.00    +0.037 C 
BRANCH  16  25
ATOM     25  C   UNL     1      -2.054   1.169  -6.814  0.00  0.00    +0.102 C 
ATOM     26  N   UNL     1      -3.005   1.731  -7.079  0.00  0.00    -0.191 NA
ENDBRANCH  16  25
ENDBRANCH  14  15
ENDBRANCH   1  14
TORSDOF 5
