REMARK  Name = ZINC53116603
REMARK  8 active torsions:
REMARK  status: ('A' for Active; 'I' for Inactive)
REMARK    1  A    between atoms: C_1  and  C_2
REMARK    2  A    between atoms: C_7  and  C_11
REMARK    3  A    between atoms: C_8  and  C_10
REMARK    4  A    between atoms: C_11  and  N_12
REMARK    5  A    between atoms: N_12  and  C_13
REMARK    6  A    between atoms: C_13  and  C_21
REMARK    7  A    between atoms: C_17  and  C_20
REMARK    8  A    between atoms: C_21  and  O_22
REMARK                            x       y       z     vdW  Elec       q    Type
REMARK                         _______ _______ _______ _____ _____    ______ ____
ROOT
ATOM      1  N   UNL     1      -1.181   1.452   3.271  0.00  0.00    +0.388 N 
ATOM      2  H   UNL     1      -1.442   0.721   3.915  0.00  0.00    -0.084 HD
ATOM      3  H   UNL     1      -0.232   1.304   2.961  0.00  0.00    -0.084 HD
ENDROOT
BRANCH   1   4
ATOM      4  C   UNL     1      -1.278   2.755   3.943  0.00  0.00    -0.044 C 
ATOM      5  C   UNL     1      -0.759   3.850   3.010  0.00  0.00    -0.010 C 
ATOM      6  C   UNL     1      -0.861   5.207   3.710  0.00  0.00    -0.001 C 
ATOM      7  C   UNL     1      -2.321   5.489   4.066  0.00  0.00    +0.003 C 
ATOM      8  C   UNL     1      -2.840   4.394   4.999  0.00  0.00    -0.015 C 
ATOM      9  C   UNL     1      -2.739   3.037   4.299  0.00  0.00    -0.007 C 
ATOM     10  C   UNL     1      -4.301   4.676   5.355  0.00  0.00    +0.007 C 
BRANCH   4  11
ATOM     11  C   UNL     1      -0.437   2.733   5.221  0.00  0.00    +0.143 C 
BRANCH  11  12
ATOM     12  O   UNL     1       0.906   2.362   4.901  0.00  0.00    -0.396 OA
ATOM     13  H   UNL     1       1.497   2.328   5.666  0.00  0.00    +0.209 HD
ENDBRANCH  11  12
ENDBRANCH   4  11
ENDBRANCH   1   4
BRANCH   1  14
ATOM     14  C   UNL     1      -2.083   1.431   2.112  0.00  0.00    -0.025 C 
BRANCH  14  21
ATOM     15  C   UNL     1      -4.171  -0.626   3.433  0.00  0.00    +0.064 C 
ATOM     16  C   UNL     1      -3.562  -1.532   2.393  0.00  0.00    +0.029 A 
ATOM     17  C   UNL     1      -3.986  -2.790   2.287  0.00  0.00    +0.070 A 
ATOM     18  S   UNL     1      -2.977  -3.408   0.950  0.00  0.00    -0.057 S 
ATOM     19  C   UNL     1      -2.060  -1.917   0.638  0.00  0.00    +0.178 A 
ATOM     20  N   UNL     1      -2.578  -1.046   1.560  0.00  0.00    -0.296 N 
ATOM     21  C   UNL     1      -1.890   0.146   1.349  0.00  0.00    +0.030 A 
ATOM     22  C   UNL     1      -1.024  -0.055   0.342  0.00  0.00    +0.059 A 
ATOM     23  N   UNL     1      -1.142  -1.327  -0.071  0.00  0.00    -0.226 NA
ATOM     24  C   UNL     1      -0.074   0.970  -0.221  0.00  0.00    +0.067 C 
ENDBRANCH  14  21
ENDBRANCH   1  14
TORSDOF 5
