REMARK  Name = ZINC16176695
REMARK  6 active torsions:
REMARK  status: ('A' for Active; 'I' for Inactive)
REMARK    1  A    between atoms: C_1  and  C_2
REMARK    2  A    between atoms: C_2  and  C_3
REMARK    3  A    between atoms: C_2  and  C_18
REMARK    4  A    between atoms: C_2  and  C_24
REMARK    5  A    between atoms: C_3  and  N_4
REMARK    6  A    between atoms: C_5  and  C_7
REMARK                            x       y       z     vdW  Elec       q    Type
REMARK                         _______ _______ _______ _____ _____    ______ ____
ROOT
ATOM      1  C   UNL     1      -3.631   1.937   0.431  0.00  0.00    +0.120 C 
ENDROOT
BRANCH   1   2
ATOM      2  N   UNL     1      -2.504   1.008   0.544  0.00  0.00    -0.310 N 
ATOM      3  C   UNL     1      -1.284   1.468   0.888  0.00  0.00    +0.251 C 
ATOM      4  O   UNL     1      -1.119   2.653   1.103  0.00  0.00    -0.270 OA
ATOM      5  H   UNL     1      -2.636   0.063   0.373  0.00  0.00    +0.149 HD
BRANCH   3   6
ATOM      6  C   UNL     1      -0.151   0.534   1.002  0.00  0.00    +0.122 A 
ATOM      7  C   UNL     1      -0.325  -0.818   0.760  0.00  0.00    +0.031 A 
ATOM      8  C   UNL     1       0.794  -1.680   0.876  0.00  0.00    +0.018 A 
ATOM      9  C   UNL     1       0.653  -3.056   0.638  0.00  0.00    +0.011 A 
ATOM     10  C   UNL     1       1.735  -3.880   0.752  0.00  0.00    +0.001 A 
ATOM     11  C   UNL     1       2.977  -3.367   1.102  0.00  0.00    +0.004 A 
ATOM     12  C   UNL     1       3.138  -2.019   1.340  0.00  0.00    +0.047 A 
ATOM     13  C   UNL     1       2.051  -1.159   1.231  0.00  0.00    +0.139 A 
ATOM     14  O   UNL     1       2.212   0.161   1.465  0.00  0.00    -0.422 OA
ATOM     15  C   UNL     1       1.183   1.020   1.369  0.00  0.00    +0.350 A 
ATOM     16  O   UNL     1       1.359   2.204   1.586  0.00  0.00    -0.244 OA
ENDBRANCH   3   6
ENDBRANCH   1   2
BRANCH   1  18
ATOM     17  C   UNL     1      -5.202   0.113   1.097  0.00  0.00    +0.023 C 
ATOM     18  C   UNL     1      -4.890   1.165   0.032  0.00  0.00    +0.033 C 
BRANCH  18  19
ATOM     19  C   UNL     1      -6.050   2.121  -0.085  0.00  0.00    -0.036 A 
ATOM     20  C   UNL     1      -6.040   3.103  -1.058  0.00  0.00    +0.004 A 
ATOM     21  C   UNL     1      -7.106   3.976  -1.169  0.00  0.00    +0.000 A 
ATOM     22  C   UNL     1      -8.176   3.874  -0.300  0.00  0.00    +0.000 A 
ATOM     23  C   UNL     1      -8.183   2.896   0.677  0.00  0.00    +0.000 A 
ATOM     24  C   UNL     1      -7.120   2.019   0.784  0.00  0.00    +0.004 A 
ENDBRANCH  18  19
BRANCH  18  25
ATOM     25  C   UNL     1      -4.664   0.486  -1.294  0.00  0.00    -0.036 A 
ATOM     26  C   UNL     1      -3.508   0.735  -2.010  0.00  0.00    +0.004 A 
ATOM     27  C   UNL     1      -3.298   0.108  -3.224  0.00  0.00    +0.000 A 
ATOM     28  C   UNL     1      -4.248  -0.761  -3.727  0.00  0.00    +0.000 A 
ATOM     29  C   UNL     1      -5.407  -1.006  -3.014  0.00  0.00    +0.000 A 
ATOM     30  C   UNL     1      -5.614  -0.383  -1.797  0.00  0.00    +0.004 A 
ENDBRANCH  18  25
ENDBRANCH   1  18
TORSDOF 5
