REMARK  Name = ZINC12243119
REMARK  12 active torsions:
REMARK  status: ('A' for Active; 'I' for Inactive)
REMARK    1  A    between atoms: C_1  and  C_2
REMARK    2  A    between atoms: C_3  and  C_24
REMARK    3  A    between atoms: C_11  and  C_13
REMARK    4  A    between atoms: C_11  and  C_14
REMARK    5  A    between atoms: C_11  and  N_68
REMARK    6  A    between atoms: C_14  and  C_15
REMARK    7  A    between atoms: C_18  and  O_23
REMARK    8  A    between atoms: C_19  and  O_21
REMARK    9  A    between atoms: O_21  and  C_22
REMARK   10  A    between atoms: C_24  and  N_25
REMARK   11  A    between atoms: C_26  and  C_28
REMARK   12  A    between atoms: C_29  and  C_30
REMARK                            x       y       z     vdW  Elec       q    Type
REMARK                         _______ _______ _______ _____ _____    ______ ____
ROOT
ATOM      1  C   UNL     1       6.456   1.451   2.527  0.00  0.00    +0.066 C 
ATOM      2  C   UNL     1       6.939   2.069   1.240  0.00  0.00    +0.043 A 
ATOM      3  C   UNL     1       6.229   1.860   0.073  0.00  0.00    -0.006 A 
ATOM      4  C   UNL     1       6.687   2.430  -1.107  0.00  0.00    -0.040 A 
ATOM      5  C   UNL     1       7.834   3.198  -1.070  0.00  0.00    -0.042 A 
ATOM      6  C   UNL     1       8.492   3.363   0.138  0.00  0.00    +0.113 A 
ATOM      7  N   UNL     1       8.034   2.802   1.239  0.00  0.00    -0.260 NA
ATOM      8  C   UNL     1       8.386   3.859  -2.304  0.00  0.00    -0.041 C 
ATOM      9  C   UNL     1       6.347   3.233  -3.432  0.00  0.00    -0.073 C 
ATOM     10  C   UNL     1       5.923   2.204  -2.383  0.00  0.00    +0.017 C 
ATOM     11  N   UNL     1       7.822   3.223  -3.508  0.00  0.00    +0.385 N 
ATOM     12  H   UNL     1       8.148   2.250  -3.556  0.00  0.00    -0.081 HD
ENDROOT
BRANCH  11  13
ATOM     13  C   UNL     1       8.273   3.943  -4.719  0.00  0.00    -0.067 C 
ATOM     14  C   UNL     1       7.826   3.162  -5.957  0.00  0.00    -0.013 C 
BRANCH  13  15
ATOM     15  C   UNL     1       9.800   4.043  -4.704  0.00  0.00    +0.020 C 
BRANCH  15  16
ATOM     16  C   UNL     1      10.262   4.862  -5.881  0.00  0.00    -0.045 A 
ATOM     17  C   UNL     1      10.284   6.242  -5.796  0.00  0.00    +0.007 A 
ATOM     18  C   UNL     1      10.707   6.998  -6.873  0.00  0.00    +0.049 A 
ATOM     19  C   UNL     1      11.109   6.373  -8.043  0.00  0.00    +0.158 A 
ATOM     20  C   UNL     1      11.087   4.984  -8.129  0.00  0.00    +0.162 A 
ATOM     21  C   UNL     1      10.667   4.232  -7.043  0.00  0.00    +0.053 A 
BRANCH  20  22
ATOM     22  O   UNL     1      11.482   4.366  -9.274  0.00  0.00    -0.491 OA
ATOM     23  C   UNL     1      11.433   2.938  -9.291  0.00  0.00    +0.277 C 
ENDBRANCH  20  22
BRANCH  19  24
ATOM     24  O   UNL     1      11.526   7.115  -9.103  0.00  0.00    -0.503 OA
ATOM     25  H   UNL     1      12.476   7.297  -9.107  0.00  0.00    +0.292 HD
ENDBRANCH  19  24
ENDBRANCH  15  16
ENDBRANCH  13  15
ENDBRANCH  11  13
BRANCH   3  26
ATOM     26  C   UNL     1       4.978   1.021   0.080  0.00  0.00    +0.142 C 
BRANCH  26  27
ATOM     27  N   UNL     1       3.817   1.876   0.340  0.00  0.00    -0.308 N 
ATOM     28  C   UNL     1       2.582   1.339   0.392  0.00  0.00    +0.237 C 
ATOM     29  O   UNL     1       2.431   0.144   0.223  0.00  0.00    -0.271 OA
ATOM     30  H   UNL     1       3.938   2.829   0.475  0.00  0.00    +0.149 HD
BRANCH  28  31
ATOM     31  C   UNL     1       1.422   2.194   0.652  0.00  0.00    +0.068 C 
ATOM     32  C   UNL     1       0.187   1.657   0.704  0.00  0.00    +0.013 C 
BRANCH  32  33
ATOM     33  C   UNL     1      -0.980   2.518   0.959  0.00  0.00    -0.025 A 
ATOM     34  C   UNL     1      -0.809   3.891   1.159  0.00  0.00    +0.008 A 
ATOM     35  C   UNL     1      -1.908   4.691   1.393  0.00  0.00    +0.001 A 
ATOM     36  C   UNL     1      -3.175   4.137   1.440  0.00  0.00    +0.000 A 
ATOM     37  C   UNL     1      -3.351   2.778   1.248  0.00  0.00    +0.001 A 
ATOM     38  C   UNL     1      -2.263   1.965   1.008  0.00  0.00    +0.008 A 
ENDBRANCH  32  33
ENDBRANCH  28  31
ENDBRANCH  26  27
ENDBRANCH   3  26
TORSDOF 9
