REMARK  Name = ZINC36028861
REMARK  10 active torsions:
REMARK  status: ('A' for Active; 'I' for Inactive)
REMARK    1  A    between atoms: C_1  and  C_2
REMARK    2  A    between atoms: C_5  and  C_8
REMARK    3  A    between atoms: C_11  and  C_36
REMARK    4  A    between atoms: C_11  and  O_42
REMARK    5  A    between atoms: C_12  and  C_28
REMARK    6  A    between atoms: C_14  and  C_21
REMARK    7  A    between atoms: C_16  and  C_17
REMARK    8  A    between atoms: C_16  and  C_19
REMARK    9  A    between atoms: C_24  and  C_27
REMARK   10  A    between atoms: C_28  and  C_30
REMARK                            x       y       z     vdW  Elec       q    Type
REMARK                         _______ _______ _______ _____ _____    ______ ____
ROOT
ATOM      1  C   UNL     1       0.569  -4.374  -0.285  0.00  0.00    +0.057 C 
ATOM      2  C   UNL     1       1.623  -4.690   0.777  0.00  0.00    +0.051 C 
ATOM      3  C   UNL     1       1.220  -4.043   2.104  0.00  0.00    +0.102 C 
ATOM      4  C   UNL     1      -0.135  -4.595   2.550  0.00  0.00    +0.106 C 
ATOM      5  C   UNL     1      -1.189  -4.279   1.488  0.00  0.00    +0.067 C 
ATOM      6  C   UNL     1      -0.786  -4.926   0.161  0.00  0.00    +0.157 C 
ENDROOT
BRANCH   1  11
ATOM      7  C   UNL     1       0.184   1.351  -0.971  0.00  0.00    +0.044 C 
ATOM      8  C   UNL     1       0.284  -0.142  -0.792  0.00  0.00    -0.050 A 
ATOM      9  C   UNL     1      -0.853  -0.885  -0.535  0.00  0.00    +0.003 A 
ATOM     10  C   UNL     1      -0.760  -2.255  -0.371  0.00  0.00    +0.004 A 
ATOM     11  C   UNL     1       0.468  -2.881  -0.465  0.00  0.00    -0.042 A 
ATOM     12  C   UNL     1       1.605  -2.138  -0.723  0.00  0.00    +0.004 A 
ATOM     13  C   UNL     1       1.512  -0.769  -0.891  0.00  0.00    +0.003 A 
ENDBRANCH   1  11
BRANCH   5  14
ATOM     14  C   UNL     1      -2.524  -4.823   1.927  0.00  0.00    -0.041 A 
ATOM     15  C   UNL     1      -2.712  -6.188   2.036  0.00  0.00    +0.004 A 
ATOM     16  C   UNL     1      -3.937  -6.687   2.439  0.00  0.00    +0.003 A 
ATOM     17  C   UNL     1      -4.973  -5.821   2.734  0.00  0.00    -0.050 A 
ATOM     18  C   UNL     1      -4.784  -4.456   2.626  0.00  0.00    +0.003 A 
ATOM     19  C   UNL     1      -3.559  -3.957   2.227  0.00  0.00    +0.004 A 
ATOM     20  C   UNL     1      -6.308  -6.365   3.172  0.00  0.00    +0.044 C 
ENDBRANCH   5  14
BRANCH   3  21
ATOM     21  C   UNL     1       2.259  -4.354   3.150  0.00  0.00    -0.015 A 
ATOM     22  C   UNL     1       2.428  -3.508   4.230  0.00  0.00    +0.006 A 
ATOM     23  C   UNL     1       3.380  -3.793   5.190  0.00  0.00    +0.000 A 
ATOM     24  C   UNL     1       4.164  -4.925   5.071  0.00  0.00    +0.000 A 
ATOM     25  C   UNL     1       3.995  -5.772   3.991  0.00  0.00    +0.000 A 
ATOM     26  C   UNL     1       3.040  -5.489   3.034  0.00  0.00    +0.006 A 
ENDBRANCH   3  21
BRANCH   6  27
ATOM     27  C   UNL     1      -0.688  -6.385   0.336  0.00  0.00    +0.085 C 
ATOM     28  N   UNL     1      -0.613  -7.510   0.472  0.00  0.00    -0.195 NA
ENDBRANCH   6  27
BRANCH   6  29
ATOM     29  C   UNL     1      -1.801  -4.622  -0.861  0.00  0.00    +0.085 C 
ATOM     30  N   UNL     1      -2.584  -4.388  -1.650  0.00  0.00    -0.195 NA
ENDBRANCH   6  29
BRANCH   4  31
ATOM     31  C   UNL     1      -0.034  -6.088   2.730  0.00  0.00    +0.170 C 
ATOM     32  O   UNL     1       0.762  -6.725   2.074  0.00  0.00    -0.292 OA
BRANCH  31  33
ATOM     33  C   UNL     1      -0.902  -6.772   3.701  0.00  0.00    +0.018 A 
ATOM     34  C   UNL     1      -1.734  -6.030   4.545  0.00  0.00    +0.011 A 
ATOM     35  C   UNL     1      -2.545  -6.679   5.452  0.00  0.00    +0.001 A 
ATOM     36  C   UNL     1      -2.537  -8.061   5.529  0.00  0.00    +0.000 A 
ATOM     37  C   UNL     1      -1.716  -8.802   4.697  0.00  0.00    +0.001 A 
ATOM     38  C   UNL     1      -0.904  -8.169   3.781  0.00  0.00    +0.011 A 
ENDBRANCH  31  33
ENDBRANCH   4  31
BRANCH   3  39
ATOM     39  O   UNL     1       1.125  -2.627   1.934  0.00  0.00    -0.383 OA
ATOM     40  H   UNL     1       1.950  -2.209   1.651  0.00  0.00    +0.211 HD
ENDBRANCH   3  39
TORSDOF 8
