REMARK  Name = ZINC21859985
REMARK  10 active torsions:
REMARK  status: ('A' for Active; 'I' for Inactive)
REMARK    1  A    between atoms: C_1  and  C_2
REMARK    2  A    between atoms: C_2  and  C_4
REMARK    3  A    between atoms: C_2  and  C_32
REMARK    4  A    between atoms: C_4  and  N_5
REMARK    5  A    between atoms: C_13  and  O_30
REMARK    6  A    between atoms: C_18  and  C_19
REMARK    7  A    between atoms: C_18  and  C_20
REMARK    8  A    between atoms: N_22  and  C_23
REMARK    9  A    between atoms: C_23  and  C_24
REMARK   10  A    between atoms: O_30  and  C_31
REMARK                            x       y       z     vdW  Elec       q    Type
REMARK                         _______ _______ _______ _____ _____    ______ ____
ROOT
ATOM      1  N   UNL     1      -1.225   3.403   3.329  0.00  0.00    -0.280 N 
ATOM      2  C   UNL     1      -2.447   3.652   2.804  0.00  0.00    +0.264 C 
ATOM      3  O   UNL     1      -2.912   4.776   2.768  0.00  0.00    -0.268 OA
ATOM      4  C   UNL     1      -3.186   2.491   2.278  0.00  0.00    +0.106 A 
ATOM      5  C   UNL     1      -4.315   2.447   1.539  0.00  0.00    +0.041 A 
ATOM      6  C   UNL     1      -4.591   1.094   1.273  0.00  0.00    +0.001 A 
ATOM      7  C   UNL     1      -5.627   0.480   0.553  0.00  0.00    +0.013 A 
ATOM      8  C   UNL     1      -5.605  -0.887   0.473  0.00  0.00    +0.046 A 
ATOM      9  C   UNL     1      -4.606  -1.646   1.075  0.00  0.00    +0.122 A 
ATOM     10  C   UNL     1      -3.570  -1.067   1.795  0.00  0.00    +0.072 A 
ATOM     11  C   UNL     1      -3.568   0.324   1.894  0.00  0.00    +0.053 A 
ATOM     12  N   UNL     1      -2.727   1.190   2.509  0.00  0.00    -0.334 N 
ATOM     13  C   UNL     1      -1.524   0.936   3.310  0.00  0.00    +0.157 C 
ATOM     14  C   UNL     1      -0.563   2.115   3.163  0.00  0.00    +0.128 C 
ATOM     15  C   UNL     1       0.540   1.988   4.216  0.00  0.00    +0.043 C 
ENDROOT
BRANCH  14  16
ATOM     16  C   UNL     1       0.064   2.063   1.793  0.00  0.00    +0.238 C 
ATOM     17  O   UNL     1       1.143   1.530   1.640  0.00  0.00    -0.273 OA
ATOM     18  N   UNL     1      -0.574   2.609   0.739  0.00  0.00    -0.311 N 
ATOM     19  H   UNL     1      -1.552   3.092   0.878  0.00  0.00    +0.149 HD
BRANCH  18  20
ATOM     20  C   UNL     1       0.036   2.559  -0.592  0.00  0.00    +0.135 C 
BRANCH  20  21
ATOM     21  C   UNL     1      -0.887   3.245  -1.602  0.00  0.00    +0.135 C 
ATOM     22  C   UNL     1      -0.325   3.095  -3.033  0.00  0.00    +0.035 C 
ATOM     23  C   UNL     1      -0.654   4.444  -3.709  0.00  0.00    +0.031 C 
ATOM     24  C   UNL     1      -1.377   5.250  -2.607  0.00  0.00    +0.160 C 
ATOM     25  O   UNL     1      -0.920   4.669  -1.366  0.00  0.00    -0.375 OA
ENDBRANCH  20  21
ENDBRANCH  18  20
ENDBRANCH  14  16
BRANCH   9  26
ATOM     26  O   UNL     1      -4.646  -2.999   0.955  0.00  0.00    -0.495 OA
ATOM     27  C   UNL     1      -5.730  -3.552   0.206  0.00  0.00    +0.277 C 
ENDBRANCH   9  26
BRANCH   1  28
ATOM     28  C   UNL     1      -0.549   4.458   4.088  0.00  0.00    +0.117 C 
BRANCH  28  30
ATOM     29  C   UNL     1      -2.483   4.744   5.644  0.00  0.00    +0.014 C 
ATOM     30  C   UNL     1      -0.995   4.400   5.551  0.00  0.00    +0.033 C 
BRANCH  30  31
ATOM     31  C   UNL     1      -0.198   5.393   6.358  0.00  0.00    -0.043 A 
ATOM     32  C   UNL     1      -0.246   6.738   6.042  0.00  0.00    +0.004 A 
ATOM     33  C   UNL     1       0.481   7.648   6.785  0.00  0.00    +0.000 A 
ATOM     34  C   UNL     1       1.263   7.213   7.839  0.00  0.00    +0.000 A 
ATOM     35  C   UNL     1       1.315   5.867   8.152  0.00  0.00    +0.000 A 
ATOM     36  C   UNL     1       0.585   4.957   7.411  0.00  0.00    +0.004 A 
ENDBRANCH  30  31
ENDBRANCH  28  30
ENDBRANCH   1  28
TORSDOF 7
