REMARK  Name = ZINC38660401
REMARK  14 active torsions:
REMARK  status: ('A' for Active; 'I' for Inactive)
REMARK    1  A    between atoms: C_1  and  C_2
REMARK    2  A    between atoms: C_2  and  C_3
REMARK    3  A    between atoms: C_2  and  C_4
REMARK    4  A    between atoms: C_4  and  C_5
REMARK    5  A    between atoms: C_5  and  O_6
REMARK    6  A    between atoms: O_6  and  C_7
REMARK    7  A    between atoms: C_10  and  C_15
REMARK    8  A    between atoms: C_12  and  O_13
REMARK    9  A    between atoms: O_13  and  C_14
REMARK   10  A    between atoms: C_20  and  O_29
REMARK   11  A    between atoms: C_24  and  N_28
REMARK   12  A    between atoms: C_25  and  C_26
REMARK   13  A    between atoms: O_29  and  C_30
REMARK   14  A    between atoms: C_30  and  C_32
REMARK                            x       y       z     vdW  Elec       q    Type
REMARK                         _______ _______ _______ _____ _____    ______ ____
ROOT
ATOM      1  C   UNL     1      -3.485  -8.135  -0.598  0.00  0.00    +0.098 C 
ATOM      2  C   UNL     1      -2.872  -8.600  -1.892  0.00  0.00    +0.008 A 
ATOM      3  C   UNL     1      -3.587  -8.471  -3.069  0.00  0.00    +0.012 A 
ATOM      4  C   UNL     1      -3.041  -8.891  -4.265  0.00  0.00    +0.047 A 
ATOM      5  C   UNL     1      -1.769  -9.446  -4.290  0.00  0.00    +0.135 A 
ATOM      6  C   UNL     1      -1.049  -9.576  -3.113  0.00  0.00    +0.093 A 
ATOM      7  C   UNL     1      -1.600  -9.152  -1.911  0.00  0.00    +0.138 A 
ATOM      8  O   UNL     1      -0.883  -9.286  -0.768  0.00  0.00    -0.441 OA
ATOM      9  C   UNL     1      -1.507  -9.256   0.422  0.00  0.00    +0.199 C 
ATOM     10  C   UNL     1      -2.740  -8.724   0.568  0.00  0.00    +0.098 C 
ENDROOT
BRANCH   1  14
ATOM     11  C   UNL     1      -3.289  -3.868  -0.391  0.00  0.00    +0.162 A 
ATOM     12  C   UNL     1      -2.125  -4.614  -0.492  0.00  0.00    +0.050 A 
ATOM     13  C   UNL     1      -2.192  -5.993  -0.558  0.00  0.00    +0.008 A 
ATOM     14  C   UNL     1      -3.418  -6.631  -0.525  0.00  0.00    -0.031 A 
ATOM     15  C   UNL     1      -4.582  -5.893  -0.425  0.00  0.00    +0.054 A 
ATOM     16  C   UNL     1      -4.522  -4.511  -0.352  0.00  0.00    +0.162 A 
BRANCH  16  17
ATOM     17  O   UNL     1      -5.667  -3.783  -0.247  0.00  0.00    -0.491 OA
ATOM     18  C   UNL     1      -6.896  -4.510  -0.212  0.00  0.00    +0.277 C 
ENDBRANCH  16  17
BRANCH  11  19
ATOM     19  O   UNL     1      -3.225  -2.511  -0.326  0.00  0.00    -0.488 OA
BRANCH  19  20
ATOM     20  C   UNL     1      -1.925  -1.920  -0.372  0.00  0.00    +0.229 C 
BRANCH  20  21
ATOM     21  C   UNL     1      -2.053  -0.398  -0.286  0.00  0.00    +0.044 C 
BRANCH  21  23
ATOM     22  C   UNL     1      -0.795   1.759  -0.376  0.00  0.00    +0.007 C 
ATOM     23  C   UNL     1      -0.661   0.235  -0.336  0.00  0.00    -0.014 C 
ATOM     24  C   UNL     1       0.130  -0.175   0.908  0.00  0.00    +0.007 C 
ENDBRANCH  21  23
ENDBRANCH  20  21
ENDBRANCH  19  20
ENDBRANCH  11  19
ENDBRANCH   1  14
BRANCH   9  25
ATOM     25  N   UNL     1      -0.872  -9.780   1.520  0.00  0.00    -0.328 N 
ATOM     26  H   UNL     1       0.014 -10.165   1.431  0.00  0.00    +0.145 HD
ATOM     27  H   UNL     1      -1.309  -9.766   2.386  0.00  0.00    +0.145 HD
ENDBRANCH   9  25
BRANCH  10  28
ATOM     28  C   UNL     1      -3.350  -8.721   1.863  0.00  0.00    +0.101 C 
ATOM     29  N   UNL     1      -3.833  -8.719   2.891  0.00  0.00    -0.191 NA
ENDBRANCH  10  28
BRANCH   5  30
ATOM     30  O   UNL     1      -1.230  -9.861  -5.466  0.00  0.00    -0.422 OA
BRANCH  30  31
ATOM     31  C   UNL     1      -0.890  -8.923  -6.372  0.00  0.00    +0.347 C 
ATOM     32  O   UNL     1      -0.970  -7.745  -6.087  0.00  0.00    -0.244 OA
BRANCH  31  33
ATOM     33  C   UNL     1      -0.420  -9.327  -7.712  0.00  0.00    +0.094 A 
ATOM     34  C   UNL     1      -0.332 -10.681  -8.046  0.00  0.00    +0.018 A 
ATOM     35  C   UNL     1       0.107 -11.051  -9.299  0.00  0.00    +0.001 A 
ATOM     36  C   UNL     1       0.461 -10.086 -10.227  0.00  0.00    +0.003 A 
ATOM     37  C   UNL     1       0.377  -8.745  -9.906  0.00  0.00    +0.039 A 
ATOM     38  C   UNL     1      -0.067  -8.357  -8.655  0.00  0.00    +0.137 A 
ATOM     39  F   UNL     1      -0.153  -7.045  -8.343  0.00  0.00    -0.205 F 
ENDBRANCH  31  33
ENDBRANCH  30  31
ENDBRANCH   5  30
TORSDOF 11
