REMARK  Name = ZINC17422495
REMARK  4 active torsions:
REMARK  status: ('A' for Active; 'I' for Inactive)
REMARK    1  A    between atoms: C_3  and  C_9
REMARK    2  A    between atoms: N_10  and  N_11
REMARK    3  A    between atoms: N_14  and  N_17
REMARK    4  A    between atoms: C_18  and  C_19
REMARK                            x       y       z     vdW  Elec       q    Type
REMARK                         _______ _______ _______ _____ _____    ______ ____
ROOT
ATOM      1  N   UNL     1       4.296   6.040  -0.309  0.00  0.00    -0.252 N 
ATOM      2  C   UNL     1       4.786   7.324   0.213  0.00  0.00    +0.146 C 
ATOM      3  C   UNL     1       5.584   7.051   1.500  0.00  0.00    +0.146 C 
ATOM      4  N   UNL     1       6.553   5.979   1.232  0.00  0.00    -0.252 N 
ATOM      5  C   UNL     1       6.063   4.698   0.704  0.00  0.00    +0.146 C 
ATOM      6  C   UNL     1       5.265   4.968  -0.577  0.00  0.00    +0.146 C 
ENDROOT
BRANCH   1   8
ATOM      7  C   UNL     1       2.498   4.678  -0.922  0.00  0.00    +0.139 C 
ATOM      8  N   UNL     1       2.930   5.844  -0.552  0.00  0.00    -0.192 NA
BRANCH   7  11
ATOM      9  C   UNL     1      -0.775   2.968  -1.591  0.00  0.00    +0.021 A 
ATOM     10  C   UNL     1       0.581   3.185  -1.461  0.00  0.00    +0.012 A 
ATOM     11  C   UNL     1       1.049   4.439  -1.063  0.00  0.00    +0.013 A 
ATOM     12  C   UNL     1       0.139   5.467  -0.798  0.00  0.00    +0.051 A 
ATOM     13  C   UNL     1      -1.215   5.236  -0.931  0.00  0.00    +0.040 A 
ATOM     14  C   UNL     1      -1.672   3.988  -1.322  0.00  0.00    +0.042 A 
ATOM     15 CL   UNL     1      -3.377   3.704  -1.481  0.00  0.00    -0.083 Cl
ATOM     16 CL   UNL     1       0.711   7.029  -0.302  0.00  0.00    -0.083 Cl
ENDBRANCH   7  11
ENDBRANCH   1   8
BRANCH   4  17
ATOM     17  N   UNL     1       7.918   6.175   1.475  0.00  0.00    -0.192 NA
ATOM     18  C   UNL     1       8.325   6.501   2.663  0.00  0.00    +0.139 C 
BRANCH  18  19
ATOM     19  C   UNL     1       7.380   6.490   3.795  0.00  0.00    +0.013 A 
ATOM     20  C   UNL     1       6.185   5.773   3.704  0.00  0.00    +0.012 A 
ATOM     21  C   UNL     1       5.305   5.767   4.766  0.00  0.00    +0.021 A 
ATOM     22  C   UNL     1       5.604   6.470   5.922  0.00  0.00    +0.042 A 
ATOM     23  C   UNL     1       6.787   7.183   6.019  0.00  0.00    +0.040 A 
ATOM     24  C   UNL     1       7.679   7.194   4.965  0.00  0.00    +0.051 A 
ATOM     25 CL   UNL     1       9.164   8.083   5.091  0.00  0.00    -0.083 Cl
ATOM     26 CL   UNL     1       4.491   6.457   7.254  0.00  0.00    -0.083 Cl
ENDBRANCH  18  19
ENDBRANCH   4  17
TORSDOF 4
