REMARK  Name = ZINC08740004
REMARK  13 active torsions:
REMARK  status: ('A' for Active; 'I' for Inactive)
REMARK    1  A    between atoms: C_1  and  C_2
REMARK    2  A    between atoms: C_2  and  C_39
REMARK    3  A    between atoms: C_7  and  C_38
REMARK    4  A    between atoms: C_10  and  C_16
REMARK    5  A    between atoms: C_13  and  O_15
REMARK    6  A    between atoms: C_22  and  C_32
REMARK    7  A    between atoms: C_22  and  C_33
REMARK    8  A    between atoms: C_26  and  C_31
REMARK    9  A    between atoms: C_29  and  C_30
REMARK   10  A    between atoms: C_33  and  O_35
REMARK   11  A    between atoms: O_35  and  C_36
REMARK   12  A    between atoms: C_36  and  C_37
REMARK   13  A    between atoms: C_37  and  N_86
REMARK                            x       y       z     vdW  Elec       q    Type
REMARK                         _______ _______ _______ _____ _____    ______ ____
ROOT
ATOM      1  C   UNL     1       1.250  -2.290  -4.070  0.00  0.00    +0.014 C 
ATOM      2  C   UNL     1       0.816  -2.075  -2.599  0.00  0.00    -0.006 C 
ATOM      3  C   UNL     1       0.221  -0.690  -2.478  0.00  0.00    +0.004 C 
ATOM      4  C   UNL     1      -1.124  -0.569  -3.181  0.00  0.00    +0.005 C 
ATOM      5  C   UNL     1      -2.325  -1.006  -2.360  0.00  0.00    +0.008 C 
ATOM      6  C   UNL     1      -2.340  -0.386  -0.974  0.00  0.00    -0.016 C 
ATOM      7  C   UNL     1      -0.994  -0.504  -0.286  0.00  0.00    +0.025 C 
ATOM      8  C   UNL     1       0.201  -0.051  -1.101  0.00  0.00    -0.022 C 
ATOM      9  C   UNL     1       1.490  -0.341  -0.318  0.00  0.00    +0.010 C 
ATOM     10  C   UNL     1       1.794  -1.834  -0.309  0.00  0.00    +0.032 C 
ATOM     11  C   UNL     1       2.071  -2.268  -1.746  0.00  0.00    +0.120 C 
ATOM     12  C   UNL     1       0.205   1.484  -1.282  0.00  0.00    +0.012 C 
ATOM     13  C   UNL     1      -1.050   0.114   1.079  0.00  0.00    -0.022 C 
ATOM     14  C   UNL     1      -2.180   0.197   1.773  0.00  0.00    +0.000 C 
ATOM     15  C   UNL     1      -3.464  -0.268   1.203  0.00  0.00    -0.041 C 
ATOM     16  C   UNL     1      -4.598   0.049   1.819  0.00  0.00    -0.052 C 
ATOM     17  C   UNL     1      -4.532   0.761   3.149  0.00  0.00    +0.050 C 
ATOM     18  C   UNL     1      -5.514   0.148   4.146  0.00  0.00    +0.075 C 
ATOM     19  C   UNL     1      -6.933   0.198   3.577  0.00  0.00    +0.093 C 
ATOM     20  C   UNL     1      -6.956  -0.558   2.273  0.00  0.00    +0.144 C 
ATOM     21  O   UNL     1      -7.785  -1.414   2.078  0.00  0.00    -0.296 OA
ATOM     22  C   UNL     1      -5.940  -0.236   1.208  0.00  0.00    +0.048 C 
ATOM     23  C   UNL     1      -5.869  -1.380   0.205  0.00  0.00    +0.019 C 
ATOM     24  C   UNL     1      -4.744  -1.128  -0.797  0.00  0.00    +0.013 C 
ATOM     25  C   UNL     1      -3.408  -1.045  -0.085  0.00  0.00    -0.001 C 
ATOM     26  C   UNL     1      -2.995  -2.479   0.254  0.00  0.00    +0.016 C 
ATOM     27  C   UNL     1      -6.414   1.027   0.480  0.00  0.00    +0.024 C 
ATOM     28  C   UNL     1      -5.464   0.943   5.455  0.00  0.00    +0.023 C 
ATOM     29  C   UNL     1      -2.767   1.088  -1.113  0.00  0.00    +0.012 C 
ATOM     30  C   UNL     1      -0.175  -3.187  -2.254  0.00  0.00    +0.014 C 
ENDROOT
BRANCH  11  31
ATOM     31  O   UNL     1       3.144  -1.498  -2.289  0.00  0.00    -0.391 OA
ATOM     32  H   UNL     1       3.976  -1.585  -1.804  0.00  0.00    +0.210 HD
ENDBRANCH  11  31
BRANCH  18  33
ATOM     33  C   UNL     1      -5.128  -1.283   4.420  0.00  0.00    +0.314 C 
ATOM     34  O   UNL     1      -4.165  -1.764   3.872  0.00  0.00    -0.250 OA
BRANCH  33  35
ATOM     35  O   UNL     1      -5.855  -2.022   5.272  0.00  0.00    -0.466 OA
BRANCH  35  36
ATOM     36  C   UNL     1      -5.426  -3.392   5.488  0.00  0.00    +0.213 C 
BRANCH  36  37
ATOM     37  C   UNL     1      -6.369  -4.072   6.482  0.00  0.00    -0.045 C 
BRANCH  37  40
ATOM     38  H   UNL     1      -7.682  -4.661   5.010  0.00  0.00    -0.090 HD
ATOM     39  H   UNL     1      -8.353  -4.620   6.531  0.00  0.00    -0.090 HD
ATOM     40  N   UNL     1      -7.716  -4.149   5.890  0.00  0.00    +0.380 N 
ATOM     41  H   UNL     1      -8.062  -3.199   5.712  0.00  0.00    -0.090 HD
ENDBRANCH  37  40
ENDBRANCH  36  37
ENDBRANCH  35  36
ENDBRANCH  33  35
ENDBRANCH  18  33
TORSDOF 6
