REMARK  Name = ZINC10214567
REMARK  6 active torsions:
REMARK  status: ('A' for Active; 'I' for Inactive)
REMARK    1  A    between atoms: C_1  and  C_2
REMARK    2  A    between atoms: C_2  and  O_3
REMARK    3  A    between atoms: O_3  and  C_4
REMARK    4  A    between atoms: C_16  and  N_56
REMARK    5  A    between atoms: C_21  and  C_23
REMARK    6  A    between atoms: C_27  and  O_29
REMARK                            x       y       z     vdW  Elec       q    Type
REMARK                         _______ _______ _______ _____ _____    ______ ____
ROOT
ATOM      1  C   UNL     1      -1.220   1.750   0.017  0.00  0.00    +0.162 A 
ATOM      2  C   UNL     1      -0.013   1.076   0.008  0.00  0.00    +0.049 A 
ATOM      3  C   UNL     1       1.176   1.782   0.000  0.00  0.00    +0.004 A 
ATOM      4  C   UNL     1       1.151   3.163  -0.001  0.00  0.00    +0.009 A 
ATOM      5  C   UNL     1      -0.053   3.844   0.006  0.00  0.00    +0.020 A 
ATOM      6  C   UNL     1      -1.251   3.148   0.032  0.00  0.00    +0.170 A 
ATOM      7  O   UNL     1      -2.471   3.744   0.079  0.00  0.00    -0.463 OA
ATOM      8  C   UNL     1      -2.598   5.144  -0.174  0.00  0.00    +0.190 C 
ATOM      9  C   UNL     1      -3.846   5.689   0.518  0.00  0.00    +0.052 C 
ATOM     10  C   UNL     1      -3.990   7.181   0.203  0.00  0.00    -0.074 C 
ATOM     11  C   UNL     1      -2.865   6.901  -1.926  0.00  0.00    -0.074 C 
ATOM     12  C   UNL     1      -2.687   5.401  -1.677  0.00  0.00    +0.052 C 
ATOM     13  C   UNL     1      -4.363   8.771  -1.583  0.00  0.00    -0.096 C 
ATOM     14  N   UNL     1      -1.401   5.786   0.375  0.00  0.00    -0.207 N 
ATOM     15  C   UNL     1      -0.048   5.349  -0.042  0.00  0.00    +0.136 C 
ATOM     16  C   UNL     1       0.853   5.957   1.041  0.00  0.00    +0.086 C 
ATOM     17  C   UNL     1      -0.065   6.914   1.774  0.00  0.00    +0.069 C 
ATOM     18  N   UNL     1      -1.273   6.771   1.338  0.00  0.00    -0.185 NA
ATOM     19  N   UNL     1      -4.106   7.352  -1.261  0.00  0.00    +0.378 N 
ATOM     20  H   UNL     1      -4.891   6.785  -1.601  0.00  0.00    -0.082 HD
ENDROOT
BRANCH  17  21
ATOM     21  C   UNL     1       0.356   7.862   2.823  0.00  0.00    +0.001 A 
ATOM     22  C   UNL     1       1.695   7.923   3.217  0.00  0.00    +0.010 A 
ATOM     23  C   UNL     1       2.086   8.814   4.194  0.00  0.00    +0.004 A 
ATOM     24  C   UNL     1       1.153   9.641   4.795  0.00  0.00    +0.045 A 
ATOM     25  C   UNL     1      -0.180   9.584   4.414  0.00  0.00    +0.117 A 
ATOM     26  C   UNL     1      -0.583   8.697   3.430  0.00  0.00    +0.055 A 
BRANCH  25  27
ATOM     27  O   UNL     1      -1.091  10.399   5.007  0.00  0.00    -0.507 OA
ATOM     28  H   UNL     1      -1.504  10.020   5.795  0.00  0.00    +0.292 HD
ENDBRANCH  25  27
ENDBRANCH  17  21
BRANCH   1  29
ATOM     29  O   UNL     1      -2.384   1.048   0.019  0.00  0.00    -0.489 OA
BRANCH  29  31
ATOM     30  C   UNL     1      -3.686  -0.989   0.014  0.00  0.00    +0.048 C 
ATOM     31  C   UNL     1      -2.283  -0.378   0.011  0.00  0.00    +0.226 C 
ENDBRANCH  29  31
ENDBRANCH   1  29
TORSDOF 4
