REMARK  Name = ZINC09599578
REMARK  6 active torsions:
REMARK  status: ('A' for Active; 'I' for Inactive)
REMARK    1  A    between atoms: C_4  and  S_7
REMARK    2  A    between atoms: S_7  and  C_10
REMARK    3  A    between atoms: C_10  and  C_11
REMARK    4  A    between atoms: C_11  and  C_12
REMARK    5  A    between atoms: N_14  and  C_15
REMARK    6  A    between atoms: C_16  and  C_25
REMARK                            x       y       z     vdW  Elec       q    Type
REMARK                         _______ _______ _______ _____ _____    ______ ____
ROOT
ATOM      1  C   UNL     1       3.738   3.312   0.390  0.00  0.00    +0.082 A 
ATOM      2  C   UNL     1       3.665   2.362  -0.613  0.00  0.00    +0.039 A 
ATOM      3  C   UNL     1       2.399   1.674  -0.817  0.00  0.00    -0.026 A 
ATOM      4  C   UNL     1       1.386   2.045  -0.000  0.00  0.00    -0.005 A 
ATOM      5  S   UNL     1       2.086   3.283   1.060  0.00  0.00    -0.077 S 
ATOM      6  C   UNL     1      -0.019   1.530   0.011  0.00  0.00    +0.043 C 
ATOM      7  C   UNL     1       0.002  -0.004   0.002  0.00  0.00    +0.005 C 
ATOM      8  C   UNL     1       0.006  -0.475  -1.449  0.00  0.00    +0.001 C 
ATOM      9  C   UNL     1       0.772   0.518  -2.321  0.00  0.00    +0.005 C 
ATOM     10  C   UNL     1       2.230   0.597  -1.884  0.00  0.00    +0.037 C 
ENDROOT
BRANCH   2  11
ATOM     11  C   UNL     1       4.836   2.055  -1.452  0.00  0.00    +0.112 A 
ATOM     12  N   UNL     1       4.943   1.186  -2.436  0.00  0.00    -0.239 NA
ATOM     13  C   UNL     1       6.088   1.014  -3.127  0.00  0.00    +0.079 A 
ATOM     14  C   UNL     1       6.335   0.126  -4.201  0.00  0.00    +0.029 A 
ATOM     15  C   UNL     1       7.569   0.070  -4.794  0.00  0.00    +0.002 A 
ATOM     16  C   UNL     1       8.615   0.875  -4.367  0.00  0.00    +0.001 A 
ATOM     17  C   UNL     1       8.411   1.755  -3.321  0.00  0.00    +0.017 A 
ATOM     18  C   UNL     1       7.178   1.818  -2.720  0.00  0.00    +0.040 A 
ATOM     19  S   UNL     1       6.476   2.763  -1.388  0.00  0.00    -0.067 S 
ENDBRANCH   2  11
BRANCH   1  22
ATOM     20  C   UNL     1       4.694   4.971   1.789  0.00  0.00    +0.219 C 
ATOM     21  O   UNL     1       3.631   5.083   2.363  0.00  0.00    -0.275 OA
ATOM     22  N   UNL     1       4.823   4.091   0.776  0.00  0.00    -0.279 N 
ATOM     23  H   UNL     1       5.673   4.001   0.317  0.00  0.00    +0.155 HD
BRANCH  20  24
ATOM     24  C   UNL     1       5.870   5.815   2.208  0.00  0.00    +0.119 C 
BRANCH  24  25
ATOM     25  C   UNL     1       5.458   6.722   3.370  0.00  0.00    +0.181 C 
BRANCH  25  26
ATOM     26  S   UNL     1       6.874   7.738   3.874  0.00  0.00    -0.003 S 
ATOM     27  O   UNL     1       7.881   6.921   4.456  0.00  0.00    -0.169 OA
ATOM     28  O   UNL     1       7.198   8.668   2.850  0.00  0.00    -0.169 OA
BRANCH  26  32
ATOM     29  C   UNL     1       5.328  10.273   7.291  0.00  0.00    +0.000 A 
ATOM     30  C   UNL     1       5.895   9.039   7.548  0.00  0.00    +0.002 A 
ATOM     31  C   UNL     1       6.367   8.265   6.504  0.00  0.00    +0.027 A 
ATOM     32  C   UNL     1       6.272   8.725   5.204  0.00  0.00    +0.088 A 
ATOM     33  C   UNL     1       5.710   9.961   4.948  0.00  0.00    +0.027 A 
ATOM     34  C   UNL     1       5.233  10.733   5.991  0.00  0.00    +0.002 A 
ENDBRANCH  26  32
ENDBRANCH  25  26
ENDBRANCH  24  25
ENDBRANCH  20  24
ENDBRANCH   1  22
TORSDOF 6
