REMARK  Name = ZINC38705353
REMARK  13 active torsions:
REMARK  status: ('A' for Active; 'I' for Inactive)
REMARK    1  A    between atoms: C_1  and  C_2
REMARK    2  A    between atoms: C_2  and  C_3
REMARK    3  A    between atoms: C_3  and  C_4
REMARK    4  A    between atoms: C_4  and  C_5
REMARK    5  A    between atoms: C_5  and  O_6
REMARK    6  A    between atoms: O_6  and  C_7
REMARK    7  A    between atoms: C_10  and  C_13
REMARK    8  A    between atoms: C_16  and  C_30
REMARK    9  A    between atoms: N_23  and  C_24
REMARK   10  A    between atoms: C_24  and  C_25
REMARK   11  A    between atoms: C_31  and  C_38
REMARK   12  A    between atoms: C_33  and  C_37
REMARK   13  A    between atoms: C_35  and  O_36
REMARK                            x       y       z     vdW  Elec       q    Type
REMARK                         _______ _______ _______ _____ _____    ______ ____
ROOT
ATOM      1  C   UNL     1       3.823  -6.521   6.478  0.00  0.00    +0.142 C 
ATOM      2  C   UNL     1       2.976  -6.907   7.659  0.00  0.00    +0.035 A 
ATOM      3  C   UNL     1       2.121  -6.489   8.684  0.00  0.00    +0.102 A 
ATOM      4  N   UNL     1       1.768  -7.561   9.366  0.00  0.00    -0.173 NA
ATOM      5  N   UNL     1       2.315  -8.614   8.872  0.00  0.00    -0.272 N 
ATOM      6  H   UNL     1       2.197  -9.515   9.213  0.00  0.00    +0.189 HD
ATOM      7  C   UNL     1       3.088  -8.277   7.798  0.00  0.00    +0.126 A 
ATOM      8  C   UNL     1       3.978  -8.781   6.746  0.00  0.00    +0.266 C 
ATOM      9  O   UNL     1       4.281  -9.950   6.594  0.00  0.00    -0.268 OA
ATOM     10  N   UNL     1       4.412  -7.768   5.972  0.00  0.00    -0.278 N 
ENDROOT
BRANCH   3  11
ATOM     11  C   UNL     1       1.690  -5.095   8.955  0.00  0.00    +0.047 A 
ATOM     12  C   UNL     1       0.344  -4.806   9.164  0.00  0.00    -0.037 A 
ATOM     13  C   UNL     1      -0.051  -3.508   9.415  0.00  0.00    +0.007 A 
ATOM     14  C   UNL     1       0.885  -2.491   9.461  0.00  0.00    -0.047 A 
ATOM     15  C   UNL     1       2.224  -2.766   9.255  0.00  0.00    +0.049 A 
ATOM     16  C   UNL     1       2.635  -4.066   9.008  0.00  0.00    +0.127 A 
ATOM     17  C   UNL     1       0.444  -1.077   9.736  0.00  0.00    +0.044 C 
ATOM     18  C   UNL     1      -0.680  -5.911   9.114  0.00  0.00    +0.044 C 
BRANCH  16  19
ATOM     19  O   UNL     1       3.951  -4.339   8.811  0.00  0.00    -0.506 OA
ATOM     20  H   UNL     1       4.245  -4.224   7.897  0.00  0.00    +0.292 HD
ENDBRANCH  16  19
ENDBRANCH   3  11
BRANCH   1  24
ATOM     21  C   UNL     1       1.400  -4.710   3.459  0.00  0.00    +0.121 A 
ATOM     22  C   UNL     1       2.290  -3.938   4.191  0.00  0.00    +0.046 A 
ATOM     23  C   UNL     1       3.072  -4.526   5.167  0.00  0.00    +0.009 A 
ATOM     24  C   UNL     1       2.969  -5.882   5.413  0.00  0.00    -0.022 A 
ATOM     25  C   UNL     1       2.083  -6.654   4.684  0.00  0.00    +0.009 A 
ATOM     26  C   UNL     1       1.294  -6.070   3.712  0.00  0.00    +0.046 A 
BRANCH  21  27
ATOM     27  O   UNL     1       0.629  -4.134   2.499  0.00  0.00    -0.492 OA
BRANCH  27  28
ATOM     28  C   UNL     1       0.792  -2.730   2.293  0.00  0.00    +0.229 C 
BRANCH  28  29
ATOM     29  C   UNL     1      -0.152  -2.265   1.182  0.00  0.00    +0.041 C 
BRANCH  29  30
ATOM     30  C   UNL     1       0.022  -0.761   0.962  0.00  0.00    +0.003 C 
BRANCH  30  32
ATOM     31  C   UNL     1      -0.748   1.208  -0.370  0.00  0.00    +0.004 C 
ATOM     32  C   UNL     1      -0.922  -0.296  -0.149  0.00  0.00    -0.003 C 
ENDBRANCH  30  32
ENDBRANCH  29  30
ENDBRANCH  28  29
ENDBRANCH  27  28
ENDBRANCH  21  27
ENDBRANCH   1  24
BRANCH  10  33
ATOM     33  C   UNL     1       5.314  -7.888   4.825  0.00  0.00    +0.183 C 
BRANCH  33  34
ATOM     34  C   UNL     1       6.741  -7.750   5.291  0.00  0.00    +0.122 A 
ATOM     35  C   UNL     1       7.541  -8.757   5.684  0.00  0.00    +0.046 A 
ATOM     36  C   UNL     1       8.783  -8.181   6.035  0.00  0.00    +0.041 A 
ATOM     37  C   UNL     1       8.668  -6.856   5.835  0.00  0.00    +0.195 A 
ATOM     38  O   UNL     1       7.431  -6.601   5.379  0.00  0.00    -0.466 OA
ENDBRANCH  33  34
ENDBRANCH  10  33
TORSDOF 10
