REMARK  Name = ZINC08790281
REMARK  7 active torsions:
REMARK  status: ('A' for Active; 'I' for Inactive)
REMARK    1  A    between atoms: C_1  and  C_2
REMARK    2  A    between atoms: C_17  and  C_19
REMARK    3  A    between atoms: C_19  and  C_20
REMARK    4  A    between atoms: C_19  and  C_21
REMARK    5  A    between atoms: N_24  and  C_27
REMARK    6  A    between atoms: C_27  and  C_28
REMARK    7  A    between atoms: C_28  and  C_29
REMARK                            x       y       z     vdW  Elec       q    Type
REMARK                         _______ _______ _______ _____ _____    ______ ____
ROOT
ATOM      1  C   UNL     1       7.480   2.142   2.734  0.00  0.00    +0.044 C 
ATOM      2  C   UNL     1       8.413   1.169   2.061  0.00  0.00    -0.049 A 
ATOM      3  C   UNL     1       7.905   0.064   1.401  0.00  0.00    +0.008 A 
ATOM      4  C   UNL     1       8.758  -0.825   0.785  0.00  0.00    -0.026 A 
ATOM      5  C   UNL     1      10.135  -0.624   0.818  0.00  0.00    +0.054 A 
ATOM      6  C   UNL     1      10.639   0.492   1.484  0.00  0.00    +0.063 A 
ATOM      7  C   UNL     1       9.779   1.379   2.100  0.00  0.00    +0.025 A 
ATOM      8 CL   UNL     1      12.352   0.766   1.539  0.00  0.00    -0.082 Cl
ATOM      9  N   UNL     1      10.789  -1.648   0.129  0.00  0.00    -0.285 N 
ATOM     10  C   UNL     1       9.926  -2.551  -0.377  0.00  0.00    +0.211 C 
ATOM     11  O   UNL     1      10.208  -3.542  -1.017  0.00  0.00    -0.277 OA
ATOM     12  C   UNL     1       8.546  -2.091   0.006  0.00  0.00    +0.050 C 
ATOM     13  C   UNL     1       7.672  -1.855  -1.232  0.00  0.00    +0.088 C 
ATOM     14  C   UNL     1       6.832  -3.155  -1.370  0.00  0.00    +0.073 C 
ATOM     15  C   UNL     1       7.294  -4.052  -0.203  0.00  0.00    -0.055 C 
ATOM     16  C   UNL     1       5.418  -2.687  -1.111  0.00  0.00    +0.224 C 
ATOM     17  O   UNL     1       4.434  -3.395  -1.112  0.00  0.00    -0.275 OA
ATOM     18  N   UNL     1       5.422  -1.369  -0.881  0.00  0.00    -0.241 N 
ATOM     19  C   UNL     1       6.631  -0.799  -0.932  0.00  0.00    +0.225 C 
ATOM     20  O   UNL     1       6.858   0.379  -0.761  0.00  0.00    -0.275 OA
ATOM     21  H   UNL     1      11.752  -1.703   0.027  0.00  0.00    +0.155 HD
ATOM     22  N   UNL     1       7.847  -3.109   0.771  0.00  0.00    +0.394 N 
ATOM     23  H   UNL     1       7.092  -2.683   1.322  0.00  0.00    -0.083 HD
ATOM     24  H   UNL     1       8.500  -3.590   1.401  0.00  0.00    -0.083 HD
ENDROOT
BRANCH  15  25
ATOM     25  C   UNL     1       6.107  -4.825   0.377  0.00  0.00    -0.031 C 
ATOM     26  C   UNL     1       5.583  -5.813  -0.667  0.00  0.00    +0.005 C 
ATOM     27  C   UNL     1       6.557  -5.591   1.623  0.00  0.00    +0.005 C 
ENDBRANCH  15  25
BRANCH  18  28
ATOM     28  C   UNL     1       4.200  -0.610  -0.601  0.00  0.00    +0.121 C 
BRANCH  28  29
ATOM     29  C   UNL     1       3.945  -0.593   0.907  0.00  0.00    +0.054 C 
BRANCH  29  30
ATOM     30  C   UNL     1       2.688   0.188   1.195  0.00  0.00    -0.046 A 
ATOM     31  C   UNL     1       1.466  -0.458   1.229  0.00  0.00    +0.004 A 
ATOM     32  C   UNL     1       0.313   0.258   1.494  0.00  0.00    +0.000 A 
ATOM     33  C   UNL     1       0.383   1.620   1.723  0.00  0.00    +0.000 A 
ATOM     34  C   UNL     1       1.605   2.265   1.689  0.00  0.00    +0.000 A 
ATOM     35  C   UNL     1       2.757   1.549   1.424  0.00  0.00    +0.004 A 
ENDBRANCH  29  30
ENDBRANCH  28  29
ENDBRANCH  18  28
TORSDOF 4
