REMARK  Name = ZINC00706241
REMARK  7 active torsions:
REMARK  status: ('A' for Active; 'I' for Inactive)
REMARK    1  A    between atoms: C_1  and  C_2
REMARK    2  A    between atoms: C_2  and  C_37
REMARK    3  A    between atoms: C_6  and  C_25
REMARK    4  A    between atoms: C_8  and  C_23
REMARK    5  A    between atoms: C_9  and  N_22
REMARK    6  A    between atoms: N_10  and  C_11
REMARK    7  A    between atoms: C_12  and  C_20
REMARK                            x       y       z     vdW  Elec       q    Type
REMARK                         _______ _______ _______ _____ _____    ______ ____
ROOT
ATOM      1  C   UNL     1      -4.745   7.127  -4.431  0.00  0.00    +0.011 C 
ATOM      2  C   UNL     1      -3.427   6.631  -5.030  0.00  0.00    -0.023 C 
ATOM      3  C   UNL     1      -2.513   6.122  -3.914  0.00  0.00    +0.058 C 
ATOM      4  C   UNL     1      -2.196   7.251  -2.962  0.00  0.00    +0.025 C 
ATOM      5  C   UNL     1      -2.136   8.527  -3.393  0.00  0.00    +0.025 C 
ATOM      6  C   UNL     1      -1.805   9.651  -2.443  0.00  0.00    +0.097 C 
ATOM      7  C   UNL     1      -2.011   9.233  -1.017  0.00  0.00    +0.077 C 
ATOM      8  C   UNL     1      -2.087   7.921  -0.674  0.00  0.00    +0.107 C 
ATOM      9  N   UNL     1      -1.983   6.947  -1.642  0.00  0.00    -0.253 N 
ATOM     10  C   UNL     1      -2.375   8.849  -4.741  0.00  0.00    +0.162 C 
ATOM     11  O   UNL     1      -2.300  10.008  -5.099  0.00  0.00    -0.292 OA
ATOM     12  C   UNL     1      -2.721   7.787  -5.747  0.00  0.00    +0.086 C 
ATOM     13  C   UNL     1      -3.707   5.503  -6.026  0.00  0.00    +0.011 C 
ENDROOT
BRANCH   9  14
ATOM     14  C   UNL     1      -1.654   5.647  -1.279  0.00  0.00    +0.095 A 
ATOM     15  C   UNL     1      -2.498   4.632  -0.855  0.00  0.00    +0.084 A 
ATOM     16  C   UNL     1      -1.897   3.350  -0.533  0.00  0.00    -0.018 A 
ATOM     17  C   UNL     1      -0.555   3.289  -0.685  0.00  0.00    -0.004 A 
ATOM     18  S   UNL     1      -0.090   4.902  -1.247  0.00  0.00    -0.076 S 
ATOM     19  C   UNL     1       0.330   2.108  -0.431  0.00  0.00    +0.043 C 
ATOM     20  C   UNL     1      -0.461   1.079   0.390  0.00  0.00    +0.005 C 
ATOM     21  C   UNL     1      -1.837   0.883  -0.253  0.00  0.00    +0.005 C 
ATOM     22  C   UNL     1      -2.688   2.138  -0.055  0.00  0.00    +0.037 C 
BRANCH  15  23
ATOM     23  C   UNL     1      -3.910   4.839  -0.739  0.00  0.00    +0.102 C 
ATOM     24  N   UNL     1      -5.030   5.004  -0.647  0.00  0.00    -0.191 NA
ENDBRANCH  15  23
ENDBRANCH   9  14
BRANCH   6  25
ATOM     25  C   UNL     1      -0.366  10.054  -2.637  0.00  0.00    -0.031 A 
ATOM     26  C   UNL     1       0.644   9.142  -2.396  0.00  0.00    +0.008 A 
ATOM     27  C   UNL     1       1.966   9.507  -2.577  0.00  0.00    +0.050 A 
ATOM     28  C   UNL     1       2.280  10.791  -2.991  0.00  0.00    +0.166 A 
ATOM     29  C   UNL     1       1.262  11.711  -3.229  0.00  0.00    +0.167 A 
ATOM     30  C   UNL     1      -0.060  11.337  -3.050  0.00  0.00    +0.054 A 
ATOM     31  O   UNL     1       1.824  12.891  -3.622  0.00  0.00    -0.453 OA
ATOM     32  C   UNL     1       3.170  12.564  -4.015  0.00  0.00    +0.466 C 
ATOM     33  O   UNL     1       3.480  11.395  -3.235  0.00  0.00    -0.453 OA
ENDBRANCH   6  25
BRANCH   8  34
ATOM     34  N   UNL     1      -2.269   7.565   0.641  0.00  0.00    -0.345 N 
ATOM     35  H   UNL     1      -2.240   6.631   0.899  0.00  0.00    +0.144 HD
ATOM     36  H   UNL     1      -2.427   8.249   1.311  0.00  0.00    +0.144 HD
ENDBRANCH   8  34
BRANCH   7  37
ATOM     37  C   UNL     1      -2.129  10.234   0.000  0.00  0.00    +0.099 C 
ATOM     38  N   UNL     1      -2.223  11.029   0.806  0.00  0.00    -0.191 NA
ENDBRANCH   7  37
TORSDOF 5
