REMARK  Name = ZINC02217766
REMARK  6 active torsions:
REMARK  status: ('A' for Active; 'I' for Inactive)
REMARK    1  A    between atoms: C_1  and  C_2
REMARK    2  A    between atoms: C_2  and  C_3
REMARK    3  A    between atoms: C_2  and  C_4
REMARK    4  A    between atoms: C_2  and  C_5
REMARK    5  A    between atoms: C_11  and  C_25
REMARK    6  A    between atoms: C_15  and  O_21
REMARK                            x       y       z     vdW  Elec       q    Type
REMARK                         _______ _______ _______ _____ _____    ______ ____
ROOT
ATOM      1  C   UNL     1       4.353   9.575  -0.415  0.00  0.00    -0.001 C 
ATOM      2  C   UNL     1       3.161  10.038   0.431  0.00  0.00    +0.010 C 
ATOM      3  C   UNL     1       1.931   9.238   0.009  0.00  0.00    +0.056 C 
ATOM      4  C   UNL     1       2.229   7.761   0.018  0.00  0.00    +0.046 A 
ATOM      5  C   UNL     1       3.513   7.265   0.012  0.00  0.00    -0.017 A 
ATOM      6  C   UNL     1       3.726   5.882   0.003  0.00  0.00    +0.005 A 
ATOM      7  C   UNL     1       2.601   5.005   0.006  0.00  0.00    +0.040 A 
ATOM      8  C   UNL     1       2.603   3.538  -0.003  0.00  0.00    +0.070 A 
ATOM      9  C   UNL     1       1.361   2.924  -0.001  0.00  0.00    +0.080 A 
ATOM     10  C   UNL     1       1.219   1.531  -0.001  0.00  0.00    +0.138 A 
ATOM     11  C   UNL     1       2.358   0.744  -0.017  0.00  0.00    +0.116 A 
ATOM     12  C   UNL     1       3.608   1.372  -0.025  0.00  0.00    +0.253 A 
ATOM     13  O   UNL     1       4.620   0.687  -0.039  0.00  0.00    -0.268 OA
ATOM     14  N   UNL     1       3.722   2.706  -0.019  0.00  0.00    -0.321 N 
ATOM     15  H   UNL     1       4.634   3.117  -0.025  0.00  0.00    +0.169 HD
ATOM     16  S   UNL     1       0.196   4.262   0.023  0.00  0.00    -0.063 S 
ATOM     17  C   UNL     1       1.337   5.623   0.019  0.00  0.00    +0.112 A 
ATOM     18  N   UNL     1       1.193   6.928   0.026  0.00  0.00    -0.244 NA
ATOM     19  C   UNL     1       4.726   8.158   0.015  0.00  0.00    +0.041 C 
ENDROOT
BRANCH   6  20
ATOM     20  C   UNL     1       5.096   5.338  -0.007  0.00  0.00    +0.020 A 
ATOM     21  C   UNL     1       5.728   4.606  -0.979  0.00  0.00    +0.016 A 
ATOM     22  C   UNL     1       7.025   4.203  -0.764  0.00  0.00    +0.008 A 
ATOM     23  C   UNL     1       7.640   4.541   0.400  0.00  0.00    +0.046 A 
ATOM     24  S   UNL     1       6.367   5.469   1.239  0.00  0.00    -0.097 S 
ENDBRANCH   6  20
BRANCH   1  26
ATOM     25  C   UNL     1       6.735  10.030  -1.014  0.00  0.00    +0.011 C 
ATOM     26  C   UNL     1       5.540  10.512  -0.189  0.00  0.00    -0.035 C 
ATOM     27  C   UNL     1       5.161  11.930  -0.622  0.00  0.00    +0.011 C 
ATOM     28  C   UNL     1       5.913  10.514   1.295  0.00  0.00    +0.011 C 
ENDBRANCH   1  26
BRANCH  10  29
ATOM     29  O   UNL     1      -0.011   0.963   0.007  0.00  0.00    -0.505 OA
ATOM     30  H   UNL     1       0.002  -0.004   0.002  0.00  0.00    +0.292 HD
ENDBRANCH  10  29
TORSDOF 3
