REMARK  Name = ZINC05126897
REMARK  6 active torsions:
REMARK  status: ('A' for Active; 'I' for Inactive)
REMARK    1  A    between atoms: C_4  and  C_7
REMARK    2  A    between atoms: C_8  and  C_12
REMARK    3  A    between atoms: C_8  and  N_16
REMARK    4  A    between atoms: C_17  and  C_19
REMARK    5  A    between atoms: C_19  and  C_20
REMARK    6  A    between atoms: C_20  and  C_21
REMARK                            x       y       z     vdW  Elec       q    Type
REMARK                         _______ _______ _______ _____ _____    ______ ____
ROOT
ATOM      1  C   UNL     1      -0.018   1.476   0.010  0.00  0.00    +0.108 C 
ATOM      2  C   UNL     1      -0.720   3.599   0.027  0.00  0.00    +0.282 C 
ATOM      3  C   UNL     1       0.795   3.564   0.013  0.00  0.00    +0.272 C 
ATOM      4  O   UNL     1       1.555   4.510   0.011  0.00  0.00    -0.271 OA
ATOM      5  N   UNL     1       1.117   2.253   0.004  0.00  0.00    -0.268 N 
ATOM      6  H   UNL     1       2.023   1.907  -0.007  0.00  0.00    +0.156 HD
ATOM      7  N   UNL     1      -1.096   2.184   0.019  0.00  0.00    -0.337 N 
ATOM      8  H   UNL     1      -2.055   1.817   0.019  0.00  0.00    +0.164 HD
ENDROOT
BRANCH   1  12
ATOM      9  C   UNL     1       0.040  -2.773  -0.013  0.00  0.00    +0.000 A 
ATOM     10  C   UNL     1       1.230  -2.068  -0.020  0.00  0.00    +0.001 A 
ATOM     11  C   UNL     1       1.218  -0.688  -0.013  0.00  0.00    +0.011 A 
ATOM     12  C   UNL     1       0.002  -0.004   0.002  0.00  0.00    +0.013 A 
ATOM     13  C   UNL     1      -1.194  -0.721   0.015  0.00  0.00    +0.011 A 
ATOM     14  C   UNL     1      -1.169  -2.100   0.002  0.00  0.00    +0.001 A 
ENDBRANCH   1  12
BRANCH   2  15
ATOM     15  C   UNL     1      -1.229   4.290   1.294  0.00  0.00    +0.438 C 
ATOM     16  F   UNL     1      -0.758   5.607   1.327  0.00  0.00    -0.166 F 
ATOM     17  F   UNL     1      -2.628   4.296   1.292  0.00  0.00    -0.166 F 
ATOM     18  F   UNL     1      -0.767   3.601   2.420  0.00  0.00    -0.166 F 
ENDBRANCH   2  15
BRANCH   2  19
ATOM     19  N   UNL     1      -1.230   4.273  -1.169  0.00  0.00    -0.278 N 
ATOM     20  C   UNL     1      -0.893   5.555  -1.415  0.00  0.00    +0.215 C 
ATOM     21  O   UNL     1      -0.167   6.149  -0.646  0.00  0.00    -0.276 OA
ATOM     22  H   UNL     1      -1.810   3.798  -1.784  0.00  0.00    +0.152 HD
BRANCH  20  23
ATOM     23  C   UNL     1      -1.417   6.249  -2.646  0.00  0.00    +0.096 C 
BRANCH  23  24
ATOM     24  C   UNL     1      -0.888   7.684  -2.686  0.00  0.00    +0.013 C 
BRANCH  24  25
ATOM     25  C   UNL     1      -1.421   8.388  -3.936  0.00  0.00    -0.011 C 
ATOM     26  C   UNL     1      -0.852   7.712  -5.184  0.00  0.00    +0.003 C 
ATOM     27  C   UNL     1      -1.384   8.416  -6.434  0.00  0.00    +0.000 C 
ATOM     28  C   UNL     1      -0.958   9.886  -6.411  0.00  0.00    +0.000 C 
ATOM     29  C   UNL     1      -1.527  10.562  -5.162  0.00  0.00    +0.000 C 
ATOM     30  C   UNL     1      -0.995   9.858  -3.913  0.00  0.00    +0.003 C 
ENDBRANCH  24  25
ENDBRANCH  23  24
ENDBRANCH  20  23
ENDBRANCH   2  19
TORSDOF 6
