REMARK  Name = ZINC39469795
REMARK  7 active torsions:
REMARK  status: ('A' for Active; 'I' for Inactive)
REMARK    1  A    between atoms: C_1  and  C_2
REMARK    2  A    between atoms: C_2  and  C_3
REMARK    3  A    between atoms: C_2  and  S_4
REMARK    4  A    between atoms: S_4  and  C_7
REMARK    5  A    between atoms: P_16  and  S_26
REMARK    6  A    between atoms: S_26  and  O_29
REMARK    7  A    between atoms: O_29  and  C_30
REMARK                            x       y       z     vdW  Elec       q    Type
REMARK                         _______ _______ _______ _____ _____    ______ ____
ROOT
ATOM      1  C   UNL     1      -1.536  -2.381   0.152  0.00  0.00    +0.103 C 
ATOM      2  C   UNL     1      -1.984  -3.010   1.234  0.00  0.00    +0.005 C 
ATOM      3  C   UNL     1      -1.852  -4.506   1.341  0.00  0.00    +0.023 C 
ATOM      4  C   UNL     1      -2.912  -5.066   2.278  0.00  0.00    +0.031 C 
ATOM      5  C   UNL     1      -3.244  -6.525   1.938  0.00  0.00    +0.100 C 
ATOM      6  C   UNL     1      -3.683  -7.171   3.260  0.00  0.00    +0.191 C 
ATOM      7  O   UNL     1      -4.030  -8.549   3.055  0.00  0.00    -0.297 OA
ATOM      8  P   UNL     1      -2.947  -9.486   2.282  0.00  0.00    +0.458 P 
ATOM      9  O   UNL     1      -3.611 -10.685   1.722  0.00  0.00    -0.243 OA
ATOM     10  N   UNL     1      -2.358  -8.539   1.069  0.00  0.00    -0.159 NA
ATOM     11  N   UNL     1      -2.097  -7.212   1.353  0.00  0.00    -0.228 NA
ATOM     12  C   UNL     1      -1.667  -6.633   0.068  0.00  0.00    +0.111 C 
ATOM     13  C   UNL     1      -2.032  -5.141  -0.035  0.00  0.00    +0.035 C 
ATOM     14  C   UNL     1      -1.135  -4.459  -1.033  0.00  0.00    +0.000 C 
ATOM     15  C   UNL     1      -0.907  -3.153  -0.934  0.00  0.00    +0.062 C 
ATOM     16 CL   UNL     1       0.131  -2.362  -2.078  0.00  0.00    -0.082 Cl
ATOM     17  H   UNL     1      -2.194  -8.908   0.188  0.00  0.00    +0.152 HD
ENDROOT
BRANCH   1  18
ATOM     18  S   UNL     1      -1.700  -0.632   0.015  0.00  0.00    +0.000 S 
ATOM     19  O   UNL     1      -2.359  -0.234   1.209  0.00  0.00    -0.169 OA
ATOM     20  O   UNL     1      -2.308  -0.423  -1.252  0.00  0.00    -0.169 OA
BRANCH  18  22
ATOM     21  C   UNL     1      -0.019   1.526   0.010  0.00  0.00    +0.032 C 
ATOM     22  C   UNL     1       0.002  -0.004   0.002  0.00  0.00    +0.130 C 
ATOM     23  C   UNL     1       0.742  -0.511   1.242  0.00  0.00    +0.032 C 
ENDBRANCH  18  22
ENDBRANCH   1  18
BRANCH   8  24
ATOM     24  S   UNL     1      -1.390 -10.056   3.602  0.00  0.00    +0.211 S 
ATOM     25  O   UNL     1      -0.575 -10.980   2.895  0.00  0.00    -0.126 OA
ATOM     26  O   UNL     1      -0.872  -8.856   4.161  0.00  0.00    -0.126 OA
BRANCH  24  27
ATOM     27  O   UNL     1      -2.030 -10.828   4.747  0.00  0.00    -0.339 OA
BRANCH  27  28
ATOM     28  C   UNL     1      -2.409 -12.091   4.418  0.00  0.00    +0.157 A 
ATOM     29  C   UNL     1      -3.680 -12.327   3.917  0.00  0.00    +0.048 A 
ATOM     30  C   UNL     1      -4.062 -13.612   3.583  0.00  0.00    +0.004 A 
ATOM     31  C   UNL     1      -3.179 -14.662   3.749  0.00  0.00    +0.000 A 
ATOM     32  C   UNL     1      -1.911 -14.430   4.249  0.00  0.00    +0.004 A 
ATOM     33  C   UNL     1      -1.522 -13.146   4.579  0.00  0.00    +0.048 A 
ENDBRANCH  27  28
ENDBRANCH  24  27
ENDBRANCH   8  24
TORSDOF 5
