REMARK  Name = ZINC40386510
REMARK  5 active torsions:
REMARK  status: ('A' for Active; 'I' for Inactive)
REMARK    1  A    between atoms: C_4  and  N_9
REMARK    2  A    between atoms: C_5  and  C_7
REMARK    3  A    between atoms: N_12  and  C_15
REMARK    4  A    between atoms: C_15  and  C_16
REMARK    5  A    between atoms: C_30  and  C_32
REMARK                            x       y       z     vdW  Elec       q    Type
REMARK                         _______ _______ _______ _____ _____    ______ ____
ROOT
ATOM      1  C   UNL     1       6.627  -3.173   1.967  0.00  0.00    +0.034 A 
ATOM      2  C   UNL     1       6.273  -4.032   2.966  0.00  0.00    +0.091 A 
ATOM      3  C   UNL     1       7.251  -4.436   3.893  0.00  0.00    +0.253 A 
ATOM      4  O   UNL     1       6.969  -5.203   4.799  0.00  0.00    -0.268 OA
ATOM      5  N   UNL     1       8.507  -3.958   3.761  0.00  0.00    -0.295 N 
ATOM      6  H   UNL     1       9.197  -4.224   4.389  0.00  0.00    +0.172 HD
ATOM      7  C   UNL     1       8.801  -3.104   2.744  0.00  0.00    +0.198 A 
ATOM      8  N   UNL     1       7.881  -2.734   1.876  0.00  0.00    -0.223 NA
ATOM      9  N   UNL     1      10.077  -2.624   2.617  0.00  0.00    -0.298 N 
ATOM     10  C   UNL     1      11.095  -2.928   3.632  0.00  0.00    +0.127 C 
ATOM     11  C   UNL     1      12.302  -3.573   2.939  0.00  0.00    +0.127 C 
ATOM     12  N   UNL     1      12.678  -2.746   1.784  0.00  0.00    -0.298 N 
ATOM     13  C   UNL     1      11.660  -2.442   0.769  0.00  0.00    +0.127 C 
ATOM     14  C   UNL     1      10.455  -1.801   1.459  0.00  0.00    +0.127 C 
ATOM     15  C   UNL     1      13.934  -2.274   1.659  0.00  0.00    +0.219 C 
ATOM     16  O   UNL     1      14.790  -2.611   2.449  0.00  0.00    -0.275 OA
ENDROOT
BRANCH  15  17
ATOM     17  C   UNL     1      14.274  -1.327   0.537  0.00  0.00    +0.075 C 
ATOM     18  C   UNL     1      14.177  -2.064  -0.800  0.00  0.00    +0.013 C 
ATOM     19  C   UNL     1      14.522  -1.103  -1.939  0.00  0.00    +0.001 C 
ATOM     20  C   UNL     1      15.947  -0.578  -1.749  0.00  0.00    +0.000 C 
ATOM     21  C   UNL     1      16.045   0.159  -0.412  0.00  0.00    +0.001 C 
ATOM     22  C   UNL     1      15.699  -0.802   0.727  0.00  0.00    +0.013 C 
ENDBRANCH  15  17
BRANCH   1  23
ATOM     23  C   UNL     1       5.599  -2.725   0.961  0.00  0.00    -0.022 C 
BRANCH  23  27
ATOM     24  N   UNL     1       3.916   1.073   1.464  0.00  0.00    -0.332 N 
ATOM     25  C   UNL     1       4.332   0.702   0.103  0.00  0.00    +0.086 C 
ATOM     26  C   UNL     1       4.470  -0.823   0.036  0.00  0.00    -0.059 C 
ATOM     27  N   UNL     1       5.381  -1.278   1.094  0.00  0.00    +0.385 N 
ATOM     28  C   UNL     1       4.800  -0.992   2.412  0.00  0.00    -0.059 C 
ATOM     29  C   UNL     1       4.683   0.529   2.596  0.00  0.00    +0.086 C 
ATOM     30  H   UNL     1       6.264  -0.798   1.005  0.00  0.00    -0.081 HD
BRANCH  24  34
ATOM     31  C   UNL     1       0.669   3.609   2.094  0.00  0.00    +0.001 A 
ATOM     32  C   UNL     1       1.945   4.130   1.949  0.00  0.00    +0.002 A 
ATOM     33  C   UNL     1       3.022   3.293   1.740  0.00  0.00    +0.024 A 
ATOM     34  C   UNL     1       2.833   1.918   1.675  0.00  0.00    +0.047 A 
ATOM     35  C   UNL     1       1.542   1.387   1.822  0.00  0.00    +0.073 A 
ATOM     36  C   UNL     1       0.462   2.248   2.032  0.00  0.00    +0.021 A 
BRANCH  35  37
ATOM     37  C   UNL     1       1.333  -0.028   1.756  0.00  0.00    +0.101 C 
ATOM     38  N   UNL     1       1.167  -1.151   1.705  0.00  0.00    -0.191 NA
ENDBRANCH  35  37
ENDBRANCH  24  34
ENDBRANCH  23  27
ENDBRANCH   1  23
TORSDOF 5
