REMARK  Name = ZINC02296215
REMARK  10 active torsions:
REMARK  status: ('A' for Active; 'I' for Inactive)
REMARK    1  A    between atoms: C_1  and  C_2
REMARK    2  A    between atoms: C_2  and  C_4
REMARK    3  A    between atoms: C_2  and  N_49
REMARK    4  A    between atoms: C_11  and  C_12
REMARK    5  A    between atoms: C_11  and  N_49
REMARK    6  A    between atoms: C_12  and  C_13
REMARK    7  A    between atoms: C_13  and  C_15
REMARK    8  A    between atoms: C_13  and  C_23
REMARK    9  A    between atoms: C_20  and  O_21
REMARK   10  A    between atoms: O_21  and  C_22
REMARK                            x       y       z     vdW  Elec       q    Type
REMARK                         _______ _______ _______ _____ _____    ______ ____
ROOT
ATOM      1  C   UNL     1       1.955  -2.678  -1.280  0.00  0.00    -0.003 C 
ENDROOT
BRANCH   1   2
ATOM      2  C   UNL     1       1.871  -4.204  -1.351  0.00  0.00    -0.081 C 
BRANCH   2   3
ATOM      3  N   UNL     1       2.564  -4.670  -2.567  0.00  0.00    +0.383 N 
ATOM      4  H   UNL     1       2.115  -4.257  -3.393  0.00  0.00    -0.085 HD
ATOM      5  H   UNL     1       3.547  -4.376  -2.530  0.00  0.00    -0.085 HD
BRANCH   3   7
ATOM      6  C   UNL     1       3.641  -6.756  -1.850  0.00  0.00    -0.009 C 
ATOM      7  C   UNL     1       2.499  -6.140  -2.662  0.00  0.00    -0.044 C 
BRANCH   7   8
ATOM      8  C   UNL     1       2.632  -6.549  -4.106  0.00  0.00    -0.062 A 
ATOM      9  C   UNL     1       3.522  -5.888  -4.932  0.00  0.00    +0.003 A 
ATOM     10  C   UNL     1       3.649  -6.267  -6.255  0.00  0.00    +0.020 A 
ATOM     11  C   UNL     1       2.876  -7.299  -6.756  0.00  0.00    +0.041 A 
ATOM     12  C   UNL     1       1.981  -7.957  -5.931  0.00  0.00    +0.020 A 
ATOM     13  C   UNL     1       1.860  -7.581  -4.606  0.00  0.00    +0.003 A 
ATOM     14 CL   UNL     1       3.029  -7.770  -8.420  0.00  0.00    -0.084 Cl
ENDBRANCH   7   8
ENDBRANCH   3   7
ENDBRANCH   2   3
ENDBRANCH   1   2
BRANCH   1  15
ATOM     15  C   UNL     1       1.238  -2.186  -0.021  0.00  0.00    +0.087 C 
BRANCH  15  16
ATOM     16  C   UNL     1       1.214  -0.679  -0.013  0.00  0.00    +0.005 A 
ATOM     17  C   UNL     1       2.399   0.032  -0.021  0.00  0.00    +0.008 A 
ATOM     18  C   UNL     1       2.377   1.414  -0.013  0.00  0.00    +0.001 A 
ATOM     19  C   UNL     1       1.171   2.089   0.002  0.00  0.00    +0.004 A 
ATOM     20  C   UNL     1      -0.017   1.383   0.010  0.00  0.00    +0.046 A 
ATOM     21  C   UNL     1       0.002  -0.004   0.002  0.00  0.00    +0.124 A 
BRANCH  21  22
ATOM     22  O   UNL     1      -1.165  -0.701   0.010  0.00  0.00    -0.495 OA
ATOM     23  C   UNL     1      -2.374   0.060   0.026  0.00  0.00    +0.277 C 
ENDBRANCH  21  22
ENDBRANCH  15  16
BRANCH  15  24
ATOM     24  C   UNL     1       1.968  -2.683   1.200  0.00  0.00    +0.112 A 
ATOM     25  C   UNL     1       1.450  -3.468   2.161  0.00  0.00    +0.045 A 
ATOM     26  C   UNL     1       2.477  -3.690   3.107  0.00  0.00    +0.041 A 
ATOM     27  C   UNL     1       3.559  -3.020   2.671  0.00  0.00    +0.195 A 
ATOM     28  O   UNL     1       3.245  -2.412   1.516  0.00  0.00    -0.467 OA
ENDBRANCH  15  24
ENDBRANCH   1  15
TORSDOF 8
