REMARK  Name = ZINC39463350
REMARK  6 active torsions:
REMARK  status: ('A' for Active; 'I' for Inactive)
REMARK    1  A    between atoms: C_1  and  C_2
REMARK    2  A    between atoms: C_2  and  C_3
REMARK    3  A    between atoms: C_2  and  S_4
REMARK    4  A    between atoms: S_4  and  C_7
REMARK    5  A    between atoms: C_13  and  C_16
REMARK    6  A    between atoms: C_16  and  C_17
REMARK                            x       y       z     vdW  Elec       q    Type
REMARK                         _______ _______ _______ _____ _____    ______ ____
ROOT
ATOM      1  C   UNL     1      -1.021  -2.357   0.226  0.00  0.00    +0.164 A 
ATOM      2  C   UNL     1      -1.347  -3.071   1.323  0.00  0.00    +0.061 A 
ATOM      3  C   UNL     1      -1.303  -4.476   1.293  0.00  0.00    +0.025 A 
ATOM      4  C   UNL     1      -0.929  -5.114   0.150  0.00  0.00    +0.062 A 
ATOM      5  C   UNL     1      -0.592  -4.353  -0.987  0.00  0.00    +0.140 A 
ATOM      6  N   UNL     1      -0.650  -2.984  -0.928  0.00  0.00    -0.281 N 
ATOM      7  C   UNL     1      -0.282  -2.515  -2.160  0.00  0.00    +0.049 A 
ATOM      8  C   UNL     1      -0.018  -3.590  -2.934  0.00  0.00    +0.135 A 
ATOM      9  N   UNL     1      -0.202  -4.695  -2.206  0.00  0.00    -0.236 NA
ATOM     10 BR   UNL     1      -1.760  -5.474   2.833  0.00  0.00    -0.050 Br
ENDROOT
BRANCH   1  11
ATOM     11  S   UNL     1      -1.081  -0.597   0.281  0.00  0.00    +0.015 S 
ATOM     12  O   UNL     1      -1.662  -0.293   1.542  0.00  0.00    -0.168 OA
ATOM     13  O   UNL     1      -1.730  -0.218  -0.925  0.00  0.00    -0.168 OA
BRANCH  11  15
ATOM     14  C   UNL     1       0.723   1.445   0.038  0.00  0.00    +0.032 C 
ATOM     15  C   UNL     1       0.654  -0.069   0.249  0.00  0.00    +0.131 C 
ATOM     16  C   UNL     1       1.321  -0.430   1.578  0.00  0.00    +0.032 C 
ENDBRANCH  11  15
ENDBRANCH   1  11
BRANCH   7  17
ATOM     17  C   UNL     1      -0.191  -1.069  -2.576  0.00  0.00    +0.090 C 
BRANCH  17  18
ATOM     18  C   UNL     1       0.434  -0.979  -3.944  0.00  0.00    -0.042 A 
ATOM     19  C   UNL     1       1.795  -0.774  -4.071  0.00  0.00    +0.004 A 
ATOM     20  C   UNL     1       2.368  -0.691  -5.326  0.00  0.00    +0.000 A 
ATOM     21  C   UNL     1       1.580  -0.814  -6.455  0.00  0.00    +0.000 A 
ATOM     22  C   UNL     1       0.219  -1.019  -6.329  0.00  0.00    +0.000 A 
ATOM     23  C   UNL     1      -0.353  -1.107  -5.073  0.00  0.00    +0.004 A 
ENDBRANCH  17  18
ENDBRANCH   7  17
TORSDOF 4
