REMARK  Name = ZINC50481791
REMARK  5 active torsions:
REMARK  status: ('A' for Active; 'I' for Inactive)
REMARK    1  A    between atoms: C_6  and  C_7
REMARK    2  A    between atoms: C_7  and  C_9
REMARK    3  A    between atoms: C_7  and  O_11
REMARK    4  A    between atoms: O_11  and  C_12
REMARK    5  A    between atoms: C_12  and  C_13
REMARK                            x       y       z     vdW  Elec       q    Type
REMARK                         _______ _______ _______ _____ _____    ______ ____
ROOT
ATOM      1  C   UNL     1      -1.293  -0.775   0.010  0.00  0.00    +0.159 C 
ENDROOT
BRANCH   1   7
ATOM      2  C   UNL     1      -0.017   1.378   0.010  0.00  0.00    +0.007 A 
ATOM      3  C   UNL     1       1.171   2.086   0.002  0.00  0.00    +0.015 A 
ATOM      4  C   UNL     1       2.378   1.411  -0.013  0.00  0.00    +0.018 A 
ATOM      5  C   UNL     1       2.396   0.027  -0.021  0.00  0.00    +0.015 A 
ATOM      6  C   UNL     1       1.208  -0.679  -0.013  0.00  0.00    +0.007 A 
ATOM      7  C   UNL     1       0.002  -0.004   0.002  0.00  0.00    -0.018 A 
ATOM      8 BR   UNL     1       4.003   2.378  -0.024  0.00  0.00    -0.050 Br
ENDBRANCH   1   7
BRANCH   1   9
ATOM      9  C   UNL     1      -1.616  -1.244  -1.410  0.00  0.00    +0.116 C 
ATOM     10 BR   UNL     1      -3.381  -2.109  -1.428  0.00  0.00    -0.089 Br
ENDBRANCH   1   9
BRANCH   1  11
ATOM     11  O   UNL     1      -1.166  -1.910   0.869  0.00  0.00    -0.371 OA
BRANCH  11  12
ATOM     12  C   UNL     1      -2.390  -2.310   1.489  0.00  0.00    +0.166 C 
BRANCH  12  13
ATOM     13  C   UNL     1      -2.136  -3.527   2.380  0.00  0.00    +0.043 C 
ATOM     14  C   UNL     1      -3.436  -3.955   3.114  0.00  0.00    +0.036 C 
ATOM     15  C   UNL     1      -3.177  -5.470   3.312  0.00  0.00    +0.160 C 
ATOM     16  O   UNL     1      -2.485  -5.891   2.126  0.00  0.00    -0.379 OA
ATOM     17  C   UNL     1      -1.809  -4.773   1.529  0.00  0.00    +0.165 C 
ENDBRANCH  12  13
ENDBRANCH  11  12
ENDBRANCH   1  11
TORSDOF 5
