REMARK  Name = ZINC05191892
REMARK  7 active torsions:
REMARK  status: ('A' for Active; 'I' for Inactive)
REMARK    1  A    between atoms: C_1  and  C_2
REMARK    2  A    between atoms: C_2  and  O_3
REMARK    3  A    between atoms: O_3  and  C_4
REMARK    4  A    between atoms: C_7  and  N_10
REMARK    5  A    between atoms: C_12  and  N_17
REMARK    6  A    between atoms: C_22  and  C_29
REMARK    7  A    between atoms: C_25  and  C_28
REMARK                            x       y       z     vdW  Elec       q    Type
REMARK                         _______ _______ _______ _____ _____    ______ ____
ROOT
ATOM      1  N   UNL     1      -2.453   3.843   0.046  0.00  0.00    -0.270 N 
ATOM      2  C   UNL     1      -3.760   3.184  -0.055  0.00  0.00    +0.136 C 
ATOM      3  C   UNL     1      -4.758   4.302  -0.431  0.00  0.00    +0.101 C 
ATOM      4  C   UNL     1      -4.050   5.558   0.129  0.00  0.00    +0.120 C 
ATOM      5  C   UNL     1      -2.586   5.176   0.163  0.00  0.00    +0.222 C 
ATOM      6  O   UNL     1      -1.666   5.959   0.275  0.00  0.00    -0.275 OA
ENDROOT
BRANCH   3   7
ATOM      7  N   UNL     1      -4.920   4.395  -1.884  0.00  0.00    -0.294 N 
ATOM      8  C   UNL     1      -6.052   4.907  -2.405  0.00  0.00    +0.302 C 
ATOM      9  O   UNL     1      -6.899   5.380  -1.671  0.00  0.00    -0.253 OA
ATOM     10  N   UNL     1      -6.246   4.896  -3.738  0.00  0.00    -0.285 N 
ATOM     11  C   UNL     1      -7.418   5.556  -4.330  0.00  0.00    +0.112 C 
ATOM     12  C   UNL     1      -8.155   4.548  -5.217  0.00  0.00    +0.004 C 
ATOM     13  C   UNL     1      -7.179   3.964  -6.240  0.00  0.00    +0.009 C 
ATOM     14  C   UNL     1      -6.051   3.231  -5.511  0.00  0.00    +0.004 C 
ATOM     15  C   UNL     1      -5.286   4.229  -4.628  0.00  0.00    +0.112 C 
ATOM     16  C   UNL     1      -5.093   2.620  -6.536  0.00  0.00    +0.009 C 
ATOM     17  C   UNL     1      -9.300   5.252  -5.947  0.00  0.00    +0.009 C 
ATOM     18  H   UNL     1      -4.211   4.087  -2.471  0.00  0.00    +0.151 HD
ENDBRANCH   3   7
BRANCH   1  22
ATOM     19  C   UNL     1       1.203   1.839  -0.001  0.00  0.00    +0.121 A 
ATOM     20  C   UNL     1       1.173   3.226   0.003  0.00  0.00    +0.047 A 
ATOM     21  C   UNL     1      -0.038   3.890   0.024  0.00  0.00    +0.027 A 
ATOM     22  C   UNL     1      -1.224   3.170   0.030  0.00  0.00    +0.037 A 
ATOM     23  C   UNL     1      -1.193   1.782   0.027  0.00  0.00    +0.027 A 
ATOM     24  C   UNL     1       0.018   1.119   0.011  0.00  0.00    +0.047 A 
BRANCH  19  25
ATOM     25  O   UNL     1       2.396   1.186  -0.015  0.00  0.00    -0.492 OA
BRANCH  25  27
ATOM     26  C   UNL     1       3.779  -0.796  -0.035  0.00  0.00    +0.048 C 
ATOM     27  C   UNL     1       2.352  -0.243  -0.018  0.00  0.00    +0.225 C 
ENDBRANCH  25  27
ENDBRANCH  19  25
ENDBRANCH   1  22
TORSDOF 4
