REMARK  Name = ZINC59855814
REMARK  10 active torsions:
REMARK  status: ('A' for Active; 'I' for Inactive)
REMARK    1  A    between atoms: C_1  and  C_2
REMARK    2  A    between atoms: C_5  and  C_9
REMARK    3  A    between atoms: C_6  and  C_8
REMARK    4  A    between atoms: C_9  and  S_10
REMARK    5  A    between atoms: S_10  and  C_11
REMARK    6  A    between atoms: C_16  and  N_20
REMARK    7  A    between atoms: C_21  and  C_23
REMARK    8  A    between atoms: C_23  and  S_24
REMARK    9  A    between atoms: S_24  and  C_25
REMARK   10  A    between atoms: N_29  and  C_30
REMARK                            x       y       z     vdW  Elec       q    Type
REMARK                         _______ _______ _______ _____ _____    ______ ____
ROOT
ATOM      1  C   UNL     1       1.650  -6.615  -0.014  0.00  0.00    +0.136 A 
ATOM      2  N   UNL     1       0.560  -7.349  -0.023  0.00  0.00    -0.233 NA
ATOM      3  C   UNL     1       0.595  -8.700  -0.037  0.00  0.00    +0.080 A 
ATOM      4  C   UNL     1      -0.496  -9.600  -0.048  0.00  0.00    +0.031 A 
ATOM      5  C   UNL     1      -0.289 -10.954  -0.060  0.00  0.00    +0.025 A 
ATOM      6  C   UNL     1       0.996 -11.492  -0.063  0.00  0.00    +0.035 A 
ATOM      7  C   UNL     1       2.089 -10.636  -0.052  0.00  0.00    +0.040 A 
ATOM      8  C   UNL     1       1.885  -9.279  -0.040  0.00  0.00    +0.042 A 
ATOM      9  S   UNL     1       2.941  -7.851  -0.030  0.00  0.00    -0.061 S 
ENDROOT
BRANCH   6  10
ATOM     10  N   UNL     1       1.183 -12.881  -0.075  0.00  0.00    -0.285 N 
ATOM     11  C   UNL     1       2.222 -13.415  -0.748  0.00  0.00    +0.227 C 
ATOM     12  O   UNL     1       3.042 -12.691  -1.271  0.00  0.00    -0.275 OA
ATOM     13  H   UNL     1       0.565 -13.458   0.400  0.00  0.00    +0.155 HD
BRANCH  11  14
ATOM     14  C   UNL     1       2.364 -14.912  -0.850  0.00  0.00    +0.173 C 
BRANCH  14  15
ATOM     15  S   UNL     1       3.850 -15.314  -1.809  0.00  0.00    -0.075 S 
BRANCH  15  16
ATOM     16  C   UNL     1       3.876 -17.075  -1.838  0.00  0.00    +0.210 A 
ATOM     17  N   UNL     1       2.994 -17.879  -1.282  0.00  0.00    -0.102 NA
ATOM     18  N   UNL     1       3.310 -19.106  -1.492  0.00  0.00    -0.022 NA
ATOM     19  N   UNL     1       4.395 -19.178  -2.183  0.00  0.00    -0.043 NA
ATOM     20  N   UNL     1       4.803 -17.857  -2.440  0.00  0.00    -0.223 N 
ATOM     21  C   UNL     1       5.979 -17.420  -3.195  0.00  0.00    +0.177 C 
ENDBRANCH  15  16
ENDBRANCH  14  15
ENDBRANCH  11  14
ENDBRANCH   6  10
BRANCH   1  22
ATOM     22  S   UNL     1       1.800  -4.860   0.003  0.00  0.00    -0.094 S 
BRANCH  22  23
ATOM     23  C   UNL     1       0.084  -4.272   0.015  0.00  0.00    +0.111 C 
BRANCH  23  28
ATOM     24  C   UNL     1       0.023   1.506   0.072  0.00  0.00    +0.044 C 
ATOM     25  C   UNL     1       0.039  -0.001   0.057  0.00  0.00    -0.050 A 
ATOM     26  C   UNL     1       0.044  -0.680  -1.147  0.00  0.00    +0.003 A 
ATOM     27  C   UNL     1       0.059  -2.062  -1.161  0.00  0.00    +0.005 A 
ATOM     28  C   UNL     1       0.069  -2.766   0.030  0.00  0.00    -0.034 A 
ATOM     29  C   UNL     1       0.066  -2.087   1.233  0.00  0.00    -0.046 A 
ATOM     30  C   UNL     1       0.055  -0.704   1.247  0.00  0.00    +0.007 A 
ATOM     31  C   UNL     1       0.077  -2.853   2.531  0.00  0.00    +0.044 C 
ENDBRANCH  23  28
ENDBRANCH  22  23
ENDBRANCH   1  22
TORSDOF 7
