REMARK  Name = ZINC36147418
REMARK  8 active torsions:
REMARK  status: ('A' for Active; 'I' for Inactive)
REMARK    1  A    between atoms: C_1  and  C_2
REMARK    2  A    between atoms: C_5  and  C_7
REMARK    3  A    between atoms: N_9  and  C_10
REMARK    4  A    between atoms: C_10  and  C_11
REMARK    5  A    between atoms: C_11  and  C_13
REMARK    6  A    between atoms: C_11  and  C_21
REMARK    7  A    between atoms: C_16  and  O_19
REMARK    8  A    between atoms: O_19  and  C_20
REMARK                            x       y       z     vdW  Elec       q    Type
REMARK                         _______ _______ _______ _____ _____    ______ ____
ROOT
ATOM      1  C   UNL     1       3.181  -0.451   5.394  0.00  0.00    +0.068 C 
ENDROOT
BRANCH   1   2
ATOM      2  C   UNL     1       2.112  -1.250   6.094  0.00  0.00    -0.013 A 
ATOM      3  C   UNL     1       1.066  -0.758   6.777  0.00  0.00    +0.088 A 
ATOM      4  N   UNL     1       0.309  -1.784   7.274  0.00  0.00    -0.360 N 
ATOM      5  H   UNL     1      -0.498  -1.677   7.801  0.00  0.00    +0.165 HD
ATOM      6  C   UNL     1       0.863  -2.992   6.913  0.00  0.00    +0.047 A 
ATOM      7  C   UNL     1       2.013  -2.710   6.153  0.00  0.00    +0.003 A 
ATOM      8  C   UNL     1       2.784  -3.756   5.642  0.00  0.00    +0.010 A 
ATOM      9  C   UNL     1       2.415  -5.050   5.880  0.00  0.00    +0.001 A 
ATOM     10  C   UNL     1       1.279  -5.333   6.625  0.00  0.00    +0.002 A 
ATOM     11  C   UNL     1       0.509  -4.317   7.147  0.00  0.00    +0.026 A 
ENDBRANCH   1   2
BRANCH   1  12
ATOM     12  C   UNL     1       3.900   0.413   6.397  0.00  0.00    -0.038 A 
ATOM     13  C   UNL     1       3.197   1.354   7.128  0.00  0.00    +0.008 A 
ATOM     14  C   UNL     1       3.854   2.148   8.048  0.00  0.00    +0.046 A 
ATOM     15  C   UNL     1       5.220   2.001   8.239  0.00  0.00    +0.120 A 
ATOM     16  C   UNL     1       5.923   1.056   7.505  0.00  0.00    +0.046 A 
ATOM     17  C   UNL     1       5.260   0.261   6.590  0.00  0.00    +0.008 A 
BRANCH  15  18
ATOM     18  O   UNL     1       5.869   2.781   9.143  0.00  0.00    -0.495 OA
ATOM     19  C   UNL     1       7.275   2.574   9.287  0.00  0.00    +0.277 C 
ENDBRANCH  15  18
ENDBRANCH   1  12
BRANCH   1  20
ATOM     20  C   UNL     1       2.537   0.435   4.326  0.00  0.00    +0.117 C 
BRANCH  20  23
ATOM     21  C   UNL     1       1.314   0.159   2.237  0.00  0.00    +0.216 C 
ATOM     22  O   UNL     1       1.244   1.367   2.152  0.00  0.00    -0.276 OA
ATOM     23  N   UNL     1       1.940  -0.407   3.287  0.00  0.00    -0.314 N 
ATOM     24  H   UNL     1       1.996  -1.373   3.354  0.00  0.00    +0.149 HD
BRANCH  21  28
ATOM     25  C   UNL     1      -0.019   1.526   0.010  0.00  0.00    +0.008 C 
ATOM     26  C   UNL     1       0.002  -0.004   0.002  0.00  0.00    -0.002 C 
ATOM     27  C   UNL     1      -0.828  -0.728   1.065  0.00  0.00    +0.017 C 
ATOM     28  C   UNL     1       0.700  -0.708   1.168  0.00  0.00    +0.078 C 
ENDBRANCH  21  28
ENDBRANCH  20  23
ENDBRANCH   1  20
TORSDOF 6
