REMARK  Name = ZINC20834082
REMARK  5 active torsions:
REMARK  status: ('A' for Active; 'I' for Inactive)
REMARK    1  A    between atoms: C_7  and  C_11
REMARK    2  A    between atoms: C_11  and  C_12
REMARK    3  A    between atoms: N_16  and  C_20
REMARK    4  A    between atoms: C_20  and  C_21
REMARK    5  A    between atoms: N_23  and  C_24
REMARK                            x       y       z     vdW  Elec       q    Type
REMARK                         _______ _______ _______ _____ _____    ______ ____
ROOT
ATOM      1  C   UNL     1      -0.748   1.589  -1.231  0.00  0.00    +0.165 C 
ATOM      2  C   UNL     1      -0.128   1.019  -2.491  0.00  0.00    +0.244 C 
ATOM      3  O   UNL     1      -0.043  -0.150  -2.800  0.00  0.00    -0.273 OA
ATOM      4  N   UNL     1       0.306   2.081  -3.197  0.00  0.00    -0.216 N 
ATOM      5  C   UNL     1       0.050   3.232  -2.565  0.00  0.00    +0.310 C 
ATOM      6  O   UNL     1       0.347   4.325  -3.004  0.00  0.00    -0.252 OA
ATOM      7  N   UNL     1      -0.574   3.044  -1.388  0.00  0.00    -0.287 N 
ATOM      8  H   UNL     1      -0.937   3.729  -0.607  0.00  0.00    +0.151 HD
ENDROOT
BRANCH   1   9
ATOM      9  C   UNL     1      -0.003   1.089   0.009  0.00  0.00    +0.069 C 
BRANCH   9  16
ATOM     10  C   UNL     1      -3.622  -0.570   2.485  0.00  0.00    +0.001 A 
ATOM     11  C   UNL     1      -3.937   0.224   3.579  0.00  0.00    +0.002 A 
ATOM     12  C   UNL     1      -3.218   1.367   3.849  0.00  0.00    +0.026 A 
ATOM     13  C   UNL     1      -2.164   1.732   3.017  0.00  0.00    +0.047 A 
ATOM     14  C   UNL     1      -1.852   0.928   1.906  0.00  0.00    +0.003 A 
ATOM     15  C   UNL     1      -2.591  -0.230   1.655  0.00  0.00    +0.010 A 
ATOM     16  C   UNL     1      -0.712   1.571   1.249  0.00  0.00    -0.020 A 
ATOM     17  C   UNL     1      -0.421   2.674   1.957  0.00  0.00    +0.087 A 
ATOM     18  N   UNL     1      -1.279   2.787   3.017  0.00  0.00    -0.360 N 
ATOM     19  H   UNL     1      -1.338   3.555   3.802  0.00  0.00    +0.165 HD
ENDBRANCH   9  16
ENDBRANCH   1   9
BRANCH   4  20
ATOM     20  C   UNL     1       0.977   1.988  -4.496  0.00  0.00    +0.214 C 
BRANCH  20  21
ATOM     21  C   UNL     1      -0.052   2.035  -5.597  0.00  0.00    +0.235 C 
ATOM     22  O   UNL     1      -1.229   2.136  -5.323  0.00  0.00    -0.274 OA
ATOM     23  N   UNL     1       0.336   1.964  -6.886  0.00  0.00    -0.284 N 
ATOM     24  H   UNL     1       1.407   1.948  -7.137  0.00  0.00    +0.155 HD
BRANCH  23  25
ATOM     25  C   UNL     1      -0.622   1.910  -7.903  0.00  0.00    +0.034 A 
ATOM     26  C   UNL     1      -1.815   2.611  -7.774  0.00  0.00    +0.023 A 
ATOM     27  C   UNL     1      -2.759   2.556  -8.780  0.00  0.00    +0.003 A 
ATOM     28  C   UNL     1      -2.519   1.804  -9.916  0.00  0.00    +0.014 A 
ATOM     29  C   UNL     1      -1.333   1.105 -10.048  0.00  0.00    +0.015 A 
ATOM     30  C   UNL     1      -0.382   1.160  -9.047  0.00  0.00    +0.037 A 
ATOM     31  I   UNL     1      -0.974  -0.031 -11.771  0.00  0.00    -0.044 I 
ENDBRANCH  23  25
ENDBRANCH  20  21
ENDBRANCH   4  20
TORSDOF 5
