REMARK  Name = ZINC14015026
REMARK  8 active torsions:
REMARK  status: ('A' for Active; 'I' for Inactive)
REMARK    1  A    between atoms: C_1  and  C_2
REMARK    2  A    between atoms: C_2  and  C_3
REMARK    3  A    between atoms: C_3  and  C_31
REMARK    4  A    between atoms: N_6  and  N_10
REMARK    5  A    between atoms: C_11  and  C_13
REMARK    6  A    between atoms: C_13  and  S_14
REMARK    7  A    between atoms: S_14  and  C_15
REMARK    8  A    between atoms: C_22  and  C_25
REMARK                            x       y       z     vdW  Elec       q    Type
REMARK                         _______ _______ _______ _____ _____    ______ ____
ROOT
ATOM      1  N   UNL     1      -0.880   2.602  -0.089  0.00  0.00    -0.223 N 
ATOM      2  C   UNL     1      -1.375   3.053   1.081  0.00  0.00    +0.240 C 
ATOM      3  O   UNL     1      -0.782   2.833   2.116  0.00  0.00    -0.273 OA
ATOM      4  H   UNL     1      -1.354   2.778  -0.916  0.00  0.00    +0.174 HD
ENDROOT
BRANCH   1   8
ATOM      5  C   UNL     1       1.875   0.211  -0.243  0.00  0.00    +0.139 C 
ATOM      6  C   UNL     1       0.397   0.545  -0.287  0.00  0.00    +0.268 C 
ATOM      7  O   UNL     1      -0.524  -0.227  -0.447  0.00  0.00    -0.271 OA
ATOM      8  N   UNL     1       0.320   1.879  -0.109  0.00  0.00    -0.137 N 
ATOM      9  C   UNL     1       1.531   2.428   0.039  0.00  0.00    +0.327 C 
ATOM     10  O   UNL     1       1.718   3.616   0.213  0.00  0.00    -0.251 OA
ATOM     11  N   UNL     1       2.520   1.518  -0.025  0.00  0.00    -0.280 N 
ATOM     12  H   UNL     1       3.471   1.688   0.055  0.00  0.00    +0.152 HD
BRANCH   5  13
ATOM     13  C   UNL     1       2.321  -0.393  -1.549  0.00  0.00    -0.015 A 
ATOM     14  C   UNL     1       2.285  -1.764  -1.725  0.00  0.00    +0.006 A 
ATOM     15  C   UNL     1       2.690  -2.317  -2.926  0.00  0.00    +0.000 A 
ATOM     16  C   UNL     1       3.140  -1.501  -3.946  0.00  0.00    +0.000 A 
ATOM     17  C   UNL     1       3.181  -0.131  -3.768  0.00  0.00    +0.000 A 
ATOM     18  C   UNL     1       2.772   0.423  -2.570  0.00  0.00    +0.006 A 
ENDBRANCH   5  13
BRANCH   5  20
ATOM     19  C   UNL     1       1.765  -0.080   2.236  0.00  0.00    +0.007 C 
ATOM     20  C   UNL     1       2.178  -0.738   0.918  0.00  0.00    +0.037 C 
ENDBRANCH   5  20
ENDBRANCH   1   8
BRANCH   2  21
ATOM     21  C   UNL     1      -2.665   3.831   1.103  0.00  0.00    +0.173 C 
BRANCH  21  22
ATOM     22  S   UNL     1      -3.062   4.293   2.807  0.00  0.00    -0.094 S 
BRANCH  22  23
ATOM     23  C   UNL     1      -4.571   5.165   2.545  0.00  0.00    +0.127 A 
ATOM     24  C   UNL     1      -5.269   5.727   3.639  0.00  0.00    +0.018 A 
ATOM     25  C   UNL     1      -4.817   5.630   4.958  0.00  0.00    +0.011 A 
ATOM     26  C   UNL     1      -5.548   6.200   5.960  0.00  0.00    +0.001 A 
ATOM     27  C   UNL     1      -6.734   6.877   5.688  0.00  0.00    +0.001 A 
ATOM     28  C   UNL     1      -7.202   6.990   4.411  0.00  0.00    +0.011 A 
ATOM     29  C   UNL     1      -6.477   6.416   3.364  0.00  0.00    +0.012 A 
ATOM     30  C   UNL     1      -6.905   6.490   1.968  0.00  0.00    +0.101 A 
ATOM     31  N   UNL     1      -6.147   5.914   1.049  0.00  0.00    -0.148 NA
ATOM     32  N   UNL     1      -5.056   5.302   1.324  0.00  0.00    -0.142 NA
BRANCH  30  33
ATOM     33  C   UNL     1      -8.154   7.191   1.593  0.00  0.00    +0.003 A 
ATOM     34  C   UNL     1      -9.027   6.620   0.667  0.00  0.00    +0.010 A 
ATOM     35  C   UNL     1     -10.192   7.275   0.326  0.00  0.00    +0.001 A 
ATOM     36  C   UNL     1     -10.489   8.503   0.890  0.00  0.00    +0.000 A 
ATOM     37  C   UNL     1      -9.625   9.078   1.805  0.00  0.00    +0.001 A 
ATOM     38  C   UNL     1      -8.460   8.429   2.159  0.00  0.00    +0.010 A 
ENDBRANCH  30  33
ENDBRANCH  22  23
ENDBRANCH  21  22
ENDBRANCH   2  21
TORSDOF 7
