REMARK  Name = ZINC66588652
REMARK  8 active torsions:
REMARK  status: ('A' for Active; 'I' for Inactive)
REMARK    1  A    between atoms: C_1  and  C_2
REMARK    2  A    between atoms: C_6  and  C_7
REMARK    3  A    between atoms: N_9  and  N_10
REMARK    4  A    between atoms: N_10  and  S_11
REMARK    5  A    between atoms: S_11  and  C_14
REMARK    6  A    between atoms: C_16  and  C_24
REMARK    7  A    between atoms: C_17  and  C_23
REMARK    8  A    between atoms: C_19  and  N_20
REMARK                            x       y       z     vdW  Elec       q    Type
REMARK                         _______ _______ _______ _____ _____    ______ ____
ROOT
ATOM      1  S   UNL     1      -1.224  -1.160   6.013  0.00  0.00    +0.076 S 
ATOM      2  O   UNL     1      -1.068  -0.622   7.319  0.00  0.00    -0.152 OA
ATOM      3  O   UNL     1      -2.371  -0.903   5.215  0.00  0.00    -0.152 OA
ENDROOT
BRANCH   1   4
ATOM      4  C   UNL     1      -1.103  -2.911   6.172  0.00  0.00    +0.137 A 
ATOM      5  C   UNL     1      -2.077  -3.724   5.623  0.00  0.00    +0.034 A 
ATOM      6  C   UNL     1      -1.982  -5.097   5.748  0.00  0.00    -0.046 A 
ATOM      7  C   UNL     1      -0.913  -5.658   6.421  0.00  0.00    -0.045 A 
ATOM      8  C   UNL     1       0.062  -4.845   6.969  0.00  0.00    +0.038 A 
ATOM      9  C   UNL     1      -0.031  -3.472   6.841  0.00  0.00    +0.153 A 
ATOM     10  C   UNL     1      -0.810  -7.155   6.558  0.00  0.00    +0.044 C 
ATOM     11  C   UNL     1      -3.045  -5.983   5.150  0.00  0.00    +0.044 C 
BRANCH   9  12
ATOM     12  N   UNL     1       1.015  -2.602   7.423  0.00  0.00    +0.058 N 
ATOM     13  O   UNL     1       1.881  -3.080   8.118  0.00  0.00    -0.126 OA
ATOM     14  O   UNL     1       1.004  -1.413   7.204  0.00  0.00    -0.126 OA
ENDBRANCH   9  12
ENDBRANCH   1   4
BRANCH   1  15
ATOM     15  N   UNL     1       0.087  -0.657   5.134  0.00  0.00    -0.108 NA
ATOM     16  H   UNL     1       0.719  -0.031   5.521  0.00  0.00    +0.172 HD
BRANCH  15  19
ATOM     17  C   UNL     1       0.423  -0.268   2.810  0.00  0.00    +0.266 C 
ATOM     18  O   UNL     1       0.380   0.930   3.018  0.00  0.00    -0.268 OA
ATOM     19  N   UNL     1       0.282  -1.135   3.832  0.00  0.00    -0.227 N 
ATOM     20  H   UNL     1       0.316  -2.090   3.666  0.00  0.00    +0.171 HD
BRANCH  17  26
ATOM     21  C   UNL     1       0.782   1.452   0.238  0.00  0.00    +0.045 C 
ATOM     22  C   UNL     1       0.793  -0.055   0.270  0.00  0.00    -0.031 A 
ATOM     23  C   UNL     1       0.972  -0.809  -0.865  0.00  0.00    +0.011 A 
ATOM     24  C   UNL     1       0.971  -2.161  -0.765  0.00  0.00    +0.046 A 
ATOM     25  S   UNL     1       0.727  -2.453   0.872  0.00  0.00    -0.092 S 
ATOM     26  C   UNL     1       0.628  -0.768   1.447  0.00  0.00    +0.078 A 
ENDBRANCH  17  26
ENDBRANCH  15  19
ENDBRANCH   1  15
TORSDOF 5
