REMARK  Name = ZINC19926205
REMARK  9 active torsions:
REMARK  status: ('A' for Active; 'I' for Inactive)
REMARK    1  A    between atoms: C_1  and  C_2
REMARK    2  A    between atoms: C_5  and  S_8
REMARK    3  A    between atoms: S_8  and  N_11
REMARK    4  A    between atoms: N_11  and  N_12
REMARK    5  A    between atoms: C_16  and  C_17
REMARK    6  A    between atoms: C_20  and  O_25
REMARK    7  A    between atoms: C_21  and  O_23
REMARK    8  A    between atoms: O_23  and  C_24
REMARK    9  A    between atoms: O_25  and  C_26
REMARK                            x       y       z     vdW  Elec       q    Type
REMARK                         _______ _______ _______ _____ _____    ______ ____
ROOT
ATOM      1  N   UNL     1       3.662  -1.149   7.255  0.00  0.00    -0.167 N 
ATOM      2  C   UNL     1       2.884  -0.748   6.263  0.00  0.00    +0.273 C 
ATOM      3  O   UNL     1       1.852  -0.135   6.467  0.00  0.00    -0.268 OA
ATOM      4  C   UNL     1       3.329  -1.083   4.896  0.00  0.00    +0.078 C 
ATOM      5  C   UNL     1       2.744  -0.806   3.703  0.00  0.00    +0.028 C 
ATOM      6  S   UNL     1       4.848  -1.959   5.244  0.00  0.00    -0.060 S 
ATOM      7  C   UNL     1       4.804  -1.828   7.024  0.00  0.00    +0.137 C 
ATOM      8  S   UNL     1       5.934  -2.425   8.162  0.00  0.00    -0.026 S 
ENDROOT
BRANCH   5   9
ATOM      9  C   UNL     1       1.578   0.085   3.646  0.00  0.00    -0.020 A 
ATOM     10  C   UNL     1       0.522  -0.196   2.771  0.00  0.00    +0.012 A 
ATOM     11  C   UNL     1      -0.571   0.642   2.720  0.00  0.00    +0.050 A 
ATOM     12  C   UNL     1      -0.628   1.765   3.535  0.00  0.00    +0.162 A 
ATOM     13  C   UNL     1       0.419   2.051   4.409  0.00  0.00    +0.162 A 
ATOM     14  C   UNL     1       1.521   1.220   4.464  0.00  0.00    +0.057 A 
BRANCH  13  15
ATOM     15  O   UNL     1       0.359   3.152   5.205  0.00  0.00    -0.491 OA
ATOM     16  C   UNL     1       1.467   3.385   6.077  0.00  0.00    +0.277 C 
ENDBRANCH  13  15
BRANCH  12  17
ATOM     17  O   UNL     1      -1.708   2.587   3.480  0.00  0.00    -0.491 OA
ATOM     18  C   UNL     1      -2.745   2.235   2.562  0.00  0.00    +0.277 C 
ENDBRANCH  12  17
ENDBRANCH   5   9
BRANCH   1  19
ATOM     19  N   UNL     1       3.291  -0.861   8.575  0.00  0.00    -0.100 NA
ATOM     20  H   UNL     1       3.586  -0.037   8.992  0.00  0.00    +0.172 HD
BRANCH  19  21
ATOM     21  S   UNL     1       2.350  -1.929   9.422  0.00  0.00    +0.074 S 
ATOM     22  O   UNL     1       2.270  -1.433  10.751  0.00  0.00    -0.152 OA
ATOM     23  O   UNL     1       1.197  -2.171   8.628  0.00  0.00    -0.152 OA
BRANCH  21  28
ATOM     24  C   UNL     1       5.379  -7.140   9.704  0.00  0.00    +0.044 C 
ATOM     25  C   UNL     1       4.622  -5.838   9.634  0.00  0.00    -0.050 A 
ATOM     26  C   UNL     1       4.791  -4.886  10.622  0.00  0.00    +0.005 A 
ATOM     27  C   UNL     1       4.097  -3.692  10.557  0.00  0.00    +0.029 A 
ATOM     28  C   UNL     1       3.235  -3.450   9.504  0.00  0.00    +0.107 A 
ATOM     29  C   UNL     1       3.061  -4.405   8.519  0.00  0.00    +0.029 A 
ATOM     30  C   UNL     1       3.758  -5.597   8.582  0.00  0.00    +0.005 A 
ENDBRANCH  21  28
ENDBRANCH  19  21
ENDBRANCH   1  19
TORSDOF 6
