REMARK  Name = ZINC11887966
REMARK  5 active torsions:
REMARK  status: ('A' for Active; 'I' for Inactive)
REMARK    1  A    between atoms: C_6  and  C_7
REMARK    2  A    between atoms: C_7  and  C_9
REMARK    3  A    between atoms: C_9  and  C_10
REMARK    4  A    between atoms: C_10  and  C_11
REMARK    5  A    between atoms: C_10  and  C_13
REMARK                            x       y       z     vdW  Elec       q    Type
REMARK                         _______ _______ _______ _____ _____    ______ ____
ROOT
ATOM      1  C   UNL     1      -0.014   1.208   0.009  0.00  0.00    +0.165 C 
ATOM      2  O   UNL     1       0.002  -0.004   0.002  0.00  0.00    -0.292 OA
ENDROOT
BRANCH   1   8
ATOM      3  C   UNL     1      -1.321   3.325   0.032  0.00  0.00    +0.012 A 
ATOM      4  C   UNL     1      -2.528   3.991   0.035  0.00  0.00    +0.016 A 
ATOM      5  C   UNL     1      -3.716   3.279   0.037  0.00  0.00    +0.018 A 
ATOM      6  C   UNL     1      -3.701   1.894   0.030  0.00  0.00    +0.016 A 
ATOM      7  C   UNL     1      -2.502   1.214   0.021  0.00  0.00    +0.012 A 
ATOM      8  C   UNL     1      -1.298   1.927   0.019  0.00  0.00    +0.018 A 
ATOM      9 BR   UNL     1      -5.366   4.202   0.049  0.00  0.00    -0.050 Br
ENDBRANCH   1   8
BRANCH   1  10
ATOM     10  C   UNL     1       1.280   1.980   0.001  0.00  0.00    +0.113 C 
BRANCH  10  11
ATOM     11  C   UNL     1       2.457   1.001  -0.016  0.00  0.00    +0.201 C 
BRANCH  11  12
ATOM     12  C   UNL     1       2.447   0.243  -1.278  0.00  0.00    +0.081 C 
ATOM     13  N   UNL     1       2.439  -0.342  -2.252  0.00  0.00    -0.195 NA
ENDBRANCH  11  12
BRANCH  11  14
ATOM     14  C   UNL     1       3.719   1.750   0.097  0.00  0.00    +0.081 C 
ATOM     15  N   UNL     1       4.693   2.328   0.184  0.00  0.00    -0.195 NA
ENDBRANCH  11  14
ENDBRANCH  10  11
ENDBRANCH   1  10
TORSDOF 5
