REMARK  Name = ZINC01085012
REMARK  10 active torsions:
REMARK  status: ('A' for Active; 'I' for Inactive)
REMARK    1  A    between atoms: C_1  and  C_2
REMARK    2  A    between atoms: C_2  and  O_3
REMARK    3  A    between atoms: O_3  and  C_4
REMARK    4  A    between atoms: C_4  and  C_6
REMARK    5  A    between atoms: C_7  and  N_34
REMARK    6  A    between atoms: C_11  and  C_13
REMARK    7  A    between atoms: C_15  and  C_19
REMARK    8  A    between atoms: C_16  and  C_18
REMARK    9  A    between atoms: C_19  and  O_20
REMARK   10  A    between atoms: O_20  and  C_21
REMARK                            x       y       z     vdW  Elec       q    Type
REMARK                         _______ _______ _______ _____ _____    ______ ____
ROOT
ATOM      1  C   UNL     1      -1.058   3.290  -1.279  0.00  0.00    +0.106 C 
ATOM      2  C   UNL     1      -0.940   4.606  -0.965  0.00  0.00    +0.195 C 
ATOM      3  O   UNL     1      -0.639   5.002   0.281  0.00  0.00    -0.446 OA
ATOM      4  C   UNL     1      -0.875   4.178   1.320  0.00  0.00    +0.115 C 
ATOM      5  C   UNL     1      -0.983   2.848   1.150  0.00  0.00    +0.046 C 
ATOM      6  C   UNL     1      -0.857   2.237  -0.225  0.00  0.00    +0.104 C 
ATOM      7  C   UNL     1      -1.215   1.987   2.240  0.00  0.00    +0.163 C 
ATOM      8  O   UNL     1      -1.320   0.793   2.044  0.00  0.00    -0.292 OA
ATOM      9  C   UNL     1      -1.334   2.519   3.642  0.00  0.00    +0.080 C 
ATOM     10  C   UNL     1      -0.519   3.812   3.753  0.00  0.00    +0.016 C 
ATOM     11  C   UNL     1      -1.020   4.794   2.692  0.00  0.00    +0.075 C 
ENDROOT
BRANCH   6  12
ATOM     12  C   UNL     1       0.515   1.631  -0.378  0.00  0.00    +0.003 A 
ATOM     13  C   UNL     1       0.857   0.342  -0.619  0.00  0.00    +0.019 A 
ATOM     14  C   UNL     1       2.194   0.012  -0.728  0.00  0.00    -0.000 A 
ATOM     15  C   UNL     1       3.125   0.988  -0.591  0.00  0.00    -0.007 A 
ATOM     16  S   UNL     1       2.111   2.427  -0.298  0.00  0.00    -0.097 S 
ATOM     17  C   UNL     1       4.627   0.884  -0.666  0.00  0.00    +0.052 C 
BRANCH  14  18
ATOM     18  C   UNL     1       2.612  -1.411  -0.996  0.00  0.00    +0.265 C 
BRANCH  18  19
ATOM     19  O   UNL     1       1.450  -2.237  -1.098  0.00  0.00    -0.486 OA
BRANCH  19  20
ATOM     20  C   UNL     1       1.653  -3.560  -1.340  0.00  0.00    +0.139 A 
ATOM     21  C   UNL     1       2.943  -4.051  -1.477  0.00  0.00    +0.050 A 
ATOM     22  C   UNL     1       3.147  -5.395  -1.723  0.00  0.00    +0.042 A 
ATOM     23  C   UNL     1       2.065  -6.252  -1.833  0.00  0.00    +0.125 A 
ATOM     24  C   UNL     1       0.777  -5.764  -1.698  0.00  0.00    +0.062 A 
ATOM     25  C   UNL     1       0.569  -4.420  -1.446  0.00  0.00    +0.085 A 
ATOM     26 CL   UNL     1      -1.046  -3.809  -1.268  0.00  0.00    -0.080 Cl
ATOM     27  F   UNL     1       2.267  -7.566  -2.074  0.00  0.00    -0.205 F 
ENDBRANCH  19  20
ENDBRANCH  18  19
ENDBRANCH  14  18
ENDBRANCH   6  12
BRANCH   2  28
ATOM     28  N   UNL     1      -1.131   5.548  -1.940  0.00  0.00    -0.329 N 
ATOM     29  H   UNL     1      -1.846   5.439  -2.586  0.00  0.00    +0.145 HD
ATOM     30  H   UNL     1      -0.551   6.324  -1.985  0.00  0.00    +0.145 HD
ENDBRANCH   2  28
BRANCH   1  31
ATOM     31  C   UNL     1      -1.369   2.910  -2.594  0.00  0.00    +0.341 C 
ATOM     32  O   UNL     1      -1.414   3.750  -3.475  0.00  0.00    -0.245 OA
BRANCH  31  33
ATOM     33  O   UNL     1      -1.617   1.615  -2.882  0.00  0.00    -0.462 OA
BRANCH  33  35
ATOM     34  C   UNL     1      -2.177  -0.203  -4.373  0.00  0.00    +0.048 C 
ATOM     35  C   UNL     1      -1.927   1.301  -4.241  0.00  0.00    +0.229 C 
ENDBRANCH  33  35
ENDBRANCH  31  33
ENDBRANCH   1  31
TORSDOF 8
