REMARK  Name = ZINC39888218
REMARK  9 active torsions:
REMARK  status: ('A' for Active; 'I' for Inactive)
REMARK    1  A    between atoms: C_1  and  O_2
REMARK    2  A    between atoms: O_2  and  C_3
REMARK    3  A    between atoms: C_5  and  C_17
REMARK    4  A    between atoms: C_8  and  O_9
REMARK    5  A    between atoms: O_9  and  C_10
REMARK    6  A    between atoms: C_10  and  C_11
REMARK    7  A    between atoms: N_18  and  N_19
REMARK    8  A    between atoms: C_24  and  C_27
REMARK    9  A    between atoms: C_27  and  C_28
REMARK                            x       y       z     vdW  Elec       q    Type
REMARK                         _______ _______ _______ _____ _____    ______ ____
ROOT
ATOM      1  C   UNL     1       2.394   0.344  -4.216  0.00  0.00    +0.143 C 
ATOM      2  N   UNL     1       2.973  -0.240  -5.229  0.00  0.00    -0.155 NA
ENDROOT
BRANCH   2   3
ATOM      3  N   UNL     1       3.502   0.470  -6.168  0.00  0.00    -0.127 NA
ATOM      4  C   UNL     1       4.085  -0.120  -7.190  0.00  0.00    +0.183 C 
ATOM      5  N   UNL     1       4.223  -1.471  -7.429  0.00  0.00    -0.263 N 
ATOM      6  C   UNL     1       4.835  -1.943  -8.501  0.00  0.00    +0.232 C 
ATOM      7  O   UNL     1       4.952  -3.133  -8.705  0.00  0.00    -0.274 OA
ATOM      8  C   UNL     1       5.383  -0.901  -9.463  0.00  0.00    +0.144 C 
ATOM      9  S   UNL     1       4.880   0.643  -8.597  0.00  0.00    -0.075 S 
ATOM     10  H   UNL     1       3.857  -2.098  -6.786  0.00  0.00    +0.157 HD
BRANCH   8  11
ATOM     11  C   UNL     1       4.713  -1.006 -10.835  0.00  0.00    +0.060 C 
BRANCH  11  12
ATOM     12  C   UNL     1       5.368  -0.042 -11.790  0.00  0.00    -0.027 A 
ATOM     13  C   UNL     1       4.827   1.215 -11.982  0.00  0.00    +0.006 A 
ATOM     14  C   UNL     1       5.428   2.100 -12.857  0.00  0.00    +0.020 A 
ATOM     15  C   UNL     1       6.572   1.728 -13.541  0.00  0.00    +0.042 A 
ATOM     16  C   UNL     1       7.114   0.470 -13.348  0.00  0.00    +0.040 A 
ATOM     17  C   UNL     1       6.515  -0.413 -12.469  0.00  0.00    +0.046 A 
ATOM     18 CL   UNL     1       7.199  -1.990 -12.222  0.00  0.00    -0.083 Cl
ATOM     19 CL   UNL     1       7.327   2.840 -14.641  0.00  0.00    -0.083 Cl
ENDBRANCH  11  12
ENDBRANCH   8  11
ENDBRANCH   2   3
BRANCH   1  22
ATOM     20  C   UNL     1       0.606  -0.608  -1.056  0.00  0.00    +0.162 A 
ATOM     21  C   UNL     1       1.171   0.159  -2.058  0.00  0.00    +0.059 A 
ATOM     22  C   UNL     1       1.792  -0.466  -3.145  0.00  0.00    -0.002 A 
ATOM     23  C   UNL     1       1.838  -1.862  -3.212  0.00  0.00    +0.013 A 
ATOM     24  C   UNL     1       1.272  -2.618  -2.208  0.00  0.00    +0.050 A 
ATOM     25  C   UNL     1       0.661  -1.998  -1.127  0.00  0.00    +0.162 A 
BRANCH  20  27
ATOM     26  C   UNL     1      -0.017   1.425   0.010  0.00  0.00    +0.277 C 
ATOM     27  O   UNL     1       0.002  -0.004   0.002  0.00  0.00    -0.491 OA
ENDBRANCH  20  27
BRANCH  25  28
ATOM     28  O   UNL     1       0.109  -2.749  -0.138  0.00  0.00    -0.484 OA
BRANCH  28  29
ATOM     29  C   UNL     1       0.201  -4.169  -0.273  0.00  0.00    +0.264 C 
BRANCH  29  30
ATOM     30  C   UNL     1      -0.461  -4.830   0.909  0.00  0.00    -0.010 A 
ATOM     31  C   UNL     1       0.277  -5.117   2.042  0.00  0.00    +0.007 A 
ATOM     32  C   UNL     1      -0.330  -5.723   3.126  0.00  0.00    +0.000 A 
ATOM     33  C   UNL     1      -1.674  -6.042   3.077  0.00  0.00    +0.000 A 
ATOM     34  C   UNL     1      -2.412  -5.754   1.944  0.00  0.00    +0.000 A 
ATOM     35  C   UNL     1      -1.806  -5.144   0.862  0.00  0.00    +0.007 A 
ENDBRANCH  29  30
ENDBRANCH  28  29
ENDBRANCH  25  28
ENDBRANCH   1  22
TORSDOF 8
