REMARK  Name = ZINC14544253
REMARK  8 active torsions:
REMARK  status: ('A' for Active; 'I' for Inactive)
REMARK    1  A    between atoms: C_1  and  C_2
REMARK    2  A    between atoms: C_6  and  C_40
REMARK    3  A    between atoms: C_7  and  N_8
REMARK    4  A    between atoms: N_8  and  S_9
REMARK    5  A    between atoms: S_9  and  C_12
REMARK    6  A    between atoms: C_25  and  C_28
REMARK    7  A    between atoms: C_37  and  O_38
REMARK    8  A    between atoms: O_38  and  C_39
REMARK                            x       y       z     vdW  Elec       q    Type
REMARK                         _______ _______ _______ _____ _____    ______ ____
ROOT
ATOM      1  C   UNL     1       1.204   3.541   1.681  0.00  0.00    +0.109 A 
ATOM      2  C   UNL     1       1.854   3.148   2.837  0.00  0.00    +0.030 A 
ATOM      3  C   UNL     1       1.677   3.869   4.001  0.00  0.00    +0.025 A 
ATOM      4  C   UNL     1       0.848   4.984   4.008  0.00  0.00    +0.031 A 
ATOM      5  C   UNL     1       0.196   5.383   2.852  0.00  0.00    -0.018 A 
ATOM      6  C   UNL     1       0.386   4.653   1.687  0.00  0.00    +0.034 A 
ATOM      7  C   UNL     1      -0.700   6.580   2.810  0.00  0.00    +0.049 C 
ATOM      8  C   UNL     1      -2.155   6.178   2.767  0.00  0.00    -0.023 C 
ATOM      9  C   UNL     1      -2.880   7.021   3.462  0.00  0.00    -0.030 C 
ATOM     10  C   UNL     1      -2.005   8.104   4.062  0.00  0.00    +0.033 C 
ATOM     11  C   UNL     1      -0.587   7.460   4.071  0.00  0.00    +0.029 C 
ATOM     12  C   UNL     1      -0.497   6.576   5.318  0.00  0.00    +0.109 C 
ATOM     13  N   UNL     1       0.674   5.701   5.197  0.00  0.00    -0.336 N 
ATOM     14  H   UNL     1       1.313   5.622   5.923  0.00  0.00    +0.147 HD
ENDROOT
BRANCH  12  15
ATOM     15  C   UNL     1      -0.354   7.443   6.542  0.00  0.00    +0.022 A 
ATOM     16  C   UNL     1      -1.445   7.629   7.407  0.00  0.00    -0.009 A 
ATOM     17  C   UNL     1      -2.686   7.018   7.157  0.00  0.00    +0.009 A 
ATOM     18  C   UNL     1      -3.722   7.220   8.016  0.00  0.00    +0.001 A 
ATOM     19  C   UNL     1      -3.572   8.025   9.144  0.00  0.00    +0.001 A 
ATOM     20  C   UNL     1      -2.385   8.633   9.418  0.00  0.00    +0.008 A 
ATOM     21  C   UNL     1      -1.293   8.448   8.553  0.00  0.00    -0.017 A 
ATOM     22  C   UNL     1      -0.053   9.060   8.806  0.00  0.00    +0.012 A 
ATOM     23  C   UNL     1       0.985   8.861   7.949  0.00  0.00    +0.046 A 
ATOM     24  C   UNL     1       0.838   8.049   6.820  0.00  0.00    +0.126 A 
BRANCH  24  25
ATOM     25  O   UNL     1       1.894   7.864   5.985  0.00  0.00    -0.495 OA
ATOM     26  C   UNL     1       3.115   8.523   6.328  0.00  0.00    +0.277 C 
ENDBRANCH  24  25
ENDBRANCH  12  15
BRANCH   1  27
ATOM     27  S   UNL     1       1.425   2.623   0.194  0.00  0.00    +0.072 S 
ATOM     28  O   UNL     1       2.725   2.051   0.260  0.00  0.00    -0.150 OA
ATOM     29  O   UNL     1       1.019   3.471  -0.872  0.00  0.00    -0.150 OA
BRANCH  27  30
ATOM     30  N   UNL     1       0.351   1.363   0.232  0.00  0.00    -0.216 N 
ATOM     31  H   UNL     1       0.674   0.453   0.325  0.00  0.00    +0.174 HD
BRANCH  30  38
ATOM     32  C   UNL     1      -1.237   1.175   2.585  0.00  0.00    +0.046 C 
ATOM     33  C   UNL     1      -1.832   1.529   1.246  0.00  0.00    -0.028 A 
ATOM     34  C   UNL     1      -3.186   1.779   1.136  0.00  0.00    +0.005 A 
ATOM     35  C   UNL     1      -3.734   2.098  -0.092  0.00  0.00    +0.001 A 
ATOM     36  C   UNL     1      -2.928   2.174  -1.214  0.00  0.00    +0.005 A 
ATOM     37  C   UNL     1      -1.573   1.931  -1.110  0.00  0.00    -0.028 A 
ATOM     38  C   UNL     1      -1.019   1.610   0.123  0.00  0.00    +0.054 A 
ATOM     39  C   UNL     1      -0.696   2.015  -2.332  0.00  0.00    +0.046 C 
ENDBRANCH  30  38
ENDBRANCH  27  30
ENDBRANCH   1  27
TORSDOF 5
