REMARK  Name = ZINC02747403
REMARK  7 active torsions:
REMARK  status: ('A' for Active; 'I' for Inactive)
REMARK    1  A    between atoms: C_6  and  C_28
REMARK    2  A    between atoms: C_7  and  N_9
REMARK    3  A    between atoms: C_10  and  C_12
REMARK    4  A    between atoms: C_12  and  C_13
REMARK    5  A    between atoms: C_13  and  C_14
REMARK    6  A    between atoms: N_16  and  C_17
REMARK    7  A    between atoms: C_18  and  C_26
REMARK                            x       y       z     vdW  Elec       q    Type
REMARK                         _______ _______ _______ _____ _____    ______ ____
ROOT
ATOM      1  C   UNL     1      -2.651   8.627  -3.321  0.00  0.00    +0.105 C 
ENDROOT
BRANCH   1   3
ATOM      2  N   UNL     1      -1.964   6.947  -1.641  0.00  0.00    -0.279 N 
ATOM      3  C   UNL     1      -2.277   7.223  -2.922  0.00  0.00    +0.218 C 
ATOM      4  O   UNL     1      -2.258   6.341  -3.755  0.00  0.00    -0.275 OA
ATOM      5  H   UNL     1      -1.980   7.652  -0.975  0.00  0.00    +0.155 HD
BRANCH   2  12
ATOM      6  C   UNL     1      -0.735   1.583   1.264  0.00  0.00    +0.005 C 
ATOM      7  C   UNL     1      -0.013   1.086   0.008  0.00  0.00    +0.005 C 
ATOM      8  C   UNL     1      -0.761   1.597  -1.232  0.00  0.00    +0.043 C 
ATOM      9  C   UNL     1      -1.032   3.059  -1.049  0.00  0.00    -0.004 A 
ATOM     10  C   UNL     1      -0.951   3.765   0.100  0.00  0.00    -0.018 A 
ATOM     11  C   UNL     1      -1.270   5.177  -0.019  0.00  0.00    +0.084 A 
ATOM     12  C   UNL     1      -1.620   5.653  -1.274  0.00  0.00    +0.090 A 
ATOM     13  S   UNL     1      -1.523   4.240  -2.273  0.00  0.00    -0.077 S 
ATOM     14  C   UNL     1      -0.551   3.094   1.408  0.00  0.00    +0.037 C 
BRANCH  11  15
ATOM     15  C   UNL     1      -1.226   6.047   1.118  0.00  0.00    +0.102 C 
ATOM     16  N   UNL     1      -1.191   6.736   2.020  0.00  0.00    -0.191 NA
ENDBRANCH  11  15
ENDBRANCH   2  12
ENDBRANCH   1   3
BRANCH   1  17
ATOM     17  C   UNL     1      -2.958   8.668  -4.819  0.00  0.00    +0.105 C 
BRANCH  17  18
ATOM     18  C   UNL     1      -3.332  10.072  -5.217  0.00  0.00    +0.218 C 
ATOM     19  O   UNL     1      -3.351  10.954  -4.385  0.00  0.00    -0.275 OA
ATOM     20  N   UNL     1      -3.645  10.348  -6.499  0.00  0.00    -0.279 N 
ATOM     21  H   UNL     1      -3.630   9.643  -7.165  0.00  0.00    +0.155 HD
BRANCH  20  22
ATOM     22  C   UNL     1      -3.990  11.642  -6.866  0.00  0.00    +0.090 A 
ATOM     23  C   UNL     1      -4.334  12.119  -8.122  0.00  0.00    +0.084 A 
ATOM     24  C   UNL     1      -4.659  13.529  -8.239  0.00  0.00    -0.018 A 
ATOM     25  C   UNL     1      -4.578  14.236  -7.090  0.00  0.00    -0.004 A 
ATOM     26  S   UNL     1      -4.086  13.055  -5.867  0.00  0.00    -0.077 S 
ATOM     27  C   UNL     1      -4.847  15.698  -6.908  0.00  0.00    +0.043 C 
ATOM     28  C   UNL     1      -4.869  16.362  -8.293  0.00  0.00    +0.005 C 
ATOM     29  C   UNL     1      -5.752  15.528  -9.226  0.00  0.00    +0.005 C 
ATOM     30  C   UNL     1      -5.062  14.201  -9.547  0.00  0.00    +0.037 C 
BRANCH  23  31
ATOM     31  C   UNL     1      -4.371  11.251  -9.260  0.00  0.00    +0.102 C 
ATOM     32  N   UNL     1      -4.401  10.563 -10.164  0.00  0.00    -0.191 NA
ENDBRANCH  23  31
ENDBRANCH  20  22
ENDBRANCH  17  18
ENDBRANCH   1  17
TORSDOF 7
