REMARK  Name = ZINC00679855
REMARK  12 active torsions:
REMARK  status: ('A' for Active; 'I' for Inactive)
REMARK    1  A    between atoms: C_1  and  C_2
REMARK    2  A    between atoms: C_2  and  O_3
REMARK    3  A    between atoms: O_3  and  C_4
REMARK    4  A    between atoms: C_6  and  C_16
REMARK    5  A    between atoms: C_9  and  O_10
REMARK    6  A    between atoms: O_10  and  C_11
REMARK    7  A    between atoms: C_11  and  C_12
REMARK    8  A    between atoms: C_11  and  C_13
REMARK    9  A    between atoms: C_18  and  C_25
REMARK   10  A    between atoms: C_19  and  C_24
REMARK   11  A    between atoms: C_25  and  O_27
REMARK   12  A    between atoms: O_27  and  C_28
REMARK                            x       y       z     vdW  Elec       q    Type
REMARK                         _______ _______ _______ _____ _____    ______ ____
ROOT
ATOM      1  C   UNL     1      -0.681   4.937   3.566  0.00  0.00    +0.163 A 
ATOM      2  C   UNL     1      -0.649   4.132   2.439  0.00  0.00    +0.056 A 
ATOM      3  C   UNL     1      -0.130   4.620   1.255  0.00  0.00    -0.004 A 
ATOM      4  C   UNL     1       0.351   5.916   1.189  0.00  0.00    +0.041 A 
ATOM      5  C   UNL     1       0.318   6.726   2.310  0.00  0.00    +0.077 A 
ATOM      6  C   UNL     1      -0.198   6.240   3.501  0.00  0.00    +0.177 A 
ATOM      7 BR   UNL     1       0.976   8.496   2.217  0.00  0.00    -0.045 Br
ATOM      8 BR   UNL     1       1.054   6.580  -0.436  0.00  0.00    -0.049 Br
ENDROOT
BRANCH   3   9
ATOM      9  C   UNL     1      -0.092   3.741   0.031  0.00  0.00    +0.145 C 
ATOM     10  C   UNL     1      -0.233   2.302   0.485  0.00  0.00    +0.078 C 
ATOM     11  C   UNL     1      -1.265   1.585  -0.010  0.00  0.00    +0.021 C 
ATOM     12  N   UNL     1      -2.150   2.140  -0.890  0.00  0.00    -0.273 N 
ATOM     13  C   UNL     1      -2.069   3.402  -1.328  0.00  0.00    +0.304 C 
ATOM     14  O   UNL     1      -2.902   3.806  -2.116  0.00  0.00    -0.252 OA
ATOM     15  N   UNL     1      -1.098   4.243  -0.920  0.00  0.00    -0.288 N 
ATOM     16  C   UNL     1      -1.442   0.151   0.415  0.00  0.00    +0.061 C 
ATOM     17  H   UNL     1      -2.876   1.587  -1.219  0.00  0.00    +0.156 HD
ATOM     18  H   UNL     1      -1.061   5.155  -1.247  0.00  0.00    +0.151 HD
BRANCH  10  19
ATOM     19  C   UNL     1       0.685   1.729   1.397  0.00  0.00    +0.338 C 
ATOM     20  O   UNL     1       0.494   0.607   1.827  0.00  0.00    -0.245 OA
BRANCH  19  21
ATOM     21  O   UNL     1       1.771   2.427   1.789  0.00  0.00    -0.465 OA
ATOM     22  C   UNL     1       2.655   1.787   2.711  0.00  0.00    +0.280 C 
ENDBRANCH  19  21
ENDBRANCH  10  19
ENDBRANCH   3   9
BRANCH   1  23
ATOM     23  O   UNL     1      -1.187   4.455   4.733  0.00  0.00    -0.489 OA
BRANCH  23  25
ATOM     24  C   UNL     1      -2.193   2.748   6.117  0.00  0.00    +0.048 C 
ATOM     25  C   UNL     1      -1.665   3.109   4.726  0.00  0.00    +0.226 C 
ENDBRANCH  23  25
ENDBRANCH   1  23
BRANCH   6  26
ATOM     26  O   UNL     1      -0.232   7.035   4.604  0.00  0.00    -0.485 OA
BRANCH  26  27
ATOM     27  C   UNL     1      -1.405   7.827   4.798  0.00  0.00    +0.168 C 
ATOM     28  C   UNL     1      -1.636   8.040   6.295  0.00  0.00    +0.051 C 
ATOM     29  C   UNL     1      -1.226   9.182   4.112  0.00  0.00    +0.051 C 
ENDBRANCH  26  27
ENDBRANCH   6  26
TORSDOF 7
