REMARK  Name = ZINC39360429
REMARK  4 active torsions:
REMARK  status: ('A' for Active; 'I' for Inactive)
REMARK    1  A    between atoms: C_1  and  C_2
REMARK    2  A    between atoms: C_2  and  S_3
REMARK    3  A    between atoms: S_3  and  C_4
REMARK    4  A    between atoms: C_10  and  C_22
REMARK                            x       y       z     vdW  Elec       q    Type
REMARK                         _______ _______ _______ _____ _____    ______ ____
ROOT
ATOM      1  C   UNL     1       0.792  -2.345  -1.354  0.00  0.00    +0.182 C 
ATOM      2  N   UNL     1       0.198  -2.889  -0.302  0.00  0.00    -0.154 NA
ATOM      3  C   UNL     1       0.139  -4.200  -0.129  0.00  0.00    +0.250 C 
ATOM      4  O   UNL     1      -0.431  -4.644   0.849  0.00  0.00    -0.273 OA
ATOM      5  C   UNL     1       0.757  -5.152  -1.111  0.00  0.00    +0.152 C 
ATOM      6  C   UNL     1      -0.309  -6.090  -1.679  0.00  0.00    +0.073 C 
ATOM      7  C   UNL     1       0.214  -6.794  -2.910  0.00  0.00    +0.021 C 
ATOM      8  C   UNL     1       1.233  -6.301  -3.641  0.00  0.00    +0.016 C 
ATOM      9  C   UNL     1       1.716  -7.013  -4.882  0.00  0.00    +0.051 C 
ATOM     10  C   UNL     1       1.523  -8.521  -4.718  0.00  0.00    +0.014 C 
ATOM     11  C   UNL     1       0.035  -8.793  -4.470  0.00  0.00    +0.080 C 
ATOM     12  C   UNL     1      -0.412  -8.005  -3.271  0.00  0.00    +0.161 C 
ATOM     13  O   UNL     1      -1.333  -8.421  -2.596  0.00  0.00    -0.292 OA
ATOM     14  N   UNL     1       1.882  -5.139  -3.285  0.00  0.00    -0.305 N 
ATOM     15  C   UNL     1       1.362  -4.388  -2.266  0.00  0.00    +0.115 C 
ATOM     16  N   UNL     1       1.345  -3.091  -2.319  0.00  0.00    -0.213 NA
ATOM     17  H   UNL     1       2.692  -4.861  -3.740  0.00  0.00    +0.153 HD
ENDROOT
BRANCH   6  18
ATOM     18  C   UNL     1      -1.532  -5.291  -2.048  0.00  0.00    -0.036 A 
ATOM     19  C   UNL     1      -1.441  -4.283  -2.990  0.00  0.00    +0.004 A 
ATOM     20  C   UNL     1      -2.562  -3.549  -3.329  0.00  0.00    +0.003 A 
ATOM     21  C   UNL     1      -3.775  -3.821  -2.726  0.00  0.00    +0.038 A 
ATOM     22  C   UNL     1      -3.868  -4.830  -1.782  0.00  0.00    +0.124 A 
ATOM     23  C   UNL     1      -2.745  -5.569  -1.448  0.00  0.00    +0.042 A 
ATOM     24  F   UNL     1      -5.053  -5.096  -1.192  0.00  0.00    -0.205 F 
ENDBRANCH   6  18
BRANCH   1  25
ATOM     25  S   UNL     1       0.851  -0.589  -1.490  0.00  0.00    -0.089 S 
BRANCH  25  27
ATOM     26  C   UNL     1      -0.019   1.526   0.010  0.00  0.00    +0.016 C 
ATOM     27  C   UNL     1       0.002  -0.004   0.002  0.00  0.00    +0.074 C 
ENDBRANCH  25  27
ENDBRANCH   1  25
TORSDOF 3
