REMARK  Name = ZINC38704626
REMARK  9 active torsions:
REMARK  status: ('A' for Active; 'I' for Inactive)
REMARK    1  A    between atoms: C_1  and  C_2
REMARK    2  A    between atoms: C_2  and  C_3
REMARK    3  A    between atoms: C_3  and  C_4
REMARK    4  A    between atoms: C_4  and  N_5
REMARK    5  A    between atoms: C_6  and  C_25
REMARK    6  A    between atoms: C_9  and  C_16
REMARK    7  A    between atoms: C_17  and  C_24
REMARK    8  A    between atoms: C_19  and  C_23
REMARK    9  A    between atoms: C_21  and  O_22
REMARK                            x       y       z     vdW  Elec       q    Type
REMARK                         _______ _______ _______ _____ _____    ______ ____
ROOT
ATOM      1  N   UNL     1       1.396  -2.549  -2.545  0.00  0.00    -0.285 N 
ATOM      2  C   UNL     1       0.819  -2.775  -3.876  0.00  0.00    +0.141 C 
ATOM      3  C   UNL     1       1.952  -3.248  -4.746  0.00  0.00    +0.035 A 
ATOM      4  C   UNL     1       2.369  -3.671  -6.012  0.00  0.00    +0.102 A 
ATOM      5  N   UNL     1       3.660  -3.930  -5.936  0.00  0.00    -0.173 NA
ATOM      6  N   UNL     1       4.099  -3.712  -4.747  0.00  0.00    -0.272 N 
ATOM      7  H   UNL     1       5.018  -3.835  -4.462  0.00  0.00    +0.189 HD
ATOM      8  C   UNL     1       3.079  -3.281  -3.947  0.00  0.00    +0.126 A 
ATOM      9  C   UNL     1       2.708  -2.841  -2.598  0.00  0.00    +0.265 C 
ATOM     10  O   UNL     1       3.477  -2.754  -1.659  0.00  0.00    -0.268 OA
ENDROOT
BRANCH   4  11
ATOM     11  C   UNL     1       1.516  -3.805  -7.219  0.00  0.00    +0.047 A 
ATOM     12  C   UNL     1       1.548  -4.977  -7.971  0.00  0.00    -0.037 A 
ATOM     13  C   UNL     1       0.752  -5.097  -9.092  0.00  0.00    +0.007 A 
ATOM     14  C   UNL     1      -0.077  -4.057  -9.473  0.00  0.00    -0.047 A 
ATOM     15  C   UNL     1      -0.116  -2.890  -8.734  0.00  0.00    +0.049 A 
ATOM     16  C   UNL     1       0.674  -2.758  -7.603  0.00  0.00    +0.127 A 
ATOM     17  C   UNL     1      -0.941  -4.197 -10.700  0.00  0.00    +0.044 C 
ATOM     18  C   UNL     1       2.450  -6.112  -7.561  0.00  0.00    +0.044 C 
BRANCH  16  19
ATOM     19  O   UNL     1       0.633  -1.613  -6.872  0.00  0.00    -0.506 OA
ATOM     20  H   UNL     1       1.214  -0.915  -7.204  0.00  0.00    +0.292 HD
ENDBRANCH  16  19
ENDBRANCH   4  11
BRANCH   2  21
ATOM     21  C   UNL     1      -0.256  -3.828  -3.804  0.00  0.00    -0.022 A 
ATOM     22  C   UNL     1      -0.036  -4.993  -3.093  0.00  0.00    +0.006 A 
ATOM     23  C   UNL     1      -1.022  -5.959  -3.027  0.00  0.00    +0.000 A 
ATOM     24  C   UNL     1      -2.229  -5.761  -3.672  0.00  0.00    +0.000 A 
ATOM     25  C   UNL     1      -2.449  -4.596  -4.383  0.00  0.00    +0.000 A 
ATOM     26  C   UNL     1      -1.464  -3.627  -4.445  0.00  0.00    +0.006 A 
ENDBRANCH   2  21
BRANCH   1  27
ATOM     27  C   UNL     1       0.668  -2.081  -1.363  0.00  0.00    +0.109 C 
BRANCH  27  28
ATOM     28  C   UNL     1       0.704  -0.552  -1.314  0.00  0.00    +0.019 C 
BRANCH  28  30
ATOM     29  C   UNL     1      -0.020   1.466  -0.032  0.00  0.00    +0.004 C 
ATOM     30  C   UNL     1      -0.056  -0.063  -0.080  0.00  0.00    -0.002 C 
ENDBRANCH  28  30
ENDBRANCH  27  28
ENDBRANCH   1  27
TORSDOF 6
