REMARK  Name = ZINC36611890
REMARK  9 active torsions:
REMARK  status: ('A' for Active; 'I' for Inactive)
REMARK    1  A    between atoms: C_1  and  O_2
REMARK    2  A    between atoms: O_2  and  C_3
REMARK    3  A    between atoms: C_7  and  C_14
REMARK    4  A    between atoms: C_8  and  O_9
REMARK    5  A    between atoms: O_9  and  C_10
REMARK    6  A    between atoms: C_10  and  C_11
REMARK    7  A    between atoms: C_16  and  C_28
REMARK    8  A    between atoms: C_17  and  C_22
REMARK    9  A    between atoms: C_28  and  C_30
REMARK                            x       y       z     vdW  Elec       q    Type
REMARK                         _______ _______ _______ _____ _____    ______ ____
ROOT
ATOM      1  C   UNL     1       1.442  -3.031  -2.518  0.00  0.00    +0.144 C 
ATOM      2  C   UNL     1       0.379  -4.067  -2.825  0.00  0.00    +0.046 C 
ATOM      3  C   UNL     1       0.750  -5.156  -3.564  0.00  0.00    +0.051 C 
ATOM      4  N   UNL     1       2.043  -5.297  -4.006  0.00  0.00    -0.268 N 
ATOM      5  C   UNL     1       3.011  -4.406  -3.757  0.00  0.00    +0.305 C 
ATOM      6  O   UNL     1       4.127  -4.617  -4.191  0.00  0.00    -0.252 OA
ATOM      7  N   UNL     1       2.793  -3.285  -3.043  0.00  0.00    -0.288 N 
ATOM      8  H   UNL     1       2.267  -6.083  -4.527  0.00  0.00    +0.156 HD
ATOM      9  H   UNL     1       3.514  -2.657  -2.879  0.00  0.00    +0.151 HD
ENDROOT
BRANCH   1  14
ATOM     10  C   UNL     1       0.995   0.695  -3.012  0.00  0.00    +0.163 A 
ATOM     11  C   UNL     1       0.104   0.724  -4.073  0.00  0.00    +0.069 A 
ATOM     12  C   UNL     1      -0.350  -0.460  -4.627  0.00  0.00    +0.045 A 
ATOM     13  C   UNL     1       0.083  -1.673  -4.123  0.00  0.00    +0.029 A 
ATOM     14  C   UNL     1       0.972  -1.708  -3.064  0.00  0.00    +0.024 A 
ATOM     15  C   UNL     1       1.435  -0.526  -2.510  0.00  0.00    +0.168 A 
ATOM     16 CL   UNL     1      -1.466  -0.422  -5.955  0.00  0.00    -0.083 Cl
BRANCH  10  18
ATOM     17  C   UNL     1       0.949   3.073  -3.034  0.00  0.00    +0.277 C 
ATOM     18  O   UNL     1       1.443   1.858  -2.467  0.00  0.00    -0.491 OA
ENDBRANCH  10  18
BRANCH  15  19
ATOM     19  O   UNL     1       2.314  -0.558  -1.472  0.00  0.00    -0.477 OA
BRANCH  19  20
ATOM     20  C   UNL     1       1.762  -0.612  -0.155  0.00  0.00    +0.354 C 
BRANCH  20  21
ATOM     21  C   UNL     1       2.872  -0.522   0.860  0.00  0.00    +0.393 C 
ATOM     22  O   UNL     1       4.035  -0.515   0.492  0.00  0.00    -0.243 OA
ATOM     23  O   UNL     1       2.608  -0.456   2.048  0.00  0.00    -0.243 OA
ENDBRANCH  20  21
ENDBRANCH  19  20
ENDBRANCH  15  19
ENDBRANCH   1  14
BRANCH   3  24
ATOM     24  C   UNL     1      -0.249  -6.193  -3.889  0.00  0.00    -0.003 A 
ATOM     25  C   UNL     1      -0.381  -6.654  -5.201  0.00  0.00    +0.010 A 
ATOM     26  C   UNL     1      -1.317  -7.623  -5.497  0.00  0.00    +0.001 A 
ATOM     27  C   UNL     1      -2.124  -8.139  -4.498  0.00  0.00    +0.000 A 
ATOM     28  C   UNL     1      -1.998  -7.687  -3.196  0.00  0.00    +0.001 A 
ATOM     29  C   UNL     1      -1.064  -6.722  -2.884  0.00  0.00    +0.010 A 
ENDBRANCH   3  24
BRANCH   2  30
ATOM     30  C   UNL     1      -0.944  -3.913  -2.365  0.00  0.00    +0.193 C 
ATOM     31  O   UNL     1      -1.853  -3.764  -3.163  0.00  0.00    -0.287 OA
BRANCH  30  32
ATOM     32  C   UNL     1      -1.230  -3.931  -0.913  0.00  0.00    +0.022 A 
ATOM     33  C   UNL     1      -0.211  -4.210  -0.002  0.00  0.00    +0.012 A 
ATOM     34  C   UNL     1      -0.484  -4.225   1.350  0.00  0.00    +0.001 A 
ATOM     35  C   UNL     1      -1.765  -3.964   1.804  0.00  0.00    +0.000 A 
ATOM     36  C   UNL     1      -2.780  -3.688   0.905  0.00  0.00    +0.001 A 
ATOM     37  C   UNL     1      -2.519  -3.664  -0.449  0.00  0.00    +0.012 A 
ENDBRANCH  30  32
ENDBRANCH   2  30
TORSDOF 8
