REMARK  Name = ZINC02372997
REMARK  8 active torsions:
REMARK  status: ('A' for Active; 'I' for Inactive)
REMARK    1  A    between atoms: C_1  and  O_2
REMARK    2  A    between atoms: O_2  and  C_3
REMARK    3  A    between atoms: C_6  and  C_9
REMARK    4  A    between atoms: C_20  and  C_22
REMARK    5  A    between atoms: C_26  and  O_28
REMARK    6  A    between atoms: O_28  and  C_29
REMARK    7  A    between atoms: C_34  and  S_36
REMARK    8  A    between atoms: S_36  and  C_37
REMARK                            x       y       z     vdW  Elec       q    Type
REMARK                         _______ _______ _______ _____ _____    ______ ____
ROOT
ATOM      1  C   UNL     1      -4.981  -2.629   0.035  0.00  0.00    +0.159 C 
ATOM      2  C   UNL     1      -5.329  -3.000  -1.390  0.00  0.00    +0.025 C 
ATOM      3  C   UNL     1      -5.537  -4.302  -1.674  0.00  0.00    +0.058 C 
ATOM      4  C   UNL     1      -5.868  -4.651  -3.079  0.00  0.00    +0.040 A 
ATOM      5  C   UNL     1      -6.405  -5.887  -3.412  0.00  0.00    +0.013 A 
ATOM      6  C   UNL     1      -6.700  -6.170  -4.732  0.00  0.00    +0.001 A 
ATOM      7  C   UNL     1      -6.460  -5.228  -5.717  0.00  0.00    +0.004 A 
ATOM      8  C   UNL     1      -5.923  -3.995  -5.394  0.00  0.00    +0.046 A 
ATOM      9  C   UNL     1      -5.623  -3.698  -4.076  0.00  0.00    +0.131 A 
ATOM     10  O   UNL     1      -5.089  -2.499  -3.731  0.00  0.00    -0.479 OA
ATOM     11  C   UNL     1      -5.449  -1.955  -2.460  0.00  0.00    +0.234 C 
ATOM     12  N   UNL     1      -5.449  -5.260  -0.719  0.00  0.00    -0.326 N 
ATOM     13  C   UNL     1      -5.153  -5.025   0.541  0.00  0.00    +0.216 C 
ATOM     14  N   UNL     1      -4.905  -3.745   0.987  0.00  0.00    -0.209 N 
ATOM     15  N   UNL     1      -4.620  -3.840   2.351  0.00  0.00    -0.239 N 
ATOM     16  C   UNL     1      -4.708  -5.170   2.671  0.00  0.00    +0.174 C 
ATOM     17  N   UNL     1      -5.026  -5.848   1.598  0.00  0.00    -0.192 NA
ATOM     18  H   UNL     1      -5.615  -6.178  -0.982  0.00  0.00    +0.169 HD
ATOM     19  H   UNL     1      -4.402  -3.111   2.952  0.00  0.00    +0.172 HD
ENDROOT
BRANCH   1  23
ATOM     20  C   UNL     1      -1.200  -0.637   0.010  0.00  0.00    +0.120 A 
ATOM     21  C   UNL     1      -2.375   0.101   0.019  0.00  0.00    +0.046 A 
ATOM     22  C   UNL     1      -3.596  -0.545   0.027  0.00  0.00    +0.009 A 
ATOM     23  C   UNL     1      -3.648  -1.927   0.026  0.00  0.00    -0.021 A 
ATOM     24  C   UNL     1      -2.479  -2.665   0.017  0.00  0.00    +0.009 A 
ATOM     25  C   UNL     1      -1.255  -2.024   0.003  0.00  0.00    +0.046 A 
BRANCH  20  27
ATOM     26  C   UNL     1      -0.017   1.425   0.010  0.00  0.00    +0.277 C 
ATOM     27  O   UNL     1       0.002  -0.004   0.002  0.00  0.00    -0.495 OA
ENDBRANCH  20  27
ENDBRANCH   1  23
BRANCH  11  28
ATOM     28  C   UNL     1      -6.871  -1.459  -2.514  0.00  0.00    +0.000 A 
ATOM     29  C   UNL     1      -7.837  -2.202  -3.169  0.00  0.00    +0.008 A 
ATOM     30  C   UNL     1      -9.143  -1.750  -3.220  0.00  0.00    +0.004 A 
ATOM     31  C   UNL     1      -9.485  -0.554  -2.619  0.00  0.00    +0.045 A 
ATOM     32  C   UNL     1      -8.518   0.193  -1.962  0.00  0.00    +0.120 A 
ATOM     33  C   UNL     1      -7.210  -0.266  -1.906  0.00  0.00    +0.053 A 
BRANCH  32  34
ATOM     34  O   UNL     1      -8.853   1.369  -1.369  0.00  0.00    -0.495 OA
ATOM     35  C   UNL     1     -10.219   1.776  -1.462  0.00  0.00    +0.277 C 
ENDBRANCH  32  34
ENDBRANCH  11  28
BRANCH  16  36
ATOM     36  S   UNL     1      -4.444  -5.856   4.272  0.00  0.00    -0.092 S 
ATOM     37  C   UNL     1      -4.705  -7.635   4.036  0.00  0.00    +0.093 C 
ENDBRANCH  16  36
TORSDOF 5
