REMARK  Name = ZINC06142010
REMARK  8 active torsions:
REMARK  status: ('A' for Active; 'I' for Inactive)
REMARK    1  A    between atoms: C_1  and  C_2
REMARK    2  A    between atoms: C_2  and  N_3
REMARK    3  A    between atoms: C_14  and  C_16
REMARK    4  A    between atoms: N_17  and  N_18
REMARK    5  A    between atoms: C_19  and  C_21
REMARK    6  A    between atoms: C_26  and  N_27
REMARK    7  A    between atoms: N_27  and  S_28
REMARK    8  A    between atoms: S_28  and  C_31
REMARK                            x       y       z     vdW  Elec       q    Type
REMARK                         _______ _______ _______ _____ _____    ______ ____
ROOT
ATOM      1  N   UNL     1      -0.600  11.114   0.357  0.00  0.00    -0.203 N 
ATOM      2  C   UNL     1      -0.106  12.364   0.263  0.00  0.00    +0.265 C 
ATOM      3  O   UNL     1       1.088  12.536   0.103  0.00  0.00    -0.268 OA
ATOM      4  H   UNL     1      -1.552  10.977   0.484  0.00  0.00    +0.178 HD
ENDROOT
BRANCH   2   5
ATOM      5  C   UNL     1      -1.012  13.523   0.355  0.00  0.00    +0.061 A 
ATOM      6  C   UNL     1      -2.384  13.331   0.533  0.00  0.00    +0.015 A 
ATOM      7  C   UNL     1      -3.225  14.419   0.623  0.00  0.00    +0.001 A 
ATOM      8  C   UNL     1      -2.718  15.705   0.527  0.00  0.00    +0.002 A 
ATOM      9  C   UNL     1      -1.366  15.912   0.346  0.00  0.00    +0.025 A 
ATOM     10  C   UNL     1      -0.501  14.827   0.259  0.00  0.00    +0.060 A 
BRANCH  10  11
ATOM     11  N   UNL     1       0.860  15.033   0.077  0.00  0.00    -0.215 N 
ATOM     12  H   UNL     1       1.374  14.419  -0.471  0.00  0.00    +0.174 HD
BRANCH  11  13
ATOM     13  S   UNL     1       1.606  16.326   0.794  0.00  0.00    +0.079 S 
ATOM     14  O   UNL     1       2.996  16.186   0.537  0.00  0.00    -0.149 OA
ATOM     15  O   UNL     1       0.872  17.481   0.411  0.00  0.00    -0.149 OA
BRANCH  13  16
ATOM     16  C   UNL     1       1.395  16.149   2.534  0.00  0.00    +0.146 A 
ATOM     17  C   UNL     1       2.191  15.516   3.431  0.00  0.00    +0.036 A 
ATOM     18  C   UNL     1       1.823  15.505   4.763  0.00  0.00    +0.010 A 
ATOM     19  C   UNL     1       0.677  16.127   5.134  0.00  0.00    +0.047 A 
ATOM     20  S   UNL     1       0.082  16.763   3.576  0.00  0.00    -0.077 S 
ENDBRANCH  13  16
ENDBRANCH  11  13
ENDBRANCH  10  11
ENDBRANCH   2   5
BRANCH   1  22
ATOM     21  C   UNL     1      -0.216   8.807   0.359  0.00  0.00    +0.138 C 
ATOM     22  N   UNL     1       0.260  10.012   0.270  0.00  0.00    -0.187 NA
BRANCH  21  34
ATOM     23  N   UNL     1       3.044   4.245   0.039  0.00  0.00    -0.340 N 
ATOM     24  C   UNL     1       2.115   3.230   0.184  0.00  0.00    +0.050 A 
ATOM     25  C   UNL     1       2.238   1.844   0.200  0.00  0.00    +0.026 A 
ATOM     26  C   UNL     1       1.121   1.054   0.364  0.00  0.00    +0.002 A 
ATOM     27  C   UNL     1      -0.133   1.627   0.508  0.00  0.00    +0.001 A 
ATOM     28  C   UNL     1      -0.274   2.998   0.501  0.00  0.00    +0.010 A 
ATOM     29  C   UNL     1       0.847   3.809   0.336  0.00  0.00    +0.008 A 
ATOM     30  C   UNL     1       1.044   5.269   0.277  0.00  0.00    +0.008 A 
ATOM     31  C   UNL     1       2.421   5.478   0.092  0.00  0.00    +0.050 A 
ATOM     32  C   UNL     1       2.912   6.778  -0.003  0.00  0.00    +0.027 A 
ATOM     33  C   UNL     1       2.064   7.844   0.084  0.00  0.00    +0.011 A 
ATOM     34  C   UNL     1       0.690   7.648   0.268  0.00  0.00    -0.005 A 
ATOM     35  C   UNL     1       0.180   6.354   0.364  0.00  0.00    +0.020 A 
BRANCH  23  37
ATOM     36  C   UNL     1       4.798   3.939  -1.637  0.00  0.00    +0.027 C 
ATOM     37  C   UNL     1       4.483   4.042  -0.143  0.00  0.00    +0.119 C 
ENDBRANCH  23  37
ENDBRANCH  21  34
ENDBRANCH   1  22
TORSDOF 7
