REMARK  Name = ZINC56268555
REMARK  9 active torsions:
REMARK  status: ('A' for Active; 'I' for Inactive)
REMARK    1  A    between atoms: C_1  and  C_2
REMARK    2  A    between atoms: C_2  and  C_3
REMARK    3  A    between atoms: C_2  and  C_4
REMARK    4  A    between atoms: C_2  and  N_19
REMARK    5  A    between atoms: C_4  and  N_5
REMARK    6  A    between atoms: C_6  and  C_8
REMARK    7  A    between atoms: C_8  and  O_9
REMARK    8  A    between atoms: O_9  and  C_10
REMARK    9  A    between atoms: C_14  and  C_16
REMARK                            x       y       z     vdW  Elec       q    Type
REMARK                         _______ _______ _______ _____ _____    ______ ____
ROOT
ATOM      1  N   UNL     1      -1.928  -1.502   0.115  0.00  0.00    -0.314 N 
ATOM      2  C   UNL     1      -3.235  -1.826   0.182  0.00  0.00    +0.251 C 
ATOM      3  O   UNL     1      -4.075  -0.952   0.213  0.00  0.00    -0.272 OA
ATOM      4  H   UNL     1      -1.256  -2.201   0.090  0.00  0.00    +0.149 HD
ENDROOT
BRANCH   1   5
ATOM      5  C   UNL     1      -1.523  -0.094   0.078  0.00  0.00    +0.092 C 
BRANCH   5   7
ATOM      6  C   UNL     1       0.425   1.466  -0.036  0.00  0.00    -0.008 C 
ATOM      7  C   UNL     1       0.002  -0.004   0.002  0.00  0.00    -0.055 C 
ATOM      8  C   UNL     1       0.615  -0.679   1.231  0.00  0.00    -0.008 C 
BRANCH   7   9
ATOM      9  N   UNL     1       0.473  -0.681  -1.214  0.00  0.00    +0.387 N 
ATOM     10  C   UNL     1       1.927  -0.503  -1.345  0.00  0.00    -0.073 C 
ATOM     11  C   UNL     1       2.439  -1.456  -2.426  0.00  0.00    +0.017 C 
ATOM     12  C   UNL     1       1.615  -1.297  -3.678  0.00  0.00    -0.048 A 
ATOM     13  C   UNL     1       2.113  -1.800  -4.870  0.00  0.00    +0.004 A 
ATOM     14  C   UNL     1       1.385  -1.676  -6.036  0.00  0.00    +0.000 A 
ATOM     15  C   UNL     1       0.153  -1.047  -6.014  0.00  0.00    +0.000 A 
ATOM     16  C   UNL     1      -0.342  -0.545  -4.828  0.00  0.00    +0.002 A 
ATOM     17  C   UNL     1       0.389  -0.667  -3.656  0.00  0.00    -0.061 A 
ATOM     18  C   UNL     1      -0.186  -0.097  -2.386  0.00  0.00    -0.042 C 
ATOM     19  H   UNL     1       0.255  -1.664  -1.159  0.00  0.00    -0.080 HD
ENDBRANCH   7   9
ENDBRANCH   5   7
ENDBRANCH   1   5
BRANCH   2  20
ATOM     20  C   UNL     1      -3.651  -3.274   0.220  0.00  0.00    +0.324 C 
BRANCH  20  21
ATOM     21  O   UNL     1      -5.075  -3.358   0.291  0.00  0.00    -0.483 OA
BRANCH  21  22
ATOM     22  C   UNL     1      -5.619  -4.603   0.332  0.00  0.00    +0.122 A 
ATOM     23  C   UNL     1      -4.795  -5.721   0.311  0.00  0.00    +0.046 A 
ATOM     24  C   UNL     1      -5.341  -6.990   0.353  0.00  0.00    +0.004 A 
ATOM     25  C   UNL     1      -6.710  -7.154   0.416  0.00  0.00    +0.013 A 
ATOM     26  C   UNL     1      -7.546  -6.037   0.438  0.00  0.00    +0.040 A 
ATOM     27  C   UNL     1      -6.993  -4.757   0.402  0.00  0.00    +0.058 A 
BRANCH  26  28
ATOM     28  C   UNL     1      -9.013  -6.210   0.505  0.00  0.00    +0.242 C 
ATOM     29  O   UNL     1      -9.740  -5.235   0.524  0.00  0.00    -0.270 OA
ATOM     30  N   UNL     1      -9.545  -7.447   0.544  0.00  0.00    -0.325 N 
ATOM     31  H   UNL     1      -8.966  -8.225   0.529  0.00  0.00    +0.145 HD
ATOM     32  H   UNL     1     -10.508  -7.560   0.588  0.00  0.00    +0.145 HD
ENDBRANCH  26  28
ENDBRANCH  21  22
ENDBRANCH  20  21
ENDBRANCH   2  20
TORSDOF 7
