REMARK  Name = ZINC41510690
REMARK  9 active torsions:
REMARK  status: ('A' for Active; 'I' for Inactive)
REMARK    1  A    between atoms: C_1  and  C_2
REMARK    2  A    between atoms: C_2  and  N_3
REMARK    3  A    between atoms: N_3  and  C_4
REMARK    4  A    between atoms: N_3  and  C_6
REMARK    5  A    between atoms: C_4  and  C_5
REMARK    6  A    between atoms: C_6  and  C_7
REMARK    7  A    between atoms: C_8  and  O_30
REMARK    8  A    between atoms: C_10  and  C_29
REMARK    9  A    between atoms: C_15  and  C_16
REMARK                            x       y       z     vdW  Elec       q    Type
REMARK                         _______ _______ _______ _____ _____    ______ ____
ROOT
ATOM      1  C   UNL     1       2.435  -3.501   0.059  0.00  0.00    +0.020 A 
ATOM      2  C   UNL     1       1.915  -4.032  -1.110  0.00  0.00    +0.122 A 
ATOM      3  C   UNL     1       2.682  -4.074  -2.271  0.00  0.00    +0.050 A 
ATOM      4  C   UNL     1       3.959  -3.589  -2.268  0.00  0.00    -0.033 A 
ATOM      5  C   UNL     1       4.496  -3.051  -1.098  0.00  0.00    +0.071 A 
ATOM      6  C   UNL     1       3.730  -2.999   0.078  0.00  0.00    +0.145 A 
ATOM      7  O   UNL     1       4.455  -2.435   1.069  0.00  0.00    -0.451 OA
ATOM      8  C   UNL     1       5.693  -2.082   0.649  0.00  0.00    +0.176 C 
ATOM      9  C   UNL     1       6.658  -1.495   1.401  0.00  0.00    +0.061 C 
ATOM     10  C   UNL     1       5.806  -2.461  -0.767  0.00  0.00    +0.232 C 
ATOM     11  O   UNL     1       6.764  -2.310  -1.506  0.00  0.00    -0.283 OA
ATOM     12  C   UNL     1       4.788  -3.636  -3.526  0.00  0.00    +0.045 C 
ENDROOT
BRANCH   9  13
ATOM     13  C   UNL     1       6.460  -1.323   2.845  0.00  0.00    +0.022 A 
ATOM     14  C   UNL     1       5.462  -2.046   3.510  0.00  0.00    +0.031 A 
ATOM     15  C   UNL     1       5.282  -1.877   4.866  0.00  0.00    +0.042 A 
ATOM     16  C   UNL     1       6.082  -0.993   5.573  0.00  0.00    +0.029 A 
ATOM     17  C   UNL     1       7.071  -0.272   4.929  0.00  0.00    +0.022 A 
ATOM     18  C   UNL     1       7.274  -0.436   3.570  0.00  0.00    +0.136 A 
ATOM     19  O   UNL     1       8.252   0.253   2.928  0.00  0.00    -0.465 OA
ATOM     20  C   UNL     1       8.800   1.385   3.610  0.00  0.00    +0.395 C 
ATOM     21  O   UNL     1       9.101   1.005   4.958  0.00  0.00    -0.339 OA
ATOM     22  C   UNL     1       7.927   0.687   5.718  0.00  0.00    +0.202 C 
ATOM     23 CL   UNL     1       4.046  -2.774   5.691  0.00  0.00    -0.084 Cl
ENDBRANCH   9  13
BRANCH   2  24
ATOM     24  O   UNL     1       0.647  -4.516  -1.124  0.00  0.00    -0.506 OA
ATOM     25  H   UNL     1      -0.023  -3.858  -1.356  0.00  0.00    +0.292 HD
ENDBRANCH   2  24
BRANCH   1  26
ATOM     26  C   UNL     1       1.593  -3.462   1.308  0.00  0.00    -0.036 C 
BRANCH  26  27
ATOM     27  N   UNL     1       0.841  -2.200   1.353  0.00  0.00    +0.382 N 
ATOM     28  H   UNL     1       1.481  -1.424   1.275  0.00  0.00    -0.081 HD
BRANCH  27  30
ATOM     29  C   UNL     1      -0.835  -0.811   0.233  0.00  0.00    -0.017 C 
ATOM     30  C   UNL     1      -0.115  -2.161   0.239  0.00  0.00    -0.082 C 
ENDBRANCH  27  30
BRANCH  27  31
ATOM     31  C   UNL     1       0.114  -2.109   2.626  0.00  0.00    -0.082 C 
ATOM     32  C   UNL     1       1.114  -2.012   3.779  0.00  0.00    -0.017 C 
ENDBRANCH  27  31
ENDBRANCH  26  27
ENDBRANCH   1  26
TORSDOF 6
