REMARK  Name = ZINC58382385
REMARK  8 active torsions:
REMARK  status: ('A' for Active; 'I' for Inactive)
REMARK    1  A    between atoms: C_1  and  C_2
REMARK    2  A    between atoms: C_2  and  C_28
REMARK    3  A    between atoms: C_7  and  C_11
REMARK    4  A    between atoms: C_11  and  S_12
REMARK    5  A    between atoms: S_12  and  N_15
REMARK    6  A    between atoms: N_15  and  C_16
REMARK    7  A    between atoms: C_16  and  C_17
REMARK    8  A    between atoms: C_17  and  N_18
REMARK                            x       y       z     vdW  Elec       q    Type
REMARK                         _______ _______ _______ _____ _____    ______ ____
ROOT
ATOM      1  S   UNL     1       2.915  -1.015   2.867  0.00  0.00    +0.030 S 
ATOM      2  O   UNL     1       2.360  -0.403   4.024  0.00  0.00    -0.158 OA
ATOM      3  O   UNL     1       2.928  -2.429   2.732  0.00  0.00    -0.158 OA
ENDROOT
BRANCH   1   4
ATOM      4  N   UNL     1       4.512  -0.577   2.882  0.00  0.00    -0.193 NA
ATOM      5  H   UNL     1       5.201  -1.254   2.791  0.00  0.00    +0.148 HD
BRANCH   4   6
ATOM      6  C   UNL     1       4.884   0.832   3.034  0.00  0.00    +0.124 C 
BRANCH   6   7
ATOM      7  C   UNL     1       6.369   0.932   3.389  0.00  0.00    +0.122 C 
BRANCH   7   8
ATOM      8  N   UNL     1       6.741   2.341   3.540  0.00  0.00    -0.328 N 
ATOM      9  C   UNL     1       7.215   3.115   2.385  0.00  0.00    +0.105 C 
ATOM     10  C   UNL     1       8.441   3.922   2.834  0.00  0.00    +0.024 C 
ATOM     11  C   UNL     1       8.012   4.910   3.918  0.00  0.00    +0.038 C 
ATOM     12  C   UNL     1       7.249   4.201   5.005  0.00  0.00    -0.026 A 
ATOM     13  C   UNL     1       6.645   2.972   4.785  0.00  0.00    +0.033 A 
ATOM     14  C   UNL     1       5.939   2.348   5.807  0.00  0.00    +0.023 A 
ATOM     15  C   UNL     1       5.835   2.953   7.044  0.00  0.00    +0.002 A 
ATOM     16  C   UNL     1       6.434   4.179   7.264  0.00  0.00    +0.000 A 
ATOM     17  C   UNL     1       7.147   4.799   6.250  0.00  0.00    +0.005 A 
ENDBRANCH   7   8
ENDBRANCH   6   7
ENDBRANCH   4   6
ENDBRANCH   1   4
BRANCH   1  18
ATOM     18  C   UNL     1       2.236  -0.250   1.369  0.00  0.00    +0.200 C 
BRANCH  18  24
ATOM     19  C   UNL     1      -0.019   1.526   0.010  0.00  0.00    +0.012 C 
ATOM     20  C   UNL     1       0.002  -0.004   0.002  0.00  0.00    -0.018 C 
ATOM     21  C   UNL     1      -1.400  -0.616   0.356  0.00  0.00    +0.003 C 
ATOM     22  C   UNL     1      -1.598  -0.063   1.801  0.00  0.00    +0.005 C 
ATOM     23  C   UNL     1      -0.174  -0.040   2.404  0.00  0.00    +0.017 C 
ATOM     24  C   UNL     1       0.749  -0.591   1.251  0.00  0.00    +0.055 C 
ATOM     25  C   UNL     1       0.397  -2.080   1.125  0.00  0.00    +0.142 C 
ATOM     26  O   UNL     1       1.089  -3.024   1.423  0.00  0.00    -0.297 OA
ATOM     27  C   UNL     1      -1.009  -2.114   0.545  0.00  0.00    +0.079 C 
ATOM     28  C   UNL     1       0.557  -0.556  -1.312  0.00  0.00    +0.012 C 
ENDBRANCH  18  24
ENDBRANCH   1  18
TORSDOF 6
