REMARK  Name = ZINC07612791
REMARK  6 active torsions:
REMARK  status: ('A' for Active; 'I' for Inactive)
REMARK    1  A    between atoms: C_4  and  C_7
REMARK    2  A    between atoms: C_7  and  C_8
REMARK    3  A    between atoms: C_13  and  C_14
REMARK    4  A    between atoms: C_13  and  N_52
REMARK    5  A    between atoms: C_14  and  C_16
REMARK    6  A    between atoms: C_16  and  C_26
REMARK                            x       y       z     vdW  Elec       q    Type
REMARK                         _______ _______ _______ _____ _____    ______ ____
ROOT
ATOM      1  C   UNL     1      -1.009   3.469  -0.940  0.00  0.00    +0.160 C 
ATOM      2  O   UNL     1      -0.544   4.036   0.029  0.00  0.00    -0.293 OA
ENDROOT
BRANCH   1   3
ATOM      3  C   UNL     1      -1.737   4.196  -1.897  0.00  0.00    +0.128 C 
ATOM      4  C   UNL     1      -1.928   5.579  -1.734  0.00  0.00    +0.113 C 
ATOM      5  N   UNL     1      -1.464   6.320  -0.694  0.00  0.00    -0.300 N 
ATOM      6  C   UNL     1      -1.853   7.640  -0.891  0.00  0.00    +0.054 A 
ATOM      7  C   UNL     1      -1.659   8.805  -0.162  0.00  0.00    +0.025 A 
ATOM      8  C   UNL     1      -2.183   9.997  -0.617  0.00  0.00    +0.002 A 
ATOM      9  C   UNL     1      -2.903  10.038  -1.800  0.00  0.00    +0.002 A 
ATOM     10  C   UNL     1      -3.103   8.885  -2.533  0.00  0.00    +0.025 A 
ATOM     11  C   UNL     1      -2.579   7.681  -2.084  0.00  0.00    +0.054 A 
ATOM     12  N   UNL     1      -2.611   6.385  -2.588  0.00  0.00    -0.300 N 
ATOM     13  H   UNL     1      -0.949   5.986   0.056  0.00  0.00    +0.153 HD
ATOM     14  H   UNL     1      -3.046   6.105  -3.408  0.00  0.00    +0.153 HD
BRANCH   3  15
ATOM     15  C   UNL     1      -2.285   3.527  -3.039  0.00  0.00    +0.106 C 
ATOM     16  N   UNL     1      -2.719   2.997  -3.945  0.00  0.00    -0.191 NA
ENDBRANCH   3  15
ENDBRANCH   1   3
BRANCH   1  17
ATOM     17  C   UNL     1      -0.804   1.986  -1.115  0.00  0.00    +0.003 C 
BRANCH  17  23
ATOM     18  C   UNL     1       2.133   0.035   1.302  0.00  0.00    -0.010 C 
ATOM     19  C   UNL     1       0.704  -0.513   1.263  0.00  0.00    -0.015 C 
ATOM     20  C   UNL     1       0.002  -0.004   0.002  0.00  0.00    -0.078 C 
ATOM     21  C   UNL     1       1.344   2.014   0.000  0.00  0.00    -0.078 C 
ATOM     22  C   UNL     1       2.086   1.565   1.261  0.00  0.00    -0.015 C 
ATOM     23  N   UNL     1      -0.032   1.474   0.035  0.00  0.00    +0.385 N 
ATOM     24  H   UNL     1      -0.487   1.777   0.904  0.00  0.00    -0.081 HD
BRANCH  18  25
ATOM     25  C   UNL     1       2.821  -0.422   2.591  0.00  0.00    +0.038 C 
BRANCH  25  29
ATOM     26  C   UNL     1       6.910   0.813   2.538  0.00  0.00    +0.000 A 
ATOM     27  C   UNL     1       5.944   1.644   3.074  0.00  0.00    +0.000 A 
ATOM     28  C   UNL     1       4.620   1.244   3.091  0.00  0.00    +0.003 A 
ATOM     29  C   UNL     1       4.263   0.014   2.572  0.00  0.00    -0.047 A 
ATOM     30  C   UNL     1       5.230  -0.819   2.040  0.00  0.00    +0.003 A 
ATOM     31  C   UNL     1       6.553  -0.417   2.019  0.00  0.00    +0.000 A 
ENDBRANCH  25  29
ENDBRANCH  18  25
ENDBRANCH  17  23
ENDBRANCH   1  17
TORSDOF 6
