REMARK  Name = ZINC40529651
REMARK  12 active torsions:
REMARK  status: ('A' for Active; 'I' for Inactive)
REMARK    1  A    between atoms: C_1  and  C_2
REMARK    2  A    between atoms: C_2  and  C_3
REMARK    3  A    between atoms: C_3  and  C_4
REMARK    4  A    between atoms: C_4  and  C_5
REMARK    5  A    between atoms: C_5  and  O_6
REMARK    6  A    between atoms: O_6  and  C_7
REMARK    7  A    between atoms: C_10  and  C_13
REMARK    8  A    between atoms: C_13  and  O_15
REMARK    9  A    between atoms: O_15  and  C_16
REMARK   10  A    between atoms: C_23  and  N_37
REMARK   11  A    between atoms: C_24  and  C_35
REMARK   12  A    between atoms: C_25  and  C_27
REMARK                            x       y       z     vdW  Elec       q    Type
REMARK                         _______ _______ _______ _____ _____    ______ ____
ROOT
ATOM      1  C   UNL     1      -9.101  -8.480   0.015  0.00  0.00    +0.135 A 
ATOM      2  C   UNL     1     -10.188  -7.619  -0.053  0.00  0.00    +0.047 A 
ATOM      3  C   UNL     1     -11.471  -8.129  -0.078  0.00  0.00    +0.012 A 
ATOM      4  C   UNL     1     -11.679  -9.496  -0.036  0.00  0.00    +0.008 A 
ATOM      5  C   UNL     1     -10.597 -10.360   0.032  0.00  0.00    +0.138 A 
ATOM      6  C   UNL     1      -9.306  -9.849   0.053  0.00  0.00    +0.093 A 
ATOM      7  O   UNL     1     -10.781 -11.703   0.074  0.00  0.00    -0.441 OA
ATOM      8  C   UNL     1     -11.948 -12.233  -0.330  0.00  0.00    +0.199 C 
ATOM      9  C   UNL     1     -13.078 -11.493  -0.417  0.00  0.00    +0.098 C 
ATOM     10  C   UNL     1     -13.086 -10.032  -0.065  0.00  0.00    +0.101 C 
ENDROOT
BRANCH  10  11
ATOM     11  C   UNL     1     -13.717  -9.850   1.291  0.00  0.00    +0.002 A 
ATOM     12  C   UNL     1     -13.149 -10.443   2.405  0.00  0.00    +0.046 A 
ATOM     13  C   UNL     1     -13.730 -10.274   3.649  0.00  0.00    +0.020 A 
ATOM     14  C   UNL     1     -14.877  -9.514   3.781  0.00  0.00    +0.003 A 
ATOM     15  C   UNL     1     -15.444  -8.921   2.669  0.00  0.00    +0.020 A 
ATOM     16  C   UNL     1     -14.862  -9.084   1.424  0.00  0.00    +0.046 A 
ATOM     17 CL   UNL     1     -15.571  -8.333   0.029  0.00  0.00    -0.083 Cl
ATOM     18 CL   UNL     1     -11.710 -11.398   2.240  0.00  0.00    -0.083 Cl
ENDBRANCH  10  11
BRANCH   8  19
ATOM     19  N   UNL     1     -11.995 -13.563  -0.663  0.00  0.00    -0.328 N 
ATOM     20  H   UNL     1     -11.193 -14.107  -0.605  0.00  0.00    +0.145 HD
ATOM     21  H   UNL     1     -12.830 -13.961  -0.956  0.00  0.00    +0.145 HD
ENDBRANCH   8  19
BRANCH   9  22
ATOM     22  C   UNL     1     -14.292 -12.116  -0.855  0.00  0.00    +0.101 C 
ATOM     23  N   UNL     1     -15.254 -12.609  -1.202  0.00  0.00    -0.191 NA
ENDBRANCH   9  22
BRANCH   1  24
ATOM     24  O   UNL     1      -7.837  -7.980   0.040  0.00  0.00    -0.422 OA
BRANCH  24  25
ATOM     25  C   UNL     1      -7.113  -8.034  -1.095  0.00  0.00    +0.344 C 
ATOM     26  O   UNL     1      -7.560  -8.598  -2.074  0.00  0.00    -0.245 OA
BRANCH  25  30
ATOM     27  C   UNL     1      -3.273  -6.230  -1.252  0.00  0.00    +0.121 A 
ATOM     28  C   UNL     1      -3.782  -6.876  -2.373  0.00  0.00    +0.046 A 
ATOM     29  C   UNL     1      -5.027  -7.463  -2.326  0.00  0.00    +0.018 A 
ATOM     30  C   UNL     1      -5.779  -7.408  -1.149  0.00  0.00    +0.060 A 
ATOM     31  C   UNL     1      -5.264  -6.757  -0.025  0.00  0.00    +0.018 A 
ATOM     32  C   UNL     1      -4.016  -6.178  -0.078  0.00  0.00    +0.046 A 
BRANCH  27  33
ATOM     33  O   UNL     1      -2.046  -5.654  -1.302  0.00  0.00    -0.492 OA
BRANCH  33  34
ATOM     34  C   UNL     1      -1.337  -5.744  -2.539  0.00  0.00    +0.229 C 
BRANCH  34  35
ATOM     35  C   UNL     1       0.016  -5.042  -2.404  0.00  0.00    +0.041 C 
BRANCH  35  36
ATOM     36  C   UNL     1       0.776  -5.139  -3.729  0.00  0.00    +0.003 C 
BRANCH  36  38
ATOM     37  C   UNL     1       2.888  -4.534  -4.918  0.00  0.00    +0.004 C 
ATOM     38  C   UNL     1       2.128  -4.437  -3.594  0.00  0.00    -0.003 C 
ENDBRANCH  36  38
ENDBRANCH  35  36
ENDBRANCH  34  35
ENDBRANCH  33  34
ENDBRANCH  27  33
ENDBRANCH  25  30
ENDBRANCH  24  25
ENDBRANCH   1  24
TORSDOF 11
