REMARK  Name = ZINC63103291
REMARK  10 active torsions:
REMARK  status: ('A' for Active; 'I' for Inactive)
REMARK    1  A    between atoms: C_1  and  O_2
REMARK    2  A    between atoms: O_2  and  C_3
REMARK    3  A    between atoms: C_6  and  C_10
REMARK    4  A    between atoms: C_7  and  O_9
REMARK    5  A    between atoms: N_12  and  C_13
REMARK    6  A    between atoms: C_13  and  C_14
REMARK    7  A    between atoms: C_14  and  C_15
REMARK    8  A    between atoms: C_14  and  O_26
REMARK    9  A    between atoms: C_15  and  O_16
REMARK   10  A    between atoms: O_16  and  C_17
REMARK                            x       y       z     vdW  Elec       q    Type
REMARK                         _______ _______ _______ _____ _____    ______ ____
ROOT
ATOM      1  C   UNL     1      -7.400  -2.559   0.055  0.00  0.00    +0.139 C 
ENDROOT
BRANCH   1   4
ATOM      2  C   UNL     1      -4.964  -2.604   0.036  0.00  0.00    +0.248 C 
ATOM      3  O   UNL     1      -5.015  -3.819   0.035  0.00  0.00    -0.270 OA
ATOM      4  N   UNL     1      -6.101  -1.881   0.045  0.00  0.00    -0.309 N 
ATOM      5  H   UNL     1      -6.060  -0.912   0.046  0.00  0.00    +0.149 HD
BRANCH   2   9
ATOM      6  C   UNL     1      -1.199  -0.637   0.010  0.00  0.00    +0.124 A 
ATOM      7  C   UNL     1      -2.374   0.108   0.020  0.00  0.00    +0.046 A 
ATOM      8  C   UNL     1      -3.595  -0.525   0.028  0.00  0.00    +0.020 A 
ATOM      9  C   UNL     1      -3.658  -1.922   0.027  0.00  0.00    +0.078 A 
ATOM     10  C   UNL     1      -2.472  -2.671   0.017  0.00  0.00    +0.132 A 
ATOM     11  C   UNL     1      -1.249  -2.022   0.003  0.00  0.00    +0.091 A 
BRANCH   6  13
ATOM     12  C   UNL     1      -0.017   1.425   0.010  0.00  0.00    +0.277 C 
ATOM     13  O   UNL     1       0.002  -0.004   0.002  0.00  0.00    -0.495 OA
ENDBRANCH   6  13
BRANCH  10  14
ATOM     14  O   UNL     1      -2.523  -4.027   0.016  0.00  0.00    -0.506 OA
ATOM     15  H   UNL     1      -2.545  -4.419  -0.868  0.00  0.00    +0.292 HD
ENDBRANCH  10  14
ENDBRANCH   2   9
ENDBRANCH   1   4
BRANCH   1  16
ATOM     16  C   UNL     1      -8.520  -1.516   0.065  0.00  0.00    +0.169 C 
BRANCH  16  17
ATOM     17  O   UNL     1      -8.400  -0.700   1.232  0.00  0.00    -0.387 OA
ATOM     18  H   UNL     1      -8.460  -1.191   2.062  0.00  0.00    +0.210 HD
ENDBRANCH  16  17
BRANCH  16  19
ATOM     19  C   UNL     1      -9.876  -2.225   0.074  0.00  0.00    +0.261 C 
BRANCH  19  20
ATOM     20  O   UNL     1     -10.920  -1.255  -0.034  0.00  0.00    -0.489 OA
BRANCH  20  21
ATOM     21  C   UNL     1     -12.197  -1.722  -0.040  0.00  0.00    +0.124 A 
ATOM     22  C   UNL     1     -12.438  -3.084   0.062  0.00  0.00    +0.049 A 
ATOM     23  C   UNL     1     -13.736  -3.561   0.056  0.00  0.00    +0.053 A 
ATOM     24  C   UNL     1     -14.799  -2.679  -0.052  0.00  0.00    +0.166 A 
ATOM     25  C   UNL     1     -14.559  -1.311  -0.155  0.00  0.00    +0.170 A 
ATOM     26  C   UNL     1     -13.258  -0.835  -0.143  0.00  0.00    +0.095 A 
ATOM     27  O   UNL     1     -15.758  -0.664  -0.248  0.00  0.00    -0.452 OA
ATOM     28  C   UNL     1     -16.714  -1.677  -0.613  0.00  0.00    +0.466 C 
ATOM     29  O   UNL     1     -16.148  -2.889  -0.082  0.00  0.00    -0.453 OA
ENDBRANCH  20  21
ENDBRANCH  19  20
ENDBRANCH  16  19
ENDBRANCH   1  16
TORSDOF 9
