REMARK  Name = ZINC63409331
REMARK  10 active torsions:
REMARK  status: ('A' for Active; 'I' for Inactive)
REMARK    1  A    between atoms: C_1  and  C_2
REMARK    2  A    between atoms: C_2  and  N_3
REMARK    3  A    between atoms: N_3  and  C_4
REMARK    4  A    between atoms: N_3  and  C_6
REMARK    5  A    between atoms: C_4  and  C_5
REMARK    6  A    between atoms: C_9  and  C_12
REMARK    7  A    between atoms: N_13  and  N_14
REMARK    8  A    between atoms: C_15  and  C_17
REMARK    9  A    between atoms: C_19  and  C_30
REMARK   10  A    between atoms: C_22  and  N_27
REMARK                            x       y       z     vdW  Elec       q    Type
REMARK                         _______ _______ _______ _____ _____    ______ ____
ROOT
ATOM      1  C   UNL     1      -2.545  -2.900 -10.503  0.00  0.00    +0.199 C 
ATOM      2  C   UNL     1      -2.783  -1.663 -11.341  0.00  0.00    -0.000 C 
ATOM      3  C   UNL     1      -2.173  -1.913 -12.559  0.00  0.00    +0.006 A 
ATOM      4  C   UNL     1      -2.051  -1.146 -13.743  0.00  0.00    +0.043 A 
ATOM      5  C   UNL     1      -1.382  -1.654 -14.806  0.00  0.00    +0.127 A 
ATOM      6  C   UNL     1      -0.802  -2.927 -14.769  0.00  0.00    +0.035 A 
ATOM      7  C   UNL     1      -0.879  -3.717 -13.673  0.00  0.00    +0.028 A 
ATOM      8  C   UNL     1      -1.563  -3.256 -12.516  0.00  0.00    +0.044 A 
ATOM      9  N   UNL     1      -1.775  -3.820 -11.346  0.00  0.00    -0.370 N 
ATOM     10  H   UNL     1      -1.470  -4.702 -11.082  0.00  0.00    +0.161 HD
ENDROOT
BRANCH   2  11
ATOM     11  C   UNL     1      -3.508  -0.454 -10.947  0.00  0.00    -0.019 A 
ATOM     12  C   UNL     1      -3.240   0.768 -11.581  0.00  0.00    +0.008 A 
ATOM     13  C   UNL     1      -3.928   1.900 -11.204  0.00  0.00    +0.001 A 
ATOM     14  C   UNL     1      -4.881   1.835 -10.201  0.00  0.00    +0.000 A 
ATOM     15  C   UNL     1      -5.152   0.633  -9.569  0.00  0.00    +0.001 A 
ATOM     16  C   UNL     1      -4.479  -0.511  -9.936  0.00  0.00    +0.008 A 
ENDBRANCH   2  11
BRANCH   1  18
ATOM     17  N   UNL     1      -2.401  -2.180  -8.141  0.00  0.00    -0.205 N 
ATOM     18  C   UNL     1      -1.758  -2.546  -9.268  0.00  0.00    +0.259 C 
ATOM     19  O   UNL     1      -0.546  -2.591  -9.287  0.00  0.00    -0.271 OA
ATOM     20  H   UNL     1      -3.366  -2.084  -8.143  0.00  0.00    +0.177 HD
BRANCH  17  22
ATOM     21  C   UNL     1      -2.294  -1.584  -5.883  0.00  0.00    +0.138 C 
ATOM     22  N   UNL     1      -1.675  -1.937  -6.968  0.00  0.00    -0.188 NA
BRANCH  21  26
ATOM     23  C   UNL     1      -0.094  -0.848  -2.327  0.00  0.00    +0.030 A 
ATOM     24  C   UNL     1      -1.478  -0.711  -2.327  0.00  0.00    +0.024 A 
ATOM     25  C   UNL     1      -2.196  -0.948  -3.479  0.00  0.00    +0.011 A 
ATOM     26  C   UNL     1      -1.531  -1.328  -4.648  0.00  0.00    -0.005 A 
ATOM     27  C   UNL     1      -0.140  -1.466  -4.644  0.00  0.00    +0.011 A 
ATOM     28  C   UNL     1       0.571  -1.221  -3.490  0.00  0.00    +0.024 A 
BRANCH  23  29
ATOM     29  N   UNL     1       0.628  -0.607  -1.159  0.00  0.00    -0.330 N 
BRANCH  29  31
ATOM     30  C   UNL     1      -0.182   1.310   0.125  0.00  0.00    +0.024 C 
ATOM     31  C   UNL     1      -0.071  -0.214   0.067  0.00  0.00    +0.102 C 
ENDBRANCH  29  31
BRANCH  29  32
ATOM     32  C   UNL     1       2.087  -0.745  -1.158  0.00  0.00    +0.102 C 
ATOM     33  C   UNL     1       2.462  -2.182  -0.788  0.00  0.00    +0.024 C 
ENDBRANCH  29  32
ENDBRANCH  23  29
ENDBRANCH  21  26
ENDBRANCH  17  22
ENDBRANCH   1  18
BRANCH   5  34
ATOM     34  N   UNL     1      -1.262  -0.842 -16.038  0.00  0.00    +0.056 N 
ATOM     35  O   UNL     1      -1.757   0.261 -16.087  0.00  0.00    -0.126 OA
ATOM     36  O   UNL     1      -0.668  -1.280 -16.996  0.00  0.00    -0.126 OA
ENDBRANCH   5  34
TORSDOF 8
