REMARK  Name = ZINC08798811
REMARK  13 active torsions:
REMARK  status: ('A' for Active; 'I' for Inactive)
REMARK    1  A    between atoms: C_1  and  C_2
REMARK    2  A    between atoms: C_4  and  C_30
REMARK    3  A    between atoms: C_5  and  C_29
REMARK    4  A    between atoms: C_6  and  S_9
REMARK    5  A    between atoms: C_7  and  C_8
REMARK    6  A    between atoms: S_9  and  N_12
REMARK    7  A    between atoms: N_12  and  C_13
REMARK    8  A    between atoms: C_13  and  C_14
REMARK    9  A    between atoms: C_14  and  C_16
REMARK   10  A    between atoms: C_14  and  N_65
REMARK   11  A    between atoms: N_25  and  C_26
REMARK   12  A    between atoms: C_27  and  N_65
REMARK   13  A    between atoms: C_28  and  N_65
REMARK                            x       y       z     vdW  Elec       q    Type
REMARK                         _______ _______ _______ _____ _____    ______ ____
ROOT
ATOM      1  C   UNL     1       1.485  -2.060   6.390  0.00  0.00    +0.095 C 
ENDROOT
BRANCH   1   2
ATOM      2  N   UNL     1       2.163  -3.179   7.048  0.00  0.00    -0.191 NA
ATOM      3  H   UNL     1       2.810  -3.710   6.558  0.00  0.00    +0.148 HD
BRANCH   2   4
ATOM      4  S   UNL     1       1.826  -3.537   8.630  0.00  0.00    +0.059 S 
ATOM      5  O   UNL     1       2.611  -4.672   8.966  0.00  0.00    -0.153 OA
ATOM      6  O   UNL     1       1.907  -2.314   9.349  0.00  0.00    -0.153 OA
BRANCH   4  12
ATOM      7  C   UNL     1      -1.827  -7.268   8.855  0.00  0.00    +0.044 C 
ATOM      8  C   UNL     1      -1.489  -5.801   8.802  0.00  0.00    -0.045 A 
ATOM      9  C   UNL     1      -2.500  -4.858   8.809  0.00  0.00    +0.007 A 
ATOM     10  C   UNL     1      -2.190  -3.511   8.761  0.00  0.00    -0.045 A 
ATOM     11  C   UNL     1      -0.869  -3.108   8.706  0.00  0.00    -0.021 A 
ATOM     12  C   UNL     1       0.142  -4.051   8.700  0.00  0.00    +0.112 A 
ATOM     13  C   UNL     1      -0.168  -5.397   8.743  0.00  0.00    -0.021 A 
ATOM     14  C   UNL     1       0.933  -6.425   8.730  0.00  0.00    +0.046 C 
ATOM     15  C   UNL     1      -0.531  -1.640   8.653  0.00  0.00    +0.046 C 
ATOM     16  C   UNL     1      -3.292  -2.484   8.768  0.00  0.00    +0.044 C 
ENDBRANCH   4  12
ENDBRANCH   2   4
ENDBRANCH   1   2
BRANCH   1  17
ATOM     17  C   UNL     1       2.334  -1.568   5.216  0.00  0.00    -0.023 C 
BRANCH  17  18
ATOM     18  C   UNL     1       1.679  -0.363   4.592  0.00  0.00    -0.059 A 
ATOM     19  C   UNL     1       0.357  -0.423   4.190  0.00  0.00    +0.004 A 
ATOM     20  C   UNL     1      -0.239   0.679   3.617  0.00  0.00    +0.023 A 
ATOM     21  C   UNL     1       0.484   1.860   3.438  0.00  0.00    +0.033 A 
ATOM     22  C   UNL     1       1.804   1.917   3.847  0.00  0.00    -0.026 A 
ATOM     23  C   UNL     1       2.398   0.803   4.420  0.00  0.00    +0.007 A 
ATOM     24  C   UNL     1       2.635   3.167   3.697  0.00  0.00    +0.038 C 
ATOM     25  C   UNL     1       1.949   4.127   2.722  0.00  0.00    +0.024 C 
ATOM     26  C   UNL     1       0.470   4.224   3.116  0.00  0.00    +0.105 C 
ATOM     27  N   UNL     1      -0.173   2.937   2.845  0.00  0.00    -0.333 N 
ATOM     28  C   UNL     1      -1.591   2.966   3.230  0.00  0.00    +0.129 C 
ENDBRANCH  17  18
BRANCH  17  31
ATOM     29  C   UNL     1       1.206  -3.412   4.125  0.00  0.00    -0.096 C 
ATOM     30  C   UNL     1       2.824  -2.089   2.903  0.00  0.00    -0.096 C 
ATOM     31  N   UNL     1       2.471  -2.654   4.222  0.00  0.00    +0.381 N 
ATOM     32  H   UNL     1       3.219  -3.289   4.524  0.00  0.00    -0.082 HD
ENDBRANCH  17  31
ENDBRANCH   1  17
TORSDOF 6
