REMARK  Name = ZINC45045686
REMARK  8 active torsions:
REMARK  status: ('A' for Active; 'I' for Inactive)
REMARK    1  A    between atoms: C_1  and  C_2
REMARK    2  A    between atoms: C_2  and  N_8
REMARK    3  A    between atoms: N_8  and  C_9
REMARK    4  A    between atoms: C_9  and  C_10
REMARK    5  A    between atoms: C_10  and  C_12
REMARK    6  A    between atoms: C_10  and  O_22
REMARK    7  A    between atoms: C_12  and  O_13
REMARK    8  A    between atoms: O_13  and  C_14
REMARK                            x       y       z     vdW  Elec       q    Type
REMARK                         _______ _______ _______ _____ _____    ______ ____
ROOT
ATOM      1  C   UNL     1       0.695  -0.485  -3.655  0.00  0.00    +0.135 C 
ENDROOT
BRANCH   1   2
ATOM      2  O   UNL     1       2.036   0.010  -3.666  0.00  0.00    -0.390 OA
ATOM      3  H   UNL     1       2.099   0.975  -3.661  0.00  0.00    +0.210 HD
ENDBRANCH   1   2
BRANCH   1   4
ATOM      4  C   UNL     1      -0.021   0.009  -2.397  0.00  0.00    -0.047 C 
BRANCH   4   5
ATOM      5  N   UNL     1       0.690  -0.478  -1.207  0.00  0.00    +0.384 N 
ATOM      6  H   UNL     1       1.636  -0.129  -1.214  0.00  0.00    -0.085 HD
ATOM      7  H   UNL     1       0.703  -1.487  -1.212  0.00  0.00    -0.085 HD
BRANCH   5   9
ATOM      8  C   UNL     1      -0.019   1.526   0.010  0.00  0.00    -0.010 C 
ATOM      9  C   UNL     1       0.002  -0.004   0.002  0.00  0.00    -0.071 C 
ATOM     10  C   UNL     1      -1.433  -0.534   0.013  0.00  0.00    -0.013 C 
ATOM     11  C   UNL     1      -2.149  -0.040   1.272  0.00  0.00    -0.001 C 
ATOM     12  C   UNL     1      -1.409  -0.547   2.511  0.00  0.00    -0.000 C 
ATOM     13  C   UNL     1       0.026  -0.018   2.500  0.00  0.00    -0.001 C 
ATOM     14  C   UNL     1       0.742  -0.511   1.242  0.00  0.00    -0.013 C 
ENDBRANCH   5   9
ENDBRANCH   4   5
ENDBRANCH   1   4
BRANCH   1  15
ATOM     15  C   UNL     1      -0.045   0.022  -4.895  0.00  0.00    +0.258 C 
BRANCH  15  16
ATOM     16  O   UNL     1       0.554  -0.533  -6.068  0.00  0.00    -0.487 OA
BRANCH  16  17
ATOM     17  C   UNL     1       0.012  -0.181  -7.263  0.00  0.00    +0.157 A 
ATOM     18  C   UNL     1      -1.016  -0.936  -7.810  0.00  0.00    +0.084 A 
ATOM     19  C   UNL     1      -1.566  -0.575  -9.026  0.00  0.00    +0.024 A 
ATOM     20  C   UNL     1      -1.092   0.536  -9.698  0.00  0.00    +0.003 A 
ATOM     21  C   UNL     1      -0.067   1.290  -9.156  0.00  0.00    +0.024 A 
ATOM     22  C   UNL     1       0.482   0.938  -7.938  0.00  0.00    +0.084 A 
ATOM     23 CL   UNL     1       1.763   1.889  -7.254  0.00  0.00    -0.080 Cl
ATOM     24 CL   UNL     1      -1.612  -2.332  -6.967  0.00  0.00    -0.080 Cl
ENDBRANCH  16  17
ENDBRANCH  15  16
ENDBRANCH   1  15
TORSDOF 7
