REMARK  Name = ZINC51329743
REMARK  4 active torsions:
REMARK  status: ('A' for Active; 'I' for Inactive)
REMARK    1  A    between atoms: C_1  and  O_2
REMARK    2  A    between atoms: O_2  and  C_3
REMARK    3  A    between atoms: C_3  and  C_5
REMARK    4  A    between atoms: C_14  and  C_16
REMARK                            x       y       z     vdW  Elec       q    Type
REMARK                         _______ _______ _______ _____ _____    ______ ____
ROOT
ATOM      1  C   UNL     1      -1.248  -2.094   0.003  0.00  0.00    +0.112 C 
ATOM      2  C   UNL     1      -2.451  -2.727   0.011  0.00  0.00    +0.087 A 
ATOM      3  C   UNL     1      -2.751  -4.181   0.012  0.00  0.00    +0.268 A 
ATOM      4  O   UNL     1      -1.860  -5.007   0.006  0.00  0.00    -0.266 OA
ATOM      5  N   UNL     1      -4.039  -4.551   0.020  0.00  0.00    -0.275 N 
ATOM      6  C   UNL     1      -5.009  -3.567   0.029  0.00  0.00    +0.178 A 
ATOM      7  N   UNL     1      -6.282  -3.808   0.038  0.00  0.00    -0.223 NA
ATOM      8  C   UNL     1      -6.833  -5.055   0.038  0.00  0.00    +0.073 C 
ATOM      9  C   UNL     1      -6.045  -6.151   0.024  0.00  0.00    -0.017 C 
ATOM     10  C   UNL     1      -4.545  -5.950   0.021  0.00  0.00    +0.151 C 
ATOM     11  C   UNL     1      -6.601  -7.545   0.005  0.00  0.00    +0.035 C 
ATOM     12  C   UNL     1      -8.025  -7.585   0.556  0.00  0.00    +0.009 C 
ATOM     13  C   UNL     1      -8.885  -6.568  -0.206  0.00  0.00    +0.039 C 
ATOM     14  C   UNL     1      -8.302  -5.197   0.061  0.00  0.00    -0.002 C 
ATOM     15  C   UNL     1      -9.101  -4.135   0.313  0.00  0.00    +0.046 C 
ATOM     16  S   UNL     1      -8.629  -2.451   0.642  0.00  0.00    -0.117 S 
ATOM     17  C   UNL     1     -10.197  -1.546   0.891  0.00  0.00    +0.086 C 
ATOM     18  C   UNL     1     -11.214  -2.595   1.410  0.00  0.00    +0.086 C 
ATOM     19  S   UNL     1     -10.882  -4.085   0.388  0.00  0.00    -0.117 S 
ATOM     20  S   UNL     1      -4.097  -2.036   0.031  0.00  0.00    -0.046 S 
ENDROOT
BRANCH  10  21
ATOM     21  C   UNL     1      -3.983  -6.644   1.235  0.00  0.00    -0.020 A 
ATOM     22  C   UNL     1      -3.905  -5.973   2.440  0.00  0.00    +0.006 A 
ATOM     23  C   UNL     1      -3.390  -6.609   3.554  0.00  0.00    +0.000 A 
ATOM     24  C   UNL     1      -2.953  -7.918   3.462  0.00  0.00    +0.000 A 
ATOM     25  C   UNL     1      -3.032  -8.589   2.257  0.00  0.00    +0.000 A 
ATOM     26  C   UNL     1      -3.551  -7.954   1.144  0.00  0.00    +0.006 A 
ENDBRANCH  10  21
BRANCH   1  27
ATOM     27  C   UNL     1      -1.192  -0.633   0.010  0.00  0.00    +0.333 C 
ATOM     28  O   UNL     1      -2.220   0.015   0.023  0.00  0.00    -0.246 OA
BRANCH  27  30
ATOM     29  C   UNL     1      -0.017   1.425   0.010  0.00  0.00    +0.280 C 
ATOM     30  O   UNL     1       0.002  -0.004   0.002  0.00  0.00    -0.465 OA
ENDBRANCH  27  30
ENDBRANCH   1  27
TORSDOF 3
