REMARK  Name = ZINC14643157
REMARK  11 active torsions:
REMARK  status: ('A' for Active; 'I' for Inactive)
REMARK    1  A    between atoms: C_1  and  C_2
REMARK    2  A    between atoms: C_6  and  C_30
REMARK    3  A    between atoms: C_7  and  O_8
REMARK    4  A    between atoms: O_8  and  C_9
REMARK    5  A    between atoms: C_9  and  C_11
REMARK    6  A    between atoms: C_9  and  C_12
REMARK    7  A    between atoms: N_14  and  N_15
REMARK    8  A    between atoms: C_16  and  C_18
REMARK    9  A    between atoms: C_18  and  C_20
REMARK   10  A    between atoms: C_18  and  O_21
REMARK   11  A    between atoms: O_21  and  C_22
REMARK                            x       y       z     vdW  Elec       q    Type
REMARK                         _______ _______ _______ _____ _____    ______ ____
ROOT
ATOM      1  C   UNL     1       0.560   2.292   0.004  0.00  0.00    +0.270 C 
ATOM      2  O   UNL     1       0.509   3.459   0.327  0.00  0.00    -0.270 OA
ATOM      3  N   UNL     1      -0.574   1.622  -0.282  0.00  0.00    -0.231 N 
ATOM      4  H   UNL     1      -0.533   0.688  -0.541  0.00  0.00    +0.173 HD
ENDROOT
BRANCH   3   5
ATOM      5  N   UNL     1      -1.811   2.275  -0.211  0.00  0.00    -0.231 N 
ATOM      6  C   UNL     1      -2.944   1.607  -0.503  0.00  0.00    +0.270 C 
ATOM      7  O   UNL     1      -2.893   0.439  -0.826  0.00  0.00    -0.270 OA
ATOM      8  H   UNL     1      -1.852   3.209   0.048  0.00  0.00    +0.173 HD
BRANCH   6   9
ATOM      9  C   UNL     1      -4.275   2.310  -0.426  0.00  0.00    +0.257 C 
ATOM     10  C   UNL     1      -4.330   3.414  -1.484  0.00  0.00    +0.062 C 
BRANCH   9  11
ATOM     11  O   UNL     1      -5.325   1.370  -0.663  0.00  0.00    -0.478 OA
BRANCH  11  12
ATOM     12  C   UNL     1      -6.545   1.663  -0.142  0.00  0.00    +0.140 A 
ATOM     13  C   UNL     1      -6.760   2.884   0.480  0.00  0.00    +0.048 A 
ATOM     14  C   UNL     1      -8.002   3.183   1.005  0.00  0.00    +0.023 A 
ATOM     15  C   UNL     1      -9.030   2.260   0.920  0.00  0.00    +0.043 A 
ATOM     16  C   UNL     1      -8.818   1.040   0.305  0.00  0.00    +0.043 A 
ATOM     17  C   UNL     1      -7.578   0.739  -0.227  0.00  0.00    +0.084 A 
ATOM     18 CL   UNL     1      -7.311  -0.793  -0.998  0.00  0.00    -0.080 Cl
ATOM     19 CL   UNL     1     -10.588   2.636   1.587  0.00  0.00    -0.083 Cl
ENDBRANCH  11  12
ENDBRANCH   9  11
ENDBRANCH   6   9
ENDBRANCH   3   5
BRANCH   1  20
ATOM     20  C   UNL     1       1.891   1.590  -0.079  0.00  0.00    +0.257 C 
ATOM     21  C   UNL     1       1.906   0.408   0.892  0.00  0.00    +0.062 C 
BRANCH  20  22
ATOM     22  O   UNL     1       2.934   2.504   0.268  0.00  0.00    -0.479 OA
BRANCH  22  29
ATOM     23  C   UNL     1       4.777   1.123   1.903  0.00  0.00    +0.047 C 
ATOM     24  C   UNL     1       5.114   1.584   0.508  0.00  0.00    -0.007 A 
ATOM     25  C   UNL     1       6.365   1.330  -0.020  0.00  0.00    +0.022 A 
ATOM     26  C   UNL     1       6.677   1.757  -1.298  0.00  0.00    +0.019 A 
ATOM     27  C   UNL     1       5.736   2.435  -2.052  0.00  0.00    +0.022 A 
ATOM     28  C   UNL     1       4.482   2.686  -1.530  0.00  0.00    -0.007 A 
ATOM     29  C   UNL     1       4.167   2.258  -0.248  0.00  0.00    +0.127 A 
ATOM     30  C   UNL     1       3.457   3.425  -2.351  0.00  0.00    +0.047 C 
ATOM     31 BR   UNL     1       8.393   1.415  -2.016  0.00  0.00    -0.050 Br
ENDBRANCH  22  29
ENDBRANCH  20  22
ENDBRANCH   1  20
TORSDOF 7
