REMARK  Name = ZINC62959579
REMARK  4 active torsions:
REMARK  status: ('A' for Active; 'I' for Inactive)
REMARK    1  A    between atoms: C_1  and  C_2
REMARK    2  A    between atoms: C_2  and  C_3
REMARK    3  A    between atoms: C_3  and  N_4
REMARK    4  A    between atoms: C_8  and  C_9
REMARK                            x       y       z     vdW  Elec       q    Type
REMARK                         _______ _______ _______ _____ _____    ______ ____
ROOT
ATOM      1  C   UNL     1       3.040  -2.297  -0.491  0.00  0.00    +0.263 C 
ATOM      2  O   UNL     1       3.710  -3.174  -1.004  0.00  0.00    -0.268 OA
ATOM      3  N   UNL     1       3.259  -1.007  -0.814  0.00  0.00    -0.296 N 
ATOM      4  C   UNL     1       2.442   0.061  -0.221  0.00  0.00    +0.108 C 
ATOM      5  C   UNL     1       1.845   0.908  -1.350  0.00  0.00    +0.026 C 
ATOM      6  C   UNL     1       2.965   1.396  -2.265  0.00  0.00    -0.026 C 
ATOM      7  C   UNL     1       3.946   2.273  -1.473  0.00  0.00    +0.007 C 
ATOM      8  C   UNL     1       3.923   3.666  -2.137  0.00  0.00    +0.001 C 
ATOM      9  C   UNL     1       2.549   3.725  -2.851  0.00  0.00    +0.001 C 
ATOM     10  C   UNL     1       2.377   2.279  -3.382  0.00  0.00    +0.007 C 
ATOM     11  C   UNL     1       3.705   0.211  -2.881  0.00  0.00    +0.026 C 
ATOM     12  C   UNL     1       4.322  -0.642  -1.760  0.00  0.00    +0.108 C 
ENDROOT
BRANCH   1  17
ATOM     13  N   UNL     1       1.311  -3.837   0.544  0.00  0.00    -0.342 N 
ATOM     14  C   UNL     1       0.432  -3.775   1.575  0.00  0.00    +0.101 A 
ATOM     15  C   UNL     1       0.537  -2.562   2.169  0.00  0.00    +0.036 A 
ATOM     16  C   UNL     1       1.518  -1.834   1.486  0.00  0.00    +0.047 A 
ATOM     17  C   UNL     1       1.995  -2.644   0.478  0.00  0.00    +0.106 A 
ATOM     18 BR   UNL     1      -0.463  -1.959   3.656  0.00  0.00    -0.049 Br
BRANCH  13  19
ATOM     19  C   UNL     1       1.504  -4.983  -0.347  0.00  0.00    +0.122 C 
BRANCH  19  21
ATOM     20  C   UNL     1       2.929  -6.982  -0.811  0.00  0.00    +0.005 C 
ATOM     21  C   UNL     1       2.644  -5.855   0.183  0.00  0.00    +0.018 C 
ENDBRANCH  19  21
ENDBRANCH  13  19
ENDBRANCH   1  17
TORSDOF 3
