REMARK  Name = ZINC63830581
REMARK  7 active torsions:
REMARK  status: ('A' for Active; 'I' for Inactive)
REMARK    1  A    between atoms: C_1  and  C_2
REMARK    2  A    between atoms: C_2  and  C_4
REMARK    3  A    between atoms: C_2  and  N_11
REMARK    4  A    between atoms: N_11  and  C_12
REMARK    5  A    between atoms: C_12  and  C_13
REMARK    6  A    between atoms: C_13  and  C_15
REMARK    7  A    between atoms: C_13  and  C_22
REMARK                            x       y       z     vdW  Elec       q    Type
REMARK                         _______ _______ _______ _____ _____    ______ ____
ROOT
ATOM      1  C   UNL     1       3.067  -0.594   2.082  0.00  0.00    +0.032 C 
ENDROOT
BRANCH   1   2
ATOM      2  C   UNL     1       4.516  -0.272   1.822  0.00  0.00    -0.036 C 
ATOM      3  C   UNL     1       5.536  -1.152   1.702  0.00  0.00    -0.001 A 
ATOM      4  C   UNL     1       5.599  -2.617   1.775  0.00  0.00    +0.010 A 
ATOM      5  C   UNL     1       6.793  -3.231   1.612  0.00  0.00    +0.001 A 
ATOM      6  C   UNL     1       7.968  -2.506   1.375  0.00  0.00    +0.002 A 
ATOM      7  C   UNL     1       7.990  -1.158   1.294  0.00  0.00    +0.026 A 
ATOM      8  C   UNL     1       6.791  -0.409   1.450  0.00  0.00    +0.043 A 
ATOM      9  N   UNL     1       6.556   0.880   1.416  0.00  0.00    -0.380 N 
ATOM     10  C   UNL     1       5.123   1.101   1.637  0.00  0.00    +0.145 C 
ATOM     11  H   UNL     1       7.219   1.572   1.266  0.00  0.00    +0.160 HD
ENDBRANCH   1   2
BRANCH   1  12
ATOM     12  C   UNL     1       2.627   0.065   3.363  0.00  0.00    -0.024 A 
ATOM     13  C   UNL     1       2.686   1.441   3.489  0.00  0.00    +0.005 A 
ATOM     14  C   UNL     1       2.283   2.046   4.664  0.00  0.00    +0.000 A 
ATOM     15  C   UNL     1       1.821   1.276   5.715  0.00  0.00    +0.001 A 
ATOM     16  C   UNL     1       1.761  -0.099   5.591  0.00  0.00    +0.020 A 
ATOM     17  C   UNL     1       2.159  -0.705   4.413  0.00  0.00    +0.045 A 
ATOM     18 CL   UNL     1       2.079  -2.432   4.254  0.00  0.00    -0.083 Cl
ENDBRANCH   1  12
BRANCH   1  19
ATOM     19  C   UNL     1       2.213  -0.076   0.922  0.00  0.00    -0.069 C 
BRANCH  19  20
ATOM     20  N   UNL     1       0.818  -0.494   1.116  0.00  0.00    +0.387 N 
ATOM     21  H   UNL     1       0.471  -0.115   1.985  0.00  0.00    -0.085 HD
ATOM     22  H   UNL     1       0.770  -1.501   1.145  0.00  0.00    -0.085 HD
BRANCH  20  24
ATOM     23  C   UNL     1      -0.029   1.534   0.034  0.00  0.00    -0.004 C 
ATOM     24  C   UNL     1      -0.001   0.004   0.003  0.00  0.00    +0.013 C 
BRANCH  24  25
ATOM     25  C   UNL     1      -1.405  -0.526   0.137  0.00  0.00    +0.201 C 
ATOM     26  O   UNL     1      -1.836  -0.833   1.228  0.00  0.00    -0.277 OA
ATOM     27  N   UNL     1      -2.182  -0.659  -0.957  0.00  0.00    -0.303 N 
ATOM     28  C   UNL     1      -1.752  -0.439  -2.345  0.00  0.00    +0.108 C 
ATOM     29  C   UNL     1      -2.979  -0.683  -3.249  0.00  0.00    +0.020 C 
ATOM     30  C   UNL     1      -4.172  -0.474  -2.279  0.00  0.00    +0.020 C 
ATOM     31  C   UNL     1      -3.602  -1.056  -0.959  0.00  0.00    +0.108 C 
ENDBRANCH  24  25
ENDBRANCH  20  24
ENDBRANCH  19  20
ENDBRANCH   1  19
TORSDOF 6
