REMARK  Name = ZINC35982235
REMARK  7 active torsions:
REMARK  status: ('A' for Active; 'I' for Inactive)
REMARK    1  A    between atoms: C_1  and  C_2
REMARK    2  A    between atoms: C_5  and  O_36
REMARK    3  A    between atoms: C_18  and  C_35
REMARK    4  A    between atoms: C_23  and  C_24
REMARK    5  A    between atoms: C_27  and  O_30
REMARK    6  A    between atoms: O_30  and  C_31
REMARK    7  A    between atoms: C_32  and  O_34
REMARK                            x       y       z     vdW  Elec       q    Type
REMARK                         _______ _______ _______ _____ _____    ______ ____
ROOT
ATOM      1  C   UNL     1       0.070   1.460  -0.175  0.00  0.00    +0.012 C 
ATOM      2  C   UNL     1       0.060  -0.075  -0.169  0.00  0.00    -0.026 C 
ATOM      3  C   UNL     1       0.685  -0.601  -1.455  0.00  0.00    +0.010 C 
ATOM      4  C   UNL     1       2.152  -0.183  -1.554  0.00  0.00    +0.032 C 
ATOM      5  C   UNL     1       2.923  -0.715  -0.344  0.00  0.00    +0.115 C 
ATOM      6  C   UNL     1       2.314  -0.166   0.944  0.00  0.00    +0.035 C 
ATOM      7  C   UNL     1       0.843  -0.565   1.052  0.00  0.00    -0.002 C 
ATOM      8  C   UNL     1       0.742  -2.078   1.230  0.00  0.00    +0.004 C 
ATOM      9  C   UNL     1      -0.728  -2.510   1.331  0.00  0.00    +0.004 C 
ATOM     10  C   UNL     1      -1.409  -2.079   0.038  0.00  0.00    -0.003 C 
ATOM     11  C   UNL     1      -1.390  -0.549  -0.044  0.00  0.00    -0.001 C 
ATOM     12  C   UNL     1      -2.277  -0.099  -1.195  0.00  0.00    +0.005 C 
ATOM     13  C   UNL     1      -3.755  -0.391  -0.886  0.00  0.00    +0.010 C 
ATOM     14  C   UNL     1      -3.889  -1.554   0.062  0.00  0.00    +0.001 C 
ATOM     15  C   UNL     1      -2.788  -2.608  -0.176  0.00  0.00    +0.005 C 
ATOM     16  C   UNL     1      -3.264  -3.776   0.691  0.00  0.00    +0.037 C 
ATOM     17  C   UNL     1      -4.789  -3.697   0.629  0.00  0.00    -0.040 C 
ATOM     18  C   UNL     1      -5.645  -4.548   1.173  0.00  0.00    +0.009 C 
ATOM     19  C   UNL     1      -5.132  -2.447  -0.184  0.00  0.00    +0.147 C 
ATOM     20  C   UNL     1      -3.954  -1.086   1.520  0.00  0.00    +0.014 C 
ENDROOT
BRANCH  18  21
ATOM     21  C   UNL     1      -5.155  -5.629   2.053  0.00  0.00    -0.025 A 
ATOM     22  C   UNL     1      -4.069  -5.404   2.900  0.00  0.00    +0.011 A 
ATOM     23  C   UNL     1      -3.615  -6.415   3.719  0.00  0.00    +0.046 A 
ATOM     24  C   UNL     1      -4.236  -7.657   3.701  0.00  0.00    +0.120 A 
ATOM     25  C   UNL     1      -5.316  -7.886   2.859  0.00  0.00    +0.046 A 
ATOM     26  C   UNL     1      -5.780  -6.877   2.042  0.00  0.00    +0.011 A 
BRANCH  24  27
ATOM     27  O   UNL     1      -3.785  -8.652   4.510  0.00  0.00    -0.495 OA
ATOM     28  C   UNL     1      -4.470  -9.904   4.441  0.00  0.00    +0.277 C 
ENDBRANCH  24  27
ENDBRANCH  18  21
BRANCH  19  29
ATOM     29  O   UNL     1      -5.255  -2.760  -1.569  0.00  0.00    -0.387 OA
ATOM     30  H   UNL     1      -6.017  -3.317  -1.780  0.00  0.00    +0.210 HD
ENDBRANCH  19  29
BRANCH   5  31
ATOM     31  O   UNL     1       4.290  -0.301  -0.439  0.00  0.00    -0.392 OA
ATOM     32  H   UNL     1       4.743  -0.619  -1.232  0.00  0.00    +0.210 HD
ENDBRANCH   5  31
TORSDOF 4
