REMARK  Name = ZINC39324334
REMARK  10 active torsions:
REMARK  status: ('A' for Active; 'I' for Inactive)
REMARK    1  A    between atoms: C_1  and  C_2
REMARK    2  A    between atoms: C_2  and  C_3
REMARK    3  A    between atoms: C_2  and  C_4
REMARK    4  A    between atoms: C_5  and  C_24
REMARK    5  A    between atoms: C_6  and  C_14
REMARK    6  A    between atoms: C_8  and  C_12
REMARK    7  A    between atoms: C_9  and  N_11
REMARK    8  A    between atoms: C_19  and  C_20
REMARK    9  A    between atoms: C_24  and  O_26
REMARK   10  A    between atoms: O_26  and  C_27
REMARK                            x       y       z     vdW  Elec       q    Type
REMARK                         _______ _______ _______ _____ _____    ______ ____
ROOT
ATOM      1  C   UNL     1       0.658  -0.582  -1.235  0.00  0.00    +0.121 C 
ATOM      2  C   UNL     1       1.858  -1.163  -1.109  0.00  0.00    +0.087 C 
ATOM      3  C   UNL     1       2.658  -1.567  -2.318  0.00  0.00    +0.105 C 
ATOM      4  C   UNL     1       2.117  -0.882  -3.543  0.00  0.00    +0.098 C 
ATOM      5  C   UNL     1       0.889  -0.310  -3.534  0.00  0.00    +0.198 C 
ATOM      6  O   UNL     1       0.109  -0.337  -2.435  0.00  0.00    -0.445 OA
ENDROOT
BRANCH   3   7
ATOM      7  C   UNL     1       2.568  -3.060  -2.501  0.00  0.00    -0.023 A 
ATOM      8  C   UNL     1       1.338  -3.659  -2.703  0.00  0.00    +0.005 A 
ATOM      9  C   UNL     1       1.256  -5.028  -2.871  0.00  0.00    +0.000 A 
ATOM     10  C   UNL     1       2.403  -5.799  -2.838  0.00  0.00    +0.001 A 
ATOM     11  C   UNL     1       3.633  -5.200  -2.637  0.00  0.00    +0.012 A 
ATOM     12  C   UNL     1       3.716  -3.830  -2.473  0.00  0.00    +0.059 A 
BRANCH  12  13
ATOM     13  C   UNL     1       5.056  -3.176  -2.259  0.00  0.00    +0.418 C 
ATOM     14  F   UNL     1       6.058  -4.153  -2.270  0.00  0.00    -0.166 F 
ATOM     15  F   UNL     1       5.294  -2.253  -3.283  0.00  0.00    -0.166 F 
ATOM     16  F   UNL     1       5.062  -2.516  -1.025  0.00  0.00    -0.166 F 
ENDBRANCH  12  13
ENDBRANCH   3   7
BRANCH   1  18
ATOM     17  C   UNL     1      -0.241   1.325   0.071  0.00  0.00    +0.015 C 
ATOM     18  C   UNL     1      -0.102  -0.198   0.009  0.00  0.00    +0.050 C 
ATOM     19  C   UNL     1      -1.492  -0.836  -0.025  0.00  0.00    +0.015 C 
ENDBRANCH   1  18
BRANCH   5  20
ATOM     20  N   UNL     1       0.427   0.307  -4.670  0.00  0.00    -0.328 N 
ATOM     21  H   UNL     1       0.978   0.330  -5.467  0.00  0.00    +0.145 HD
ATOM     22  H   UNL     1      -0.451   0.719  -4.675  0.00  0.00    +0.145 HD
ENDBRANCH   5  20
BRANCH   4  23
ATOM     23  C   UNL     1       2.911  -0.833  -4.734  0.00  0.00    +0.101 C 
ATOM     24  N   UNL     1       3.541  -0.794  -5.679  0.00  0.00    -0.191 NA
ENDBRANCH   4  23
BRANCH   2  25
ATOM     25  C   UNL     1       2.384  -1.401   0.184  0.00  0.00    +0.339 C 
ATOM     26  O   UNL     1       3.215  -0.645   0.652  0.00  0.00    -0.245 OA
BRANCH  25  27
ATOM     27  O   UNL     1       1.964  -2.466   0.898  0.00  0.00    -0.465 OA
ATOM     28  C   UNL     1       2.537  -2.645   2.195  0.00  0.00    +0.280 C 
ENDBRANCH  25  27
ENDBRANCH   2  25
TORSDOF 7
