REMARK  Name = ZINC67612401
REMARK  8 active torsions:
REMARK  status: ('A' for Active; 'I' for Inactive)
REMARK    1  A    between atoms: C_1  and  C_2
REMARK    2  A    between atoms: C_2  and  C_4
REMARK    3  A    between atoms: C_2  and  N_13
REMARK    4  A    between atoms: C_4  and  C_5
REMARK    5  A    between atoms: C_5  and  C_6
REMARK    6  A    between atoms: C_9  and  O_12
REMARK    7  A    between atoms: C_19  and  N_22
REMARK    8  A    between atoms: N_22  and  C_23
REMARK                            x       y       z     vdW  Elec       q    Type
REMARK                         _______ _______ _______ _____ _____    ______ ____
ROOT
ATOM      1  N   UNL     1       0.711  -0.489   1.189  0.00  0.00    -0.297 N 
ATOM      2  C   UNL     1       0.051  -0.633   2.355  0.00  0.00    +0.302 C 
ATOM      3  O   UNL     1      -1.132  -0.361   2.423  0.00  0.00    -0.253 OA
ATOM      4  N   UNL     1       0.703  -1.080   3.447  0.00  0.00    -0.284 N 
ATOM      5  C   UNL     1       2.131  -1.440   3.508  0.00  0.00    +0.111 C 
ATOM      6  C   UNL     1       2.518  -1.277   4.999  0.00  0.00    +0.043 C 
ATOM      7  C   UNL     1       1.233  -1.777   5.711  0.00  0.00    +0.089 C 
ATOM      8  C   UNL     1       0.109  -1.283   4.777  0.00  0.00    +0.131 C 
ATOM      9  H   UNL     1       1.654  -0.707   1.135  0.00  0.00    +0.151 HD
ENDROOT
BRANCH   1  11
ATOM     10  C   UNL     1      -0.019   1.526   0.010  0.00  0.00    +0.028 C 
ATOM     11  C   UNL     1       0.002  -0.004   0.002  0.00  0.00    +0.072 C 
BRANCH  11  12
ATOM     12  C   UNL     1       0.718  -0.497  -1.257  0.00  0.00    +0.026 C 
BRANCH  12  13
ATOM     13  C   UNL     1       0.630  -2.023  -1.329  0.00  0.00    +0.037 C 
BRANCH  13  14
ATOM     14  C   UNL     1       1.336  -2.509  -2.568  0.00  0.00    -0.047 A 
ATOM     15  C   UNL     1       0.637  -2.639  -3.754  0.00  0.00    +0.007 A 
ATOM     16  C   UNL     1       1.281  -3.084  -4.892  0.00  0.00    +0.045 A 
ATOM     17  C   UNL     1       2.630  -3.402  -4.844  0.00  0.00    +0.117 A 
ATOM     18  C   UNL     1       3.330  -3.271  -3.653  0.00  0.00    +0.045 A 
ATOM     19  C   UNL     1       2.682  -2.820  -2.520  0.00  0.00    +0.007 A 
BRANCH  17  20
ATOM     20  O   UNL     1       3.266  -3.841  -5.962  0.00  0.00    -0.507 OA
ATOM     21  H   UNL     1       3.654  -3.135  -6.497  0.00  0.00    +0.292 HD
ENDBRANCH  17  20
ENDBRANCH  13  14
ENDBRANCH  12  13
ENDBRANCH  11  12
ENDBRANCH   1  11
BRANCH   7  22
ATOM     22  N   UNL     1       1.108  -1.173   7.039  0.00  0.00    -0.339 N 
ATOM     23  H   UNL     1       1.533  -0.322   7.227  0.00  0.00    +0.146 HD
BRANCH  22  24
ATOM     24  C   UNL     1       0.376  -1.823   8.036  0.00  0.00    +0.027 A 
ATOM     25  C   UNL     1      -0.229  -3.045   7.771  0.00  0.00    +0.023 A 
ATOM     26  C   UNL     1      -0.951  -3.685   8.758  0.00  0.00    +0.002 A 
ATOM     27  C   UNL     1      -1.073  -3.110  10.010  0.00  0.00    +0.000 A 
ATOM     28  C   UNL     1      -0.473  -1.894  10.278  0.00  0.00    +0.002 A 
ATOM     29  C   UNL     1       0.256  -1.251   9.296  0.00  0.00    +0.023 A 
ENDBRANCH  22  24
ENDBRANCH   7  22
TORSDOF 7
