REMARK  Name = ZINC38149463
REMARK  13 active torsions:
REMARK  status: ('A' for Active; 'I' for Inactive)
REMARK    1  A    between atoms: C_1  and  C_2
REMARK    2  A    between atoms: C_2  and  C_3
REMARK    3  A    between atoms: C_2  and  C_4
REMARK    4  A    between atoms: C_2  and  O_30
REMARK    5  A    between atoms: C_5  and  C_6
REMARK    6  A    between atoms: C_9  and  C_11
REMARK    7  A    between atoms: C_11  and  N_12
REMARK    8  A    between atoms: N_15  and  C_22
REMARK    9  A    between atoms: C_16  and  C_19
REMARK   10  A    between atoms: C_19  and  C_20
REMARK   11  A    between atoms: C_20  and  O_21
REMARK   12  A    between atoms: C_22  and  C_23
REMARK   13  A    between atoms: C_23  and  C_24
REMARK                            x       y       z     vdW  Elec       q    Type
REMARK                         _______ _______ _______ _____ _____    ______ ____
ROOT
ATOM      1  N   UNL     1      -7.724  -3.925  -1.363  0.00  0.00    -0.301 NA
ATOM      2  C   UNL     1      -8.361  -2.795  -2.055  0.00  0.00    +0.066 C 
ATOM      3  C   UNL     1      -8.637  -3.183  -3.510  0.00  0.00    -0.063 C 
ATOM      4  N   UNL     1      -9.516  -4.359  -3.545  0.00  0.00    +0.383 N 
ATOM      5  C   UNL     1      -8.856  -5.486  -2.871  0.00  0.00    -0.052 C 
ATOM      6  C   UNL     1      -8.582  -5.117  -1.412  0.00  0.00    +0.069 C 
ATOM      7  H   UNL     1     -10.382  -4.146  -3.073  0.00  0.00    -0.081 HD
ENDROOT
BRANCH   1   8
ATOM      8  C   UNL     1      -7.391  -3.572   0.024  0.00  0.00    +0.126 C 
BRANCH   8  12
ATOM      9  C   UNL     1      -4.109  -0.968   0.044  0.00  0.00    +0.062 A 
ATOM     10  C   UNL     1      -5.341  -0.364   0.029  0.00  0.00    +0.025 A 
ATOM     11  C   UNL     1      -6.466  -1.157   0.021  0.00  0.00    +0.014 A 
ATOM     12  C   UNL     1      -6.324  -2.508   0.029  0.00  0.00    +0.005 A 
ATOM     13  S   UNL     1      -4.550  -2.699   0.040  0.00  0.00    -0.084 S 
BRANCH   9  15
ATOM     14  C   UNL     1      -1.744   0.124   0.063  0.00  0.00    -0.062 C 
ATOM     15  C   UNL     1      -2.809  -0.368   0.055  0.00  0.00    -0.056 C 
BRANCH  14  17
ATOM     16  C   UNL     1      -0.549   2.265   0.073  0.00  0.00    +0.055 C 
ATOM     17  C   UNL     1      -0.407   0.742   0.074  0.00  0.00    +0.121 C 
ATOM     18  C   UNL     1       0.348   0.301   1.329  0.00  0.00    +0.055 C 
BRANCH  17  19
ATOM     19  O   UNL     1       0.317   0.330  -1.087  0.00  0.00    -0.377 OA
ATOM     20  H   UNL     1       0.445  -0.626  -1.153  0.00  0.00    +0.211 HD
ENDBRANCH  17  19
ENDBRANCH  14  17
ENDBRANCH   9  15
ENDBRANCH   8  12
ENDBRANCH   1   8
BRANCH   5  21
ATOM     21  C   UNL     1      -9.765  -6.715  -2.925  0.00  0.00    +0.014 C 
BRANCH  21  22
ATOM     22  C   UNL     1      -9.050  -7.907  -2.285  0.00  0.00    +0.154 C 
BRANCH  22  23
ATOM     23  O   UNL     1      -9.846  -9.082  -2.446  0.00  0.00    -0.395 OA
ATOM     24  H   UNL     1      -9.453  -9.879  -2.063  0.00  0.00    +0.209 HD
ENDBRANCH  22  23
ENDBRANCH  21  22
ENDBRANCH   5  21
BRANCH   4  25
ATOM     25  C   UNL     1      -9.795  -4.720  -4.941  0.00  0.00    -0.074 C 
BRANCH  25  26
ATOM     26  C   UNL     1     -10.593  -3.597  -5.608  0.00  0.00    +0.016 C 
BRANCH  26  27
ATOM     27  C   UNL     1     -10.879  -3.967  -7.041  0.00  0.00    -0.049 A 
ATOM     28  C   UNL     1      -9.987  -3.617  -8.037  0.00  0.00    +0.003 A 
ATOM     29  C   UNL     1     -10.249  -3.956  -9.351  0.00  0.00    +0.000 A 
ATOM     30  C   UNL     1     -11.405  -4.646  -9.669  0.00  0.00    +0.000 A 
ATOM     31  C   UNL     1     -12.297  -4.996  -8.673  0.00  0.00    +0.000 A 
ATOM     32  C   UNL     1     -12.032  -4.660  -7.358  0.00  0.00    +0.003 A 
ENDBRANCH  26  27
ENDBRANCH  25  26
ENDBRANCH   4  25
TORSDOF 11
