REMARK  Name = ZINC00805180
REMARK  5 active torsions:
REMARK  status: ('A' for Active; 'I' for Inactive)
REMARK    1  A    between atoms: C_3  and  N_26
REMARK    2  A    between atoms: C_6  and  C_7
REMARK    3  A    between atoms: C_7  and  O_9
REMARK    4  A    between atoms: O_9  and  C_10
REMARK    5  A    between atoms: C_13  and  C_17
REMARK                            x       y       z     vdW  Elec       q    Type
REMARK                         _______ _______ _______ _____ _____    ______ ____
ROOT
ATOM      1  C   UNL     1       3.359   3.589  -0.549  0.00  0.00    +0.160 A 
ATOM      2  C   UNL     1       3.540   2.247  -0.232  0.00  0.00    +0.062 A 
ATOM      3  C   UNL     1       2.448   1.426  -0.050  0.00  0.00    +0.027 A 
ATOM      4  C   UNL     1       1.155   1.946  -0.184  0.00  0.00    -0.021 A 
ATOM      5  C   UNL     1       0.979   3.297  -0.508  0.00  0.00    +0.027 A 
ATOM      6  C   UNL     1       2.077   4.110  -0.682  0.00  0.00    +0.062 A 
ATOM      7 BR   UNL     1       1.841   5.936  -1.113  0.00  0.00    -0.046 Br
ATOM      8 BR   UNL     1       5.287   1.547  -0.051  0.00  0.00    -0.046 Br
ENDROOT
BRANCH   4   9
ATOM      9  C   UNL     1      -0.013   1.076   0.008  0.00  0.00    +0.036 C 
ATOM     10  C   UNL     1      -1.113   1.548   0.646  0.00  0.00    +0.096 C 
ATOM     11  C   UNL     1      -1.255   2.832   1.351  0.00  0.00    +0.264 C 
ATOM     12  O   UNL     1      -0.405   3.693   1.481  0.00  0.00    -0.268 OA
ATOM     13  N   UNL     1      -2.519   2.864   1.821  0.00  0.00    -0.263 N 
ATOM     14  C   UNL     1      -3.158   1.733   1.485  0.00  0.00    +0.141 C 
ATOM     15  S   UNL     1      -4.781   1.378   1.897  0.00  0.00    -0.018 S 
ATOM     16  N   UNL     1      -2.355   0.916   0.780  0.00  0.00    -0.293 N 
ATOM     17  H   UNL     1      -2.906   3.594   2.329  0.00  0.00    +0.157 HD
ATOM     18  H   UNL     1      -2.594   0.044   0.429  0.00  0.00    +0.154 HD
ENDBRANCH   4   9
BRANCH   1  19
ATOM     19  O   UNL     1       4.439   4.393  -0.727  0.00  0.00    -0.420 OA
BRANCH  19  20
ATOM     20  C   UNL     1       4.936   4.482  -1.976  0.00  0.00    +0.345 C 
ATOM     21  O   UNL     1       4.420   3.857  -2.881  0.00  0.00    -0.245 OA
BRANCH  20  27
ATOM     22  C   UNL     1       6.702   6.061  -1.208  0.00  0.00    +0.017 A 
ATOM     23  C   UNL     1       7.801   6.854  -1.465  0.00  0.00    +0.033 A 
ATOM     24  C   UNL     1       8.309   6.943  -2.749  0.00  0.00    +0.126 A 
ATOM     25  C   UNL     1       7.723   6.233  -3.783  0.00  0.00    +0.033 A 
ATOM     26  C   UNL     1       6.627   5.432  -3.538  0.00  0.00    +0.017 A 
ATOM     27  C   UNL     1       6.109   5.338  -2.245  0.00  0.00    +0.060 A 
BRANCH  24  28
ATOM     28  N   UNL     1       9.484   7.801  -3.019  0.00  0.00    +0.056 N 
ATOM     29  O   UNL     1       9.934   7.881  -4.148  0.00  0.00    -0.126 OA
ATOM     30  O   UNL     1      10.002   8.427  -2.112  0.00  0.00    -0.126 OA
ENDBRANCH  24  28
ENDBRANCH  20  27
ENDBRANCH  19  20
ENDBRANCH   1  19
TORSDOF 5
