REMARK  Name = ZINC19353456
REMARK  8 active torsions:
REMARK  status: ('A' for Active; 'I' for Inactive)
REMARK    1  A    between atoms: C_6  and  C_7
REMARK    2  A    between atoms: C_9  and  C_13
REMARK    3  A    between atoms: C_13  and  O_15
REMARK    4  A    between atoms: O_15  and  C_16
REMARK    5  A    between atoms: C_16  and  C_17
REMARK    6  A    between atoms: N_19  and  C_20
REMARK    7  A    between atoms: C_20  and  C_21
REMARK    8  A    between atoms: N_23  and  C_24
REMARK                            x       y       z     vdW  Elec       q    Type
REMARK                         _______ _______ _______ _____ _____    ______ ____
ROOT
ATOM      1  C   UNL     1       4.830   0.547  -0.036  0.00  0.00    +0.328 C 
ENDROOT
BRANCH   1   2
ATOM      2  C   UNL     1       3.671   1.510  -0.016  0.00  0.00    +0.251 C 
ATOM      3  O   UNL     1       3.877   2.705  -0.002  0.00  0.00    -0.272 OA
ATOM      4  N   UNL     1       2.407   1.044  -0.012  0.00  0.00    -0.304 N 
ATOM      5  H   UNL     1       2.220  -0.041  -0.025  0.00  0.00    +0.149 HD
BRANCH   4   6
ATOM      6  C   UNL     1       1.280   1.980   0.007  0.00  0.00    +0.200 C 
BRANCH   6   7
ATOM      7  C   UNL     1      -0.014   1.209   0.007  0.00  0.00    +0.234 C 
ATOM      8  O   UNL     1       0.002  -0.004  -0.008  0.00  0.00    -0.274 OA
ATOM      9  N   UNL     1      -1.191   1.867   0.018  0.00  0.00    -0.284 N 
ATOM     10  H   UNL     1      -1.207   2.963   0.108  0.00  0.00    +0.155 HD
BRANCH   9  11
ATOM     11  C   UNL     1      -2.392   1.155  -0.086  0.00  0.00    +0.036 A 
ATOM     12  C   UNL     1      -3.469   1.704  -0.770  0.00  0.00    +0.026 A 
ATOM     13  C   UNL     1      -4.651   0.999  -0.876  0.00  0.00    +0.043 A 
ATOM     14  C   UNL     1      -4.769  -0.251  -0.293  0.00  0.00    +0.159 A 
ATOM     15  C   UNL     1      -3.697  -0.800   0.395  0.00  0.00    +0.160 A 
ATOM     16  C   UNL     1      -2.510  -0.099   0.499  0.00  0.00    +0.064 A 
ATOM     17  F   UNL     1      -3.813  -2.020   0.964  0.00  0.00    -0.202 F 
ATOM     18  F   UNL     1      -5.928  -0.937  -0.395  0.00  0.00    -0.202 F 
ENDBRANCH   9  11
ENDBRANCH   6   7
ENDBRANCH   4   6
ENDBRANCH   1   2
BRANCH   1  19
ATOM     19  O   UNL     1       6.077   1.290  -0.035  0.00  0.00    -0.451 OA
BRANCH  19  20
ATOM     20  C   UNL     1       7.218   0.571  -0.052  0.00  0.00    +0.358 C 
ATOM     21  O   UNL     1       7.171  -0.643  -0.067  0.00  0.00    -0.243 OA
BRANCH  20  24
ATOM     22  C   UNL     1      10.685   1.729  -0.063  0.00  0.00    +0.093 A 
ATOM     23  C   UNL     1       9.767   0.663  -0.064  0.00  0.00    +0.064 A 
ATOM     24  C   UNL     1       8.519   1.257  -0.053  0.00  0.00    +0.143 A 
ATOM     25  N   UNL     1       8.732   2.607  -0.037  0.00  0.00    -0.270 N 
ATOM     26  H   UNL     1       7.878   3.299  -0.022  0.00  0.00    +0.189 HD
ATOM     27  N   UNL     1       9.994   2.849  -0.044  0.00  0.00    -0.173 NA
BRANCH  22  33
ATOM     28  C   UNL     1      12.766   0.355  -0.089  0.00  0.00    +0.011 A 
ATOM     29  C   UNL     1      14.142   0.252  -0.105  0.00  0.00    +0.016 A 
ATOM     30  C   UNL     1      14.925   1.394  -0.097  0.00  0.00    +0.018 A 
ATOM     31  C   UNL     1      14.332   2.644  -0.078  0.00  0.00    +0.016 A 
ATOM     32  C   UNL     1      12.957   2.758  -0.067  0.00  0.00    +0.011 A 
ATOM     33  C   UNL     1      12.165   1.612  -0.075  0.00  0.00    +0.002 A 
ATOM     34 BR   UNL     1      16.810   1.244  -0.112  0.00  0.00    -0.050 Br
ENDBRANCH  22  33
ENDBRANCH  20  24
ENDBRANCH  19  20
ENDBRANCH   1  19
TORSDOF 8
