REMARK  Name = ZINC03299143
REMARK  6 active torsions:
REMARK  status: ('A' for Active; 'I' for Inactive)
REMARK    1  A    between atoms: C_1  and  O_2
REMARK    2  A    between atoms: O_2  and  C_3
REMARK    3  A    between atoms: C_8  and  N_9
REMARK    4  A    between atoms: C_10  and  C_12
REMARK    5  A    between atoms: C_14  and  C_22
REMARK    6  A    between atoms: C_25  and  C_28
REMARK                            x       y       z     vdW  Elec       q    Type
REMARK                         _______ _______ _______ _____ _____    ______ ____
ROOT
ATOM      1  C   UNL     1       1.329   2.119   0.003  0.00  0.00    +0.143 C 
ATOM      2  C   UNL     1       2.204   1.473   1.085  0.00  0.00    +0.122 C 
ATOM      3  N   UNL     1       2.167   0.019   0.939  0.00  0.00    -0.291 N 
ATOM      4  C   UNL     1       1.093  -0.629   0.466  0.00  0.00    +0.304 C 
ATOM      5  O   UNL     1       1.108  -1.844   0.438  0.00  0.00    -0.253 OA
ATOM      6  N   UNL     1      -0.001   0.017   0.021  0.00  0.00    -0.273 N 
ATOM      7  C   UNL     1      -0.013   1.416   0.020  0.00  0.00    +0.019 C 
ATOM      8  C   UNL     1      -1.145   2.094   0.029  0.00  0.00    +0.029 C 
ATOM      9  H   UNL     1       2.948  -0.496   1.193  0.00  0.00    +0.151 HD
ATOM     10  H   UNL     1      -0.770  -0.482  -0.296  0.00  0.00    +0.156 HD
ENDROOT
BRANCH   2  11
ATOM     11  C   UNL     1       1.682   1.855   2.446  0.00  0.00    -0.026 A 
ATOM     12  C   UNL     1       0.589   1.196   2.977  0.00  0.00    +0.006 A 
ATOM     13  C   UNL     1       0.113   1.543   4.227  0.00  0.00    +0.013 A 
ATOM     14  C   UNL     1       0.724   2.556   4.943  0.00  0.00    +0.055 A 
ATOM     15  C   UNL     1       1.813   3.218   4.410  0.00  0.00    +0.013 A 
ATOM     16  C   UNL     1       2.292   2.868   3.161  0.00  0.00    +0.006 A 
BRANCH  14  17
ATOM     17  C   UNL     1       0.202   2.937   6.304  0.00  0.00    +0.417 C 
ATOM     18  F   UNL     1      -0.768   3.937   6.168  0.00  0.00    -0.166 F 
ATOM     19  F   UNL     1      -0.367   1.816   6.917  0.00  0.00    -0.166 F 
ATOM     20  F   UNL     1       1.255   3.414   7.091  0.00  0.00    -0.166 F 
ENDBRANCH  14  17
ENDBRANCH   2  11
BRANCH   1  22
ATOM     21  N   UNL     1       1.361   2.410  -2.454  0.00  0.00    -0.282 N 
ATOM     22  C   UNL     1       1.978   1.950  -1.347  0.00  0.00    +0.228 C 
ATOM     23  O   UNL     1       3.055   1.400  -1.438  0.00  0.00    -0.275 OA
ATOM     24  H   UNL     1       0.465   2.778  -2.392  0.00  0.00    +0.155 HD
BRANCH  21  30
ATOM     25  C   UNL     1       1.272   2.333  -4.872  0.00  0.00    +0.141 A 
ATOM     26  C   UNL     1       1.922   2.282  -6.094  0.00  0.00    +0.047 A 
ATOM     27  C   UNL     1       3.303   2.255  -6.142  0.00  0.00    +0.004 A 
ATOM     28  C   UNL     1       4.040   2.279  -4.972  0.00  0.00    +0.002 A 
ATOM     29  C   UNL     1       3.399   2.337  -3.749  0.00  0.00    +0.027 A 
ATOM     30  C   UNL     1       2.013   2.358  -3.693  0.00  0.00    +0.076 A 
BRANCH  25  32
ATOM     31  C   UNL     1      -0.782   2.333  -6.072  0.00  0.00    +0.277 C 
ATOM     32  O   UNL     1      -0.087   2.360  -4.823  0.00  0.00    -0.493 OA
ENDBRANCH  25  32
ENDBRANCH  21  30
ENDBRANCH   1  22
TORSDOF 5
