REMARK  Name = ZINC63525619
REMARK  2 active torsions:
REMARK  status: ('A' for Active; 'I' for Inactive)
REMARK    1  A    between atoms: C_1  and  C_2
REMARK    2  A    between atoms: C_4  and  C_15
REMARK                            x       y       z     vdW  Elec       q    Type
REMARK                         _______ _______ _______ _____ _____    ______ ____
ROOT
ATOM      1  C   UNL     1       0.104   1.169   0.651  0.00  0.00    +0.067 C 
ATOM      2  C   UNL     1      -0.049  -0.328   0.564  0.00  0.00    +0.064 C 
ATOM      3  C   UNL     1      -1.177  -0.958   0.294  0.00  0.00    +0.014 C 
ATOM      4  C   UNL     1      -2.537  -0.408  -0.086  0.00  0.00    +0.109 C 
ATOM      5  S   UNL     1      -3.777  -1.651   0.413  0.00  0.00    -0.139 S 
ATOM      6  C   UNL     1      -3.661  -2.942  -0.844  0.00  0.00    +0.165 C 
ATOM      7  C   UNL     1      -2.340  -3.194  -1.415  0.00  0.00    +0.225 C 
ATOM      8  O   UNL     1      -2.362  -3.643  -2.542  0.00  0.00    -0.275 OA
ATOM      9  N   UNL     1      -1.132  -3.021  -0.925  0.00  0.00    -0.288 N 
ATOM     10  C   UNL     1      -0.836  -2.429   0.370  0.00  0.00    +0.244 C 
ATOM     11  N   UNL     1       0.608  -2.408   0.645  0.00  0.00    -0.160 NA
ATOM     12  N   UNL     1       0.953  -1.224   0.747  0.00  0.00    -0.157 NA
ATOM     13  H   UNL     1      -0.383  -3.310  -1.469  0.00  0.00    +0.151 HD
ENDROOT
BRANCH   4  14
ATOM     14  C   UNL     1      -2.788   0.889   0.639  0.00  0.00    -0.012 A 
ATOM     15  C   UNL     1      -2.690   2.090  -0.039  0.00  0.00    +0.006 A 
ATOM     16  C   UNL     1      -2.920   3.280   0.625  0.00  0.00    +0.000 A 
ATOM     17  C   UNL     1      -3.247   3.270   1.969  0.00  0.00    +0.001 A 
ATOM     18  C   UNL     1      -3.345   2.071   2.648  0.00  0.00    +0.020 A 
ATOM     19  C   UNL     1      -3.121   0.879   1.982  0.00  0.00    +0.046 A 
ATOM     20 CL   UNL     1      -3.249  -0.629   2.832  0.00  0.00    -0.083 Cl
ENDBRANCH   4  14
TORSDOF 1
