REMARK  Name = ZINC34774611
REMARK  9 active torsions:
REMARK  status: ('A' for Active; 'I' for Inactive)
REMARK    1  A    between atoms: C_1  and  C_2
REMARK    2  A    between atoms: C_5  and  C_9
REMARK    3  A    between atoms: C_6  and  C_8
REMARK    4  A    between atoms: C_9  and  S_10
REMARK    5  A    between atoms: S_10  and  C_11
REMARK    6  A    between atoms: C_15  and  C_20
REMARK    7  A    between atoms: N_29  and  C_32
REMARK    8  A    between atoms: C_32  and  C_33
REMARK    9  A    between atoms: C_33  and  C_35
REMARK                            x       y       z     vdW  Elec       q    Type
REMARK                         _______ _______ _______ _____ _____    ______ ____
ROOT
ATOM      1  C   UNL     1       1.536  -6.786   0.407  0.00  0.00    +0.191 A 
ATOM      2  N   UNL     1       2.622  -7.547   0.468  0.00  0.00    -0.206 NA
ATOM      3  C   UNL     1       2.552  -8.860   0.606  0.00  0.00    +0.134 A 
ATOM      4  C   UNL     1       1.278  -9.485   0.692  0.00  0.00    +0.055 A 
ATOM      5  C   UNL     1       0.944 -10.898   0.845  0.00  0.00    +0.002 A 
ATOM      6  C   UNL     1      -0.359 -11.256   0.905  0.00  0.00    +0.056 A 
ATOM      7  S   UNL     1      -1.225  -9.705   0.758  0.00  0.00    -0.076 S 
ATOM      8  C   UNL     1       0.169  -8.617   0.621  0.00  0.00    +0.115 A 
ATOM      9  N   UNL     1       0.322  -7.314   0.488  0.00  0.00    -0.214 NA
ATOM     10  N   UNL     1       3.707  -9.619   0.664  0.00  0.00    -0.318 N 
ATOM     11  C   UNL     1       4.509  -9.870  -0.543  0.00  0.00    +0.088 C 
ATOM     12  C   UNL     1       5.970  -9.525  -0.236  0.00  0.00    -0.059 C 
ATOM     13  N   UNL     1       6.409 -10.271   0.950  0.00  0.00    +0.384 N 
ATOM     14  C   UNL     1       5.645  -9.836   2.126  0.00  0.00    -0.059 C 
ATOM     15  C   UNL     1       4.171 -10.193   1.937  0.00  0.00    +0.088 C 
ATOM     16  H   UNL     1       6.260 -11.258   0.799  0.00  0.00    -0.081 HD
ENDROOT
BRANCH   5  17
ATOM     17  C   UNL     1       2.013 -11.921   0.933  0.00  0.00    -0.017 A 
ATOM     18  C   UNL     1       2.917 -12.079  -0.116  0.00  0.00    +0.008 A 
ATOM     19  C   UNL     1       3.911 -13.033  -0.028  0.00  0.00    +0.001 A 
ATOM     20  C   UNL     1       4.010 -13.831   1.097  0.00  0.00    +0.000 A 
ATOM     21  C   UNL     1       3.116 -13.678   2.142  0.00  0.00    +0.001 A 
ATOM     22  C   UNL     1       2.122 -12.724   2.068  0.00  0.00    +0.008 A 
ENDBRANCH   5  17
BRANCH   1  23
ATOM     23  S   UNL     1       1.710  -5.042   0.224  0.00  0.00    -0.081 S 
BRANCH  23  24
ATOM     24  C   UNL     1       0.003  -4.430   0.197  0.00  0.00    +0.112 C 
BRANCH  24  29
ATOM     25  C   UNL     1       0.021   1.318  -0.397  0.00  0.00    +0.044 C 
ATOM     26  C   UNL     1       0.017  -0.181  -0.242  0.00  0.00    -0.050 A 
ATOM     27  C   UNL     1      -0.010  -0.992  -1.361  0.00  0.00    +0.003 A 
ATOM     28  C   UNL     1      -0.015  -2.366  -1.219  0.00  0.00    +0.005 A 
ATOM     29  C   UNL     1       0.008  -2.931   0.042  0.00  0.00    -0.034 A 
ATOM     30  C   UNL     1       0.036  -2.121   1.162  0.00  0.00    -0.046 A 
ATOM     31  C   UNL     1       0.045  -0.746   1.020  0.00  0.00    +0.007 A 
ATOM     32  C   UNL     1       0.061  -2.737   2.537  0.00  0.00    +0.044 C 
ENDBRANCH  24  29
ENDBRANCH  23  24
ENDBRANCH   1  23
BRANCH  13  33
ATOM     33  C   UNL     1       7.839 -10.025   1.179  0.00  0.00    -0.048 C 
BRANCH  33  34
ATOM     34  C   UNL     1       8.320 -10.884   2.320  0.00  0.00    -0.096 C 
ATOM     35  C   UNL     1       8.879 -12.043   2.077  0.00  0.00    +0.005 C 
ATOM     36  C   UNL     1       8.159 -10.409   3.741  0.00  0.00    +0.036 C 
ENDBRANCH  33  34
ENDBRANCH  13  33
TORSDOF 6
