REMARK  Name = ZINC06166208
REMARK  5 active torsions:
REMARK  status: ('A' for Active; 'I' for Inactive)
REMARK    1  A    between atoms: C_1  and  O_2
REMARK    2  A    between atoms: O_2  and  C_3
REMARK    3  A    between atoms: C_8  and  C_9
REMARK    4  A    between atoms: N_15  and  N_16
REMARK    5  A    between atoms: C_17  and  C_18
REMARK                            x       y       z     vdW  Elec       q    Type
REMARK                         _______ _______ _______ _____ _____    ______ ____
ROOT
ATOM      1  C   UNL     1      -5.552   4.289   1.199  0.00  0.00    +0.187 A 
ATOM      2  N   UNL     1      -6.637   4.909   0.824  0.00  0.00    -0.151 NA
ATOM      3  N   UNL     1      -6.665   4.925  -0.577  0.00  0.00    -0.253 N 
ATOM      4  H   UNL     1      -7.357   5.317  -1.132  0.00  0.00    +0.191 HD
ATOM      5  C   UNL     1      -5.553   4.297  -1.013  0.00  0.00    +0.197 A 
ATOM      6  S   UNL     1      -5.110   4.046  -2.647  0.00  0.00    -0.010 S 
ATOM      7  N   UNL     1      -4.855   3.902   0.070  0.00  0.00    -0.188 N 
ENDROOT
BRANCH   1  13
ATOM      8  C   UNL     1      -5.933   4.495   3.657  0.00  0.00    +0.131 A 
ATOM      9  C   UNL     1      -5.537   4.257   4.963  0.00  0.00    +0.046 A 
ATOM     10  C   UNL     1      -4.355   3.587   5.218  0.00  0.00    +0.004 A 
ATOM     11  C   UNL     1      -3.563   3.145   4.173  0.00  0.00    +0.001 A 
ATOM     12  C   UNL     1      -3.946   3.370   2.867  0.00  0.00    +0.015 A 
ATOM     13  C   UNL     1      -5.136   4.045   2.597  0.00  0.00    +0.063 A 
BRANCH   8  15
ATOM     14  C   UNL     1      -7.851   5.588   4.536  0.00  0.00    +0.277 C 
ATOM     15  O   UNL     1      -7.091   5.158   3.405  0.00  0.00    -0.494 OA
ENDBRANCH   8  15
ENDBRANCH   1  13
BRANCH   7  16
ATOM     16  N   UNL     1      -3.636   3.213   0.055  0.00  0.00    -0.170 NA
ATOM     17  C   UNL     1      -2.518   3.872   0.048  0.00  0.00    +0.142 C 
BRANCH  17  18
ATOM     18  C   UNL     1      -1.234   3.146   0.031  0.00  0.00    +0.013 A 
ATOM     19  C   UNL     1      -0.029   3.853   0.024  0.00  0.00    +0.012 A 
ATOM     20  C   UNL     1       1.168   3.168   0.008  0.00  0.00    +0.021 A 
ATOM     21  C   UNL     1       1.178   1.783   0.000  0.00  0.00    +0.042 A 
ATOM     22  C   UNL     1      -0.013   1.076   0.008  0.00  0.00    +0.040 A 
ATOM     23  C   UNL     1      -1.218   1.748   0.017  0.00  0.00    +0.051 A 
ATOM     24 CL   UNL     1      -2.710   0.861   0.020  0.00  0.00    -0.083 Cl
ATOM     25 CL   UNL     1       2.689   0.930  -0.019  0.00  0.00    -0.083 Cl
ENDBRANCH  17  18
ENDBRANCH   7  16
TORSDOF 4
