REMARK  Name = ZINC05333384
REMARK  5 active torsions:
REMARK  status: ('A' for Active; 'I' for Inactive)
REMARK    1  A    between atoms: C_5  and  C_7
REMARK    2  A    between atoms: C_10  and  S_15
REMARK    3  A    between atoms: N_11  and  C_12
REMARK    4  A    between atoms: S_15  and  C_16
REMARK    5  A    between atoms: C_16  and  C_17
REMARK                            x       y       z     vdW  Elec       q    Type
REMARK                         _______ _______ _______ _____ _____    ______ ____
ROOT
ATOM      1  C   UNL     1       1.167   3.566   0.069  0.00  0.00    +0.168 A 
ATOM      2  N   UNL     1       0.109   4.338  -0.033  0.00  0.00    -0.128 NA
ATOM      3  N   UNL     1       0.468   5.571  -0.069  0.00  0.00    -0.122 NA
ATOM      4  C   UNL     1       1.776   5.663   0.009  0.00  0.00    +0.192 A 
ATOM      5  N   UNL     1       2.267   4.392   0.105  0.00  0.00    -0.299 N 
ENDROOT
BRANCH   1  10
ATOM      6  C   UNL     1       2.055  -0.023  -0.586  0.00  0.00    +0.001 A 
ATOM      7  C   UNL     1       1.188  -0.678   0.271  0.00  0.00    +0.003 A 
ATOM      8  C   UNL     1       0.312   0.043   1.062  0.00  0.00    +0.039 A 
ATOM      9  C   UNL     1       0.299   1.423   1.002  0.00  0.00    +0.134 A 
ATOM     10  C   UNL     1       1.174   2.090   0.139  0.00  0.00    +0.054 A 
ATOM     11  C   UNL     1       2.053   1.354  -0.656  0.00  0.00    +0.014 A 
ATOM     12  F   UNL     1      -0.557   2.127   1.776  0.00  0.00    -0.205 F 
ENDBRANCH   1  10
BRANCH   5  13
ATOM     13  C   UNL     1       3.671   3.991   0.220  0.00  0.00    +0.091 C 
ATOM     14  C   UNL     1       4.681   5.064   0.632  0.00  0.00    +0.027 C 
ATOM     15  C   UNL     1       4.652   4.552  -0.810  0.00  0.00    +0.027 C 
ENDBRANCH   5  13
BRANCH   4  16
ATOM     16  S   UNL     1       2.722   7.150  -0.002  0.00  0.00    -0.081 S 
BRANCH  16  17
ATOM     17  C   UNL     1       1.391   8.368  -0.142  0.00  0.00    +0.112 C 
BRANCH  17  18
ATOM     18  C   UNL     1       1.980   9.755  -0.170  0.00  0.00    -0.037 A 
ATOM     19  C   UNL     1       2.170  10.449   1.010  0.00  0.00    +0.006 A 
ATOM     20  C   UNL     1       2.716  11.719   0.986  0.00  0.00    +0.020 A 
ATOM     21  C   UNL     1       3.061  12.300  -0.222  0.00  0.00    +0.041 A 
ATOM     22  C   UNL     1       2.864  11.607  -1.403  0.00  0.00    +0.020 A 
ATOM     23  C   UNL     1       2.324  10.335  -1.377  0.00  0.00    +0.006 A 
ATOM     24 CL   UNL     1       3.740  13.897  -0.254  0.00  0.00    -0.084 Cl
ENDBRANCH  17  18
ENDBRANCH  16  17
ENDBRANCH   4  16
TORSDOF 5
