REMARK  Name = ZINC57801013
REMARK  6 active torsions:
REMARK  status: ('A' for Active; 'I' for Inactive)
REMARK    1  A    between atoms: C_4  and  S_7
REMARK    2  A    between atoms: S_7  and  N_10
REMARK    3  A    between atoms: N_10  and  C_11
REMARK    4  A    between atoms: C_11  and  C_12
REMARK    5  A    between atoms: C_12  and  N_13
REMARK    6  A    between atoms: C_17  and  C_19
REMARK                            x       y       z     vdW  Elec       q    Type
REMARK                         _______ _______ _______ _____ _____    ______ ____
ROOT
ATOM      1  N   UNL     1       3.553  -3.169   4.517  0.00  0.00    -0.292 NA
ATOM      2  C   UNL     1       2.424  -2.422   5.102  0.00  0.00    +0.085 C 
ATOM      3  C   UNL     1       2.535  -2.553   6.636  0.00  0.00    +0.017 C 
ATOM      4  C   UNL     1       3.390  -3.835   6.816  0.00  0.00    +0.027 C 
ATOM      5  C   UNL     1       4.365  -3.732   5.617  0.00  0.00    +0.113 C 
ENDROOT
BRANCH   5   6
ATOM      6  C   UNL     1       4.881  -5.097   5.242  0.00  0.00    +0.097 A 
ATOM      7  N   UNL     1       4.226  -6.071   4.680  0.00  0.00    -0.242 NA
ATOM      8  C   UNL     1       4.806  -7.255   4.392  0.00  0.00    +0.079 A 
ATOM      9  C   UNL     1       4.258  -8.408   3.792  0.00  0.00    +0.029 A 
ATOM     10  C   UNL     1       5.026  -9.514   3.589  0.00  0.00    +0.002 A 
ATOM     11  C   UNL     1       6.363  -9.549   3.961  0.00  0.00    +0.001 A 
ATOM     12  C   UNL     1       6.935  -8.438   4.552  0.00  0.00    +0.017 A 
ATOM     13  C   UNL     1       6.168  -7.317   4.761  0.00  0.00    +0.039 A 
ATOM     14  S   UNL     1       6.437  -5.705   5.450  0.00  0.00    -0.071 S 
ENDBRANCH   5   6
BRANCH   1  15
ATOM     15  C   UNL     1       4.365  -2.303   3.652  0.00  0.00    +0.102 C 
BRANCH  15  16
ATOM     16  C   UNL     1       3.567  -1.942   2.398  0.00  0.00    +0.121 C 
BRANCH  16  17
ATOM     17  N   UNL     1       4.378  -1.079   1.536  0.00  0.00    -0.189 NA
ATOM     18  H   UNL     1       5.174  -0.651   1.888  0.00  0.00    +0.148 HD
BRANCH  17  19
ATOM     19  S   UNL     1       3.934  -0.832  -0.041  0.00  0.00    +0.058 S 
ATOM     20  O   UNL     1       3.674  -2.114  -0.595  0.00  0.00    -0.153 OA
ATOM     21  O   UNL     1       4.890   0.060  -0.597  0.00  0.00    -0.153 OA
BRANCH  19  25
ATOM     22  C   UNL     1      -0.017   1.378   0.010  0.00  0.00    +0.000 A 
ATOM     23  C   UNL     1       1.171   2.086   0.002  0.00  0.00    +0.002 A 
ATOM     24  C   UNL     1       2.377   1.411  -0.013  0.00  0.00    +0.028 A 
ATOM     25  C   UNL     1       2.396   0.029  -0.020  0.00  0.00    +0.105 A 
ATOM     26  C   UNL     1       1.208  -0.679  -0.012  0.00  0.00    +0.028 A 
ATOM     27  C   UNL     1       0.002  -0.004   0.002  0.00  0.00    +0.002 A 
ENDBRANCH  19  25
ENDBRANCH  17  19
ENDBRANCH  16  17
ENDBRANCH  15  16
ENDBRANCH   1  15
TORSDOF 6
