REMARK  Name = ZINC39675341
REMARK  9 active torsions:
REMARK  status: ('A' for Active; 'I' for Inactive)
REMARK    1  A    between atoms: C_1  and  C_2
REMARK    2  A    between atoms: C_2  and  C_4
REMARK    3  A    between atoms: C_2  and  N_14
REMARK    4  A    between atoms: C_4  and  C_5
REMARK    5  A    between atoms: C_5  and  C_6
REMARK    6  A    between atoms: C_9  and  O_12
REMARK    7  A    between atoms: O_12  and  C_13
REMARK    8  A    between atoms: C_15  and  C_17
REMARK    9  A    between atoms: C_28  and  C_30
REMARK                            x       y       z     vdW  Elec       q    Type
REMARK                         _______ _______ _______ _____ _____    ______ ____
ROOT
ATOM      1  C   UNL     1       0.176  -1.013  -3.335  0.00  0.00    +0.100 C 
ATOM      2  C   UNL     1       0.999  -2.306  -3.144  0.00  0.00    +0.121 C 
ATOM      3  N   UNL     1       0.170  -3.372  -3.753  0.00  0.00    -0.296 N 
ATOM      4  C   UNL     1      -0.404  -2.744  -4.967  0.00  0.00    +0.115 C 
ATOM      5  C   UNL     1      -0.742  -1.303  -4.535  0.00  0.00    -0.004 C 
ATOM      6  C   UNL     1      -2.206  -1.209  -4.116  0.00  0.00    -0.010 C 
ATOM      7  C   UNL     1      -3.098  -1.445  -5.338  0.00  0.00    -0.082 C 
ATOM      8  N   UNL     1      -2.797  -0.443  -6.367  0.00  0.00    +0.379 N 
ATOM      9  C   UNL     1      -1.413  -0.601  -6.831  0.00  0.00    -0.082 C 
ATOM     10  C   UNL     1      -0.450  -0.329  -5.672  0.00  0.00    -0.010 C 
ATOM     11  C   UNL     1      -0.019  -4.629  -3.305  0.00  0.00    +0.249 C 
ATOM     12  O   UNL     1      -0.658  -5.421  -3.970  0.00  0.00    -0.270 OA
ATOM     13  H   UNL     1      -3.427  -0.562  -7.146  0.00  0.00    -0.086 HD
ATOM     14  H   UNL     1      -2.917   0.481  -5.980  0.00  0.00    -0.086 HD
ENDROOT
BRANCH  11  15
ATOM     15  C   UNL     1       0.549  -5.043  -2.006  0.00  0.00    +0.073 A 
ATOM     16  C   UNL     1       1.780  -4.536  -1.585  0.00  0.00    +0.016 A 
ATOM     17  C   UNL     1       2.305  -4.926  -0.372  0.00  0.00    +0.002 A 
ATOM     18  C   UNL     1       1.616  -5.820   0.431  0.00  0.00    +0.023 A 
ATOM     19  C   UNL     1       0.397  -6.328   0.023  0.00  0.00    +0.077 A 
ATOM     20  C   UNL     1      -0.146  -5.941  -1.190  0.00  0.00    +0.154 A 
ATOM     21  F   UNL     1      -1.340  -6.434  -1.587  0.00  0.00    -0.203 F 
ATOM     22 CL   UNL     1      -0.459  -7.447   1.038  0.00  0.00    -0.081 Cl
ENDBRANCH  11  15
BRANCH   1  24
ATOM     23  N   UNL     1      -0.984   0.542  -1.800  0.00  0.00    -0.312 N 
ATOM     24  C   UNL     1      -0.645  -0.726  -2.104  0.00  0.00    +0.218 C 
ATOM     25  O   UNL     1      -1.002  -1.637  -1.388  0.00  0.00    -0.275 OA
ATOM     26  H   UNL     1      -0.699   1.271  -2.373  0.00  0.00    +0.149 HD
BRANCH  23  28
ATOM     27  C   UNL     1      -3.267   0.659  -0.932  0.00  0.00    +0.028 C 
ATOM     28  C   UNL     1      -1.782   0.821  -0.604  0.00  0.00    +0.070 C 
BRANCH  28  29
ATOM     29  C   UNL     1      -1.516   2.253  -0.135  0.00  0.00    +0.026 C 
BRANCH  29  30
ATOM     30  C   UNL     1      -0.058   2.381   0.311  0.00  0.00    +0.037 C 
BRANCH  30  31
ATOM     31  C   UNL     1       0.203   3.792   0.773  0.00  0.00    -0.047 A 
ATOM     32  C   UNL     1       0.632   4.746  -0.132  0.00  0.00    +0.007 A 
ATOM     33  C   UNL     1       0.873   6.039   0.288  0.00  0.00    +0.046 A 
ATOM     34  C   UNL     1       0.684   6.381   1.619  0.00  0.00    +0.120 A 
ATOM     35  C   UNL     1       0.253   5.423   2.525  0.00  0.00    +0.046 A 
ATOM     36  C   UNL     1       0.008   4.132   2.099  0.00  0.00    +0.007 A 
BRANCH  34  37
ATOM     37  O   UNL     1       0.920   7.653   2.035  0.00  0.00    -0.495 OA
ATOM     38  C   UNL     1       0.704   7.934   3.420  0.00  0.00    +0.277 C 
ENDBRANCH  34  37
ENDBRANCH  30  31
ENDBRANCH  29  30
ENDBRANCH  28  29
ENDBRANCH  23  28
ENDBRANCH   1  24
TORSDOF 7
