REMARK  Name = ZINC43424977
REMARK  4 active torsions:
REMARK  status: ('A' for Active; 'I' for Inactive)
REMARK    1  A    between atoms: C_5  and  C_6
REMARK    2  A    between atoms: C_6  and  C_8
REMARK    3  A    between atoms: C_6  and  N_10
REMARK    4  A    between atoms: C_8  and  N_9
REMARK                            x       y       z     vdW  Elec       q    Type
REMARK                         _______ _______ _______ _____ _____    ______ ____
ROOT
ATOM      1  C   UNL     1      -1.208  -0.902   0.009  0.00  0.00    +0.106 C 
ENDROOT
BRANCH   1   2
ATOM      2  N   UNL     1      -0.918  -2.109   0.794  0.00  0.00    -0.287 NA
ATOM      3  C   UNL     1       0.370  -2.698   0.398  0.00  0.00    +0.113 C 
ATOM      4  C   UNL     1       0.615  -3.977   1.203  0.00  0.00    +0.175 C 
ATOM      5  O   UNL     1       0.558  -3.680   2.601  0.00  0.00    -0.374 OA
ATOM      6  C   UNL     1      -0.688  -3.113   3.011  0.00  0.00    +0.135 C 
ATOM      7  C   UNL     1      -0.929  -1.816   2.233  0.00  0.00    +0.086 C 
ATOM      8  C   UNL     1      -2.279  -1.227   2.641  0.00  0.00    +0.021 C 
ATOM      9  C   UNL     1      -2.264  -0.921   4.141  0.00  0.00    +0.002 C 
ATOM     10  C   UNL     1      -2.005  -2.207   4.926  0.00  0.00    +0.003 C 
ATOM     11  C   UNL     1      -0.659  -2.803   4.508  0.00  0.00    +0.033 C 
ENDBRANCH   1   2
BRANCH   1  16
ATOM     12  C   UNL     1      -0.437   1.444   0.605  0.00  0.00    +0.047 A 
ATOM     13  C   UNL     1       0.811   2.073   0.822  0.00  0.00    +0.057 A 
ATOM     14  C   UNL     1       1.757   1.131   0.651  0.00  0.00    +0.170 A 
ATOM     15  O   UNL     1       1.151  -0.028   0.344  0.00  0.00    -0.452 OA
ATOM     16  C   UNL     1      -0.179   0.156   0.315  0.00  0.00    +0.122 A 
ATOM     17 BR   UNL     1       3.622   1.394   0.814  0.00  0.00    -0.008 Br
ENDBRANCH   1  16
BRANCH   1  18
ATOM     18  C   UNL     1      -1.164  -1.240  -1.482  0.00  0.00    -0.059 C 
BRANCH  18  19
ATOM     19  N   UNL     1      -2.082  -2.354  -1.759  0.00  0.00    +0.379 N 
ATOM     20  H   UNL     1      -1.802  -3.161  -1.222  0.00  0.00    -0.090 HD
ATOM     21  H   UNL     1      -3.021  -2.088  -1.502  0.00  0.00    -0.090 HD
ATOM     22  H   UNL     1      -2.053  -2.577  -2.742  0.00  0.00    -0.090 HD
ENDBRANCH  18  19
ENDBRANCH   1  18
TORSDOF 4
