REMARK  Name = ZINC04986204
REMARK  6 active torsions:
REMARK  status: ('A' for Active; 'I' for Inactive)
REMARK    1  A    between atoms: C_4  and  C_7
REMARK    2  A    between atoms: C_9  and  C_12
REMARK    3  A    between atoms: C_12  and  S_13
REMARK    4  A    between atoms: S_13  and  C_14
REMARK    5  A    between atoms: C_17  and  C_20
REMARK    6  A    between atoms: N_18  and  N_19
REMARK                            x       y       z     vdW  Elec       q    Type
REMARK                         _______ _______ _______ _____ _____    ______ ____
ROOT
ATOM      1  C   UNL     1       1.905  -4.243  -0.095  0.00  0.00    +0.209 A 
ATOM      2  N   UNL     1       0.598  -4.186   0.032  0.00  0.00    -0.121 NA
ATOM      3  N   UNL     1       0.212  -2.961   0.075  0.00  0.00    -0.127 NA
ATOM      4  C   UNL     1       1.249  -2.161  -0.022  0.00  0.00    +0.184 A 
ATOM      5  N   UNL     1       2.364  -2.957  -0.139  0.00  0.00    -0.224 N 
ENDROOT
BRANCH   4   6
ATOM      6  C   UNL     1       1.222  -0.683  -0.013  0.00  0.00    +0.056 A 
ATOM      7  C   UNL     1       1.952   0.037  -0.959  0.00  0.00    +0.014 A 
ATOM      8  C   UNL     1       1.923   1.417  -0.946  0.00  0.00    +0.001 A 
ATOM      9  C   UNL     1       1.172   2.087   0.003  0.00  0.00    +0.003 A 
ATOM     10  C   UNL     1       0.444   1.382   0.944  0.00  0.00    +0.039 A 
ATOM     11  C   UNL     1       0.464  -0.000   0.943  0.00  0.00    +0.134 A 
ATOM     12  F   UNL     1      -0.247  -0.689   1.862  0.00  0.00    -0.205 F 
ENDBRANCH   4   6
BRANCH   5  13
ATOM     13  N   UNL     1       3.661  -2.548  -0.270  0.00  0.00    -0.295 N 
ATOM     14  H   UNL     1       4.100  -2.443   0.633  0.00  0.00    +0.163 HD
ATOM     15  H   UNL     1       4.184  -3.183  -0.854  0.00  0.00    +0.163 HD
ENDBRANCH   5  13
BRANCH   1  16
ATOM     16  S   UNL     1       2.882  -5.706  -0.196  0.00  0.00    -0.078 S 
BRANCH  16  17
ATOM     17  C   UNL     1       1.583  -6.960  -0.076  0.00  0.00    +0.133 C 
BRANCH  17  20
ATOM     18  C   UNL     1       3.129 -10.143   0.930  0.00  0.00    +0.109 A 
ATOM     19  N   UNL     1       2.581  -8.937   0.959  0.00  0.00    -0.243 NA
ATOM     20  C   UNL     1       2.203  -8.333  -0.142  0.00  0.00    +0.059 A 
ATOM     21  C   UNL     1       2.365  -8.950  -1.343  0.00  0.00    +0.071 A 
ATOM     22  S   UNL     1       3.120 -10.486  -0.825  0.00  0.00    -0.075 S 
BRANCH  18  26
ATOM     23  C   UNL     1       4.527 -12.550   4.139  0.00  0.00    +0.000 A 
ATOM     24  C   UNL     1       4.617 -13.015   2.839  0.00  0.00    +0.001 A 
ATOM     25  C   UNL     1       4.165 -12.238   1.792  0.00  0.00    +0.010 A 
ATOM     26  C   UNL     1       3.615 -10.981   2.047  0.00  0.00    +0.007 A 
ATOM     27  C   UNL     1       3.533 -10.515   3.360  0.00  0.00    +0.010 A 
ATOM     28  C   UNL     1       3.984 -11.304   4.398  0.00  0.00    +0.001 A 
ENDBRANCH  18  26
ENDBRANCH  17  20
ENDBRANCH  16  17
ENDBRANCH   1  16
TORSDOF 6
