REMARK  Name = ZINC12936315
REMARK  5 active torsions:
REMARK  status: ('A' for Active; 'I' for Inactive)
REMARK    1  A    between atoms: C_15  and  C_18
REMARK    2  A    between atoms: N_20  and  C_21
REMARK    3  A    between atoms: C_21  and  C_22
REMARK    4  A    between atoms: C_22  and  C_24
REMARK    5  A    between atoms: C_22  and  N_60
REMARK                            x       y       z     vdW  Elec       q    Type
REMARK                         _______ _______ _______ _____ _____    ______ ____
ROOT
ATOM      1  C   UNL     1       4.303  12.856   0.269  0.00  0.00    +0.001 A 
ATOM      2  C   UNL     1       4.316  14.106  -0.325  0.00  0.00    +0.002 A 
ATOM      3  C   UNL     1       4.820  14.247  -1.610  0.00  0.00    +0.030 A 
ATOM      4  C   UNL     1       5.297  13.153  -2.271  0.00  0.00    +0.123 A 
ATOM      5  C   UNL     1       5.292  11.874  -1.699  0.00  0.00    +0.043 A 
ATOM      6  C   UNL     1       4.783  11.751  -0.397  0.00  0.00    +0.013 A 
ATOM      7  C   UNL     1       5.860  10.861  -2.602  0.00  0.00    +0.152 C 
ATOM      8  N   UNL     1       6.277  11.220  -3.774  0.00  0.00    -0.113 NA
ATOM      9  S   UNL     1       6.009  12.869  -3.869  0.00  0.00    +0.101 S 
ATOM     10  O   UNL     1       7.276  13.513  -3.898  0.00  0.00    -0.146 OA
ATOM     11  O   UNL     1       4.996  13.088  -4.841  0.00  0.00    -0.146 OA
ATOM     12  N   UNL     1       5.942   9.543  -2.207  0.00  0.00    -0.313 N 
ATOM     13  C   UNL     1       6.981   8.661  -2.755  0.00  0.00    +0.107 C 
ATOM     14  C   UNL     1       6.312   7.409  -3.330  0.00  0.00    +0.031 C 
ATOM     15  C   UNL     1       5.441   6.760  -2.253  0.00  0.00    +0.078 C 
ATOM     16  C   UNL     1       4.345   7.738  -1.822  0.00  0.00    +0.031 C 
ATOM     17  C   UNL     1       4.992   8.994  -1.229  0.00  0.00    +0.107 C 
ENDROOT
BRANCH  15  18
ATOM     18  C   UNL     1       4.807   5.509  -2.805  0.00  0.00    +0.216 C 
ATOM     19  O   UNL     1       5.030   5.170  -3.948  0.00  0.00    -0.276 OA
ATOM     20  N   UNL     1       3.993   4.767  -2.029  0.00  0.00    -0.316 N 
ATOM     21  H   UNL     1       3.814   5.037  -1.115  0.00  0.00    +0.149 HD
BRANCH  20  22
ATOM     22  C   UNL     1       3.377   3.550  -2.566  0.00  0.00    +0.094 C 
BRANCH  22  23
ATOM     23  C   UNL     1       2.391   2.984  -1.543  0.00  0.00    -0.013 C 
BRANCH  23  28
ATOM     24  C   UNL     1       0.189   3.328  -0.562  0.00  0.00    -0.078 C 
ATOM     25  C   UNL     1      -0.571   4.551   0.009  0.00  0.00    -0.020 C 
ATOM     26  C   UNL     1       0.570   5.536   0.353  0.00  0.00    -0.020 C 
ATOM     27  C   UNL     1       1.760   5.094  -0.518  0.00  0.00    -0.078 C 
ATOM     28  N   UNL     1       1.284   3.961  -1.313  0.00  0.00    +0.386 N 
ATOM     29  H   UNL     1       0.936   4.295  -2.219  0.00  0.00    -0.081 HD
ENDBRANCH  23  28
BRANCH  23  30
ATOM     30  C   UNL     1       1.822   1.687  -2.059  0.00  0.00    -0.022 A 
ATOM     31  C   UNL     1       2.102   0.418  -1.672  0.00  0.00    +0.009 A 
ATOM     32  C   UNL     1       1.451  -0.631  -2.293  0.00  0.00    +0.008 A 
ATOM     33  C   UNL     1       0.551  -0.360  -3.271  0.00  0.00    +0.045 A 
ATOM     34  S   UNL     1       0.605   1.423  -3.338  0.00  0.00    -0.103 S 
ENDBRANCH  23  30
ENDBRANCH  22  23
ENDBRANCH  20  22
ENDBRANCH  15  18
TORSDOF 5
