REMARK  Name = ZINC36599219
REMARK  15 active torsions:
REMARK  status: ('A' for Active; 'I' for Inactive)
REMARK    1  A    between atoms: C_1  and  C_2
REMARK    2  A    between atoms: C_5  and  C_7
REMARK    3  A    between atoms: C_7  and  N_8
REMARK    4  A    between atoms: N_8  and  C_9
REMARK    5  A    between atoms: C_9  and  C_11
REMARK    6  A    between atoms: C_9  and  C_19
REMARK    7  A    between atoms: N_21  and  C_22
REMARK    8  A    between atoms: C_22  and  C_23
REMARK    9  A    between atoms: C_22  and  C_24
REMARK   10  A    between atoms: C_22  and  C_25
REMARK   11  A    between atoms: C_25  and  C_26
REMARK   12  A    between atoms: C_26  and  C_27
REMARK   13  A    between atoms: C_26  and  C_28
REMARK   14  A    between atoms: C_26  and  C_29
REMARK   15  A    between atoms: C_30  and  C_32
REMARK                            x       y       z     vdW  Elec       q    Type
REMARK                         _______ _______ _______ _____ _____    ______ ____
ROOT
ATOM      1  C   UNL     1       3.110  -3.022  -2.275  0.00  0.00    +0.196 C 
ENDROOT
BRANCH   1   2
ATOM      2  C   UNL     1       4.393  -3.589  -1.723  0.00  0.00    +0.018 A 
ATOM      3  C   UNL     1       4.614  -3.599  -0.358  0.00  0.00    +0.048 A 
ATOM      4  C   UNL     1       5.792  -4.119   0.148  0.00  0.00    +0.020 A 
ATOM      5  C   UNL     1       6.747  -4.630  -0.710  0.00  0.00    +0.003 A 
ATOM      6  C   UNL     1       6.527  -4.620  -2.075  0.00  0.00    +0.020 A 
ATOM      7  C   UNL     1       5.347  -4.105  -2.581  0.00  0.00    +0.048 A 
ATOM      8 CL   UNL     1       5.067  -4.101  -4.295  0.00  0.00    -0.083 Cl
ATOM      9 CL   UNL     1       3.414  -2.957   0.721  0.00  0.00    -0.083 Cl
ENDBRANCH   1   2
BRANCH   1  10
ATOM     10  C   UNL     1       2.811  -1.708  -1.602  0.00  0.00    +0.239 C 
ATOM     11  O   UNL     1       1.836  -1.599  -0.889  0.00  0.00    -0.273 OA
ATOM     12  N   UNL     1       3.628  -0.652  -1.791  0.00  0.00    -0.308 N 
ATOM     13  H   UNL     1       4.409  -0.739  -2.360  0.00  0.00    +0.149 HD
BRANCH  12  14
ATOM     14  C   UNL     1       3.338   0.625  -1.136  0.00  0.00    +0.030 C 
ATOM     15  C   UNL     1       2.060   1.223  -1.728  0.00  0.00    +0.031 C 
ATOM     16  C   UNL     1       3.146   0.398   0.365  0.00  0.00    +0.031 C 
BRANCH  14  17
ATOM     17  C   UNL     1       4.503   1.590  -1.361  0.00  0.00    +0.031 C 
BRANCH  17  18
ATOM     18  C   UNL     1       5.823   0.871  -1.075  0.00  0.00    -0.036 C 
ATOM     19  C   UNL     1       6.137  -0.094  -2.219  0.00  0.00    +0.010 C 
ATOM     20  C   UNL     1       6.949   1.900  -0.952  0.00  0.00    +0.010 C 
ATOM     21  C   UNL     1       5.704   0.088   0.234  0.00  0.00    +0.010 C 
ENDBRANCH  17  18
ENDBRANCH  14  17
ENDBRANCH  12  14
ENDBRANCH   1  10
BRANCH   1  22
ATOM     22  N   UNL     1       2.013  -3.960  -2.023  0.00  0.00    -0.275 N 
ATOM     23  C   UNL     1       0.948  -3.987  -2.848  0.00  0.00    +0.248 C 
ATOM     24  O   UNL     1       0.121  -4.872  -2.743  0.00  0.00    -0.270 OA
BRANCH  23  25
ATOM     25  C   UNL     1       0.784  -2.941  -3.879  0.00  0.00    +0.037 A 
ATOM     26  C   UNL     1       1.651  -1.848  -3.912  0.00  0.00    +0.013 A 
ATOM     27  C   UNL     1       1.493  -0.875  -4.878  0.00  0.00    +0.001 A 
ATOM     28  C   UNL     1       0.478  -0.981  -5.812  0.00  0.00    +0.000 A 
ATOM     29  C   UNL     1      -0.385  -2.062  -5.784  0.00  0.00    +0.001 A 
ATOM     30  C   UNL     1      -0.235  -3.045  -4.828  0.00  0.00    +0.013 A 
ENDBRANCH  23  25
BRANCH  22  31
ATOM     31  C   UNL     1       2.075  -4.869  -0.876  0.00  0.00    +0.183 C 
BRANCH  31  36
ATOM     32  C   UNL     1       3.181  -9.540  -2.426  0.00  0.00    +0.086 C 
ATOM     33  C   UNL     1       3.345  -8.128  -1.923  0.00  0.00    +0.102 A 
ATOM     34  C   UNL     1       4.513  -7.527  -1.634  0.00  0.00    +0.045 A 
ATOM     35  C   UNL     1       4.203  -6.218  -1.200  0.00  0.00    +0.046 A 
ATOM     36  C   UNL     1       2.864  -6.097  -1.250  0.00  0.00    +0.122 A 
ATOM     37  O   UNL     1       2.350  -7.256  -1.694  0.00  0.00    -0.463 OA
ENDBRANCH  31  36
ENDBRANCH  22  31
ENDBRANCH   1  22
TORSDOF 9
