REMARK  Name = ZINC39856313
REMARK  9 active torsions:
REMARK  status: ('A' for Active; 'I' for Inactive)
REMARK    1  A    between atoms: C_1  and  C_2
REMARK    2  A    between atoms: C_6  and  C_7
REMARK    3  A    between atoms: N_9  and  C_10
REMARK    4  A    between atoms: N_9  and  C_17
REMARK    5  A    between atoms: C_10  and  C_11
REMARK    6  A    between atoms: C_17  and  C_18
REMARK    7  A    between atoms: C_25  and  C_33
REMARK    8  A    between atoms: C_25  and  C_34
REMARK    9  A    between atoms: N_28  and  N_29
REMARK                            x       y       z     vdW  Elec       q    Type
REMARK                         _______ _______ _______ _____ _____    ______ ____
ROOT
ATOM      1  C   UNL     1       0.052   1.516   0.032  0.00  0.00    +0.048 C 
ATOM      2  C   UNL     1       0.093   0.010   0.017  0.00  0.00    +0.009 A 
ATOM      3  C   UNL     1       0.136  -0.819  -1.111  0.00  0.00    +0.042 A 
ATOM      4  C   UNL     1       0.161  -2.120  -0.666  0.00  0.00    +0.116 A 
ATOM      5  O   UNL     1       0.137  -2.100   0.664  0.00  0.00    -0.454 OA
ATOM      6  C   UNL     1       0.100  -0.821   1.102  0.00  0.00    +0.193 A 
ATOM      7  C   UNL     1       0.204  -3.304  -1.598  0.00  0.00    +0.081 C 
ATOM      8  C   UNL     1      -0.294  -2.880  -2.983  0.00  0.00    -0.023 C 
ATOM      9  C   UNL     1       0.473  -1.651  -3.480  0.00  0.00    +0.064 C 
ATOM     10  C   UNL     1       0.158  -0.486  -2.553  0.00  0.00    +0.071 C 
ATOM     11  N   UNL     1      -0.075   0.711  -2.994  0.00  0.00    -0.183 NA
ATOM     12  C   UNL     1      -0.089  -4.034  -3.967  0.00  0.00    +0.011 C 
ATOM     13  C   UNL     1      -1.785  -2.546  -2.902  0.00  0.00    +0.011 C 
ENDROOT
BRANCH  11  14
ATOM     14  N   UNL     1      -0.041   0.970  -4.371  0.00  0.00    -0.191 N 
ATOM     15  C   UNL     1      -0.283   2.213  -4.829  0.00  0.00    +0.317 C 
ATOM     16  O   UNL     1      -0.254   2.438  -6.024  0.00  0.00    -0.251 OA
ATOM     17  N   UNL     1      -0.558   3.209  -3.963  0.00  0.00    -0.312 N 
ATOM     18  H   UNL     1       0.157   0.253  -4.994  0.00  0.00    +0.179 HD
ATOM     19  H   UNL     1      -0.581   3.030  -3.010  0.00  0.00    +0.147 HD
ATOM     20  H   UNL     1      -0.732   4.105  -4.293  0.00  0.00    +0.147 HD
ENDBRANCH  11  14
BRANCH   6  21
ATOM     21  C   UNL     1       0.070  -0.397   2.507  0.00  0.00    +0.283 C 
ATOM     22  O   UNL     1       0.152   0.784   2.787  0.00  0.00    -0.267 OA
ATOM     23  N   UNL     1      -0.048  -1.316   3.486  0.00  0.00    -0.286 N 
BRANCH  23  24
ATOM     24  C   UNL     1      -0.194  -0.887   4.879  0.00  0.00    +0.143 C 
BRANCH  24  25
ATOM     25  C   UNL     1      -1.656  -0.721   5.204  0.00  0.00    -0.030 A 
ATOM     26  C   UNL     1      -2.276   0.498   5.000  0.00  0.00    +0.005 A 
ATOM     27  C   UNL     1      -3.617   0.649   5.298  0.00  0.00    +0.000 A 
ATOM     28  C   UNL     1      -4.339  -0.418   5.798  0.00  0.00    +0.000 A 
ATOM     29  C   UNL     1      -3.720  -1.637   6.001  0.00  0.00    +0.000 A 
ATOM     30  C   UNL     1      -2.380  -1.790   5.699  0.00  0.00    +0.005 A 
ENDBRANCH  24  25
ENDBRANCH  23  24
BRANCH  23  31
ATOM     31  C   UNL     1      -0.031  -2.743   3.157  0.00  0.00    +0.143 C 
BRANCH  31  32
ATOM     32  C   UNL     1       1.376  -3.269   3.272  0.00  0.00    -0.030 A 
ATOM     33  C   UNL     1       2.183  -3.338   2.152  0.00  0.00    +0.005 A 
ATOM     34  C   UNL     1       3.474  -3.820   2.258  0.00  0.00    +0.000 A 
ATOM     35  C   UNL     1       3.959  -4.232   3.485  0.00  0.00    +0.000 A 
ATOM     36  C   UNL     1       3.153  -4.162   4.606  0.00  0.00    +0.000 A 
ATOM     37  C   UNL     1       1.863  -3.676   4.500  0.00  0.00    +0.005 A 
ENDBRANCH  31  32
ENDBRANCH  23  31
ENDBRANCH   6  21
TORSDOF 6
