REMARK  Name = ZINC41653607
REMARK  11 active torsions:
REMARK  status: ('A' for Active; 'I' for Inactive)
REMARK    1  A    between atoms: C_1  and  C_2
REMARK    2  A    between atoms: N_7  and  C_9
REMARK    3  A    between atoms: C_9  and  C_11
REMARK    4  A    between atoms: C_9  and  C_12
REMARK    5  A    between atoms: C_12  and  N_13
REMARK    6  A    between atoms: C_14  and  C_16
REMARK    7  A    between atoms: N_18  and  C_19
REMARK    8  A    between atoms: C_24  and  O_25
REMARK    9  A    between atoms: O_25  and  C_26
REMARK   10  A    between atoms: C_26  and  C_27
REMARK   11  A    between atoms: C_26  and  C_28
REMARK                            x       y       z     vdW  Elec       q    Type
REMARK                         _______ _______ _______ _____ _____    ______ ____
ROOT
ATOM      1  N   UNL     1       2.091  -4.597   1.429  0.00  0.00    -0.309 N 
ATOM      2  C   UNL     1       2.014  -5.921   1.188  0.00  0.00    +0.299 C 
ATOM      3  O   UNL     1       1.392  -6.640   1.943  0.00  0.00    -0.265 OA
ATOM      4  H   UNL     1       2.588  -4.022   0.826  0.00  0.00    +0.149 HD
ENDROOT
BRANCH   2   5
ATOM      5  C   UNL     1       2.692  -6.503  -0.009  0.00  0.00    +0.303 C 
ATOM      6  O   UNL     1       3.313  -5.783  -0.764  0.00  0.00    -0.265 OA
ATOM      7  N   UNL     1       2.614  -7.826  -0.250  0.00  0.00    -0.275 N 
ATOM      8  H   UNL     1       2.179  -8.411   0.390  0.00  0.00    +0.155 HD
BRANCH   7   9
ATOM      9  C   UNL     1       3.160  -8.357  -1.424  0.00  0.00    +0.076 A 
ATOM     10  C   UNL     1       4.301  -7.792  -1.977  0.00  0.00    +0.027 A 
ATOM     11  C   UNL     1       4.838  -8.318  -3.136  0.00  0.00    +0.002 A 
ATOM     12  C   UNL     1       4.243  -9.406  -3.747  0.00  0.00    +0.004 A 
ATOM     13  C   UNL     1       3.107  -9.974  -3.202  0.00  0.00    +0.047 A 
ATOM     14  C   UNL     1       2.564  -9.457  -2.037  0.00  0.00    +0.142 A 
BRANCH  14  15
ATOM     15  O   UNL     1       1.450 -10.018  -1.497  0.00  0.00    -0.488 OA
BRANCH  15  16
ATOM     16  C   UNL     1       0.961 -11.212  -2.111  0.00  0.00    +0.167 C 
ATOM     17  C   UNL     1       0.159 -12.020  -1.089  0.00  0.00    +0.051 C 
ATOM     18  C   UNL     1       0.059 -10.845  -3.292  0.00  0.00    +0.051 C 
ENDBRANCH  15  16
ENDBRANCH  14  15
ENDBRANCH   7   9
ENDBRANCH   2   5
BRANCH   1  19
ATOM     19  C   UNL     1       1.426  -4.026   2.603  0.00  0.00    +0.089 C 
BRANCH  19  20
ATOM     20  C   UNL     1       1.560  -2.502   2.574  0.00  0.00    -0.054 C 
ATOM     21  C   UNL     1       0.760  -1.898   3.730  0.00  0.00    -0.012 C 
BRANCH  20  27
ATOM     22  C   UNL     1      -2.410  -2.157  -0.270  0.00  0.00    +0.005 C 
ATOM     23  C   UNL     1      -0.917  -1.837  -0.165  0.00  0.00    -0.031 C 
ATOM     24  C   UNL     1      -0.708  -0.327  -0.304  0.00  0.00    -0.001 C 
ATOM     25  C   UNL     1       0.779  -0.009  -0.120  0.00  0.00    -0.018 C 
ATOM     26  C   UNL     1       1.244  -0.537   1.239  0.00  0.00    -0.078 C 
ATOM     27  N   UNL     1       1.041  -1.989   1.299  0.00  0.00    +0.383 N 
ATOM     28  C   UNL     1      -0.390  -2.299   1.195  0.00  0.00    -0.075 C 
ATOM     29  H   UNL     1       1.535  -2.428   0.537  0.00  0.00    -0.081 HD
ENDBRANCH  20  27
ENDBRANCH  19  20
ENDBRANCH   1  19
TORSDOF 7
