REMARK  Name = ZINC39980718
REMARK  7 active torsions:
REMARK  status: ('A' for Active; 'I' for Inactive)
REMARK    1  A    between atoms: C_1  and  C_2
REMARK    2  A    between atoms: C_6  and  C_21
REMARK    3  A    between atoms: C_8  and  N_13
REMARK    4  A    between atoms: N_13  and  C_14
REMARK    5  A    between atoms: C_14  and  C_15
REMARK    6  A    between atoms: C_27  and  O_33
REMARK    7  A    between atoms: O_33  and  C_34
REMARK                            x       y       z     vdW  Elec       q    Type
REMARK                         _______ _______ _______ _____ _____    ______ ____
ROOT
ATOM      1  C   UNL     1       0.282   1.472  -0.211  0.00  0.00    +0.044 C 
ATOM      2  C   UNL     1       0.223  -0.033  -0.164  0.00  0.00    -0.046 C 
ATOM      3  C   UNL     1      -0.975  -0.664  -0.105  0.00  0.00    +0.047 C 
ATOM      4  C   UNL     1      -1.022  -2.087  -0.061  0.00  0.00    +0.119 C 
ATOM      5  N   UNL     1      -2.082  -2.866  -0.002  0.00  0.00    -0.265 NA
ATOM      6  C   UNL     1      -1.678  -4.275   0.027  0.00  0.00    +0.126 C 
ATOM      7  C   UNL     1      -0.140  -4.226  -0.026  0.00  0.00    +0.049 C 
ATOM      8  N   UNL     1       0.158  -2.784  -0.079  0.00  0.00    -0.304 N 
ATOM      9  C   UNL     1       1.355  -2.132  -0.139  0.00  0.00    +0.075 C 
ATOM     10  C   UNL     1       1.409  -0.786  -0.187  0.00  0.00    +0.019 C 
ENDROOT
BRANCH   6  11
ATOM     11  C   UNL     1      -2.236  -5.017  -1.189  0.00  0.00    +0.123 C 
ATOM     12  C   UNL     1      -3.744  -4.865  -1.175  0.00  0.00    -0.003 C 
ATOM     13  C   UNL     1      -4.487  -6.005  -1.147  0.00  0.00    -0.007 A 
ATOM     14  C   UNL     1      -5.950  -5.943  -1.133  0.00  0.00    +0.013 A 
ATOM     15  C   UNL     1      -6.657  -7.098  -1.106  0.00  0.00    +0.046 A 
ATOM     16  C   UNL     1      -6.016  -8.345  -1.091  0.00  0.00    +0.122 A 
ATOM     17  C   UNL     1      -4.643  -8.466  -1.104  0.00  0.00    +0.069 A 
ATOM     18  C   UNL     1      -3.831  -7.325  -1.132  0.00  0.00    +0.044 A 
ATOM     19  N   UNL     1      -2.502  -7.455  -1.143  0.00  0.00    -0.284 N 
ATOM     20  C   UNL     1      -1.678  -6.423  -1.170  0.00  0.00    +0.226 C 
ATOM     21  O   UNL     1      -0.475  -6.603  -1.181  0.00  0.00    -0.275 OA
ATOM     22  H   UNL     1      -2.124  -8.348  -1.131  0.00  0.00    +0.155 HD
BRANCH  16  23
ATOM     23  O   UNL     1      -6.771  -9.469  -1.064  0.00  0.00    -0.495 OA
ATOM     24  C   UNL     1      -8.190  -9.297  -1.052  0.00  0.00    +0.277 C 
ENDBRANCH  16  23
ENDBRANCH   6  11
BRANCH   7  25
ATOM     25  N   UNL     1       0.439  -4.832   1.180  0.00  0.00    +0.396 N 
ATOM     26  H   UNL     1       0.207  -4.268   1.984  0.00  0.00    -0.083 HD
ATOM     27  H   UNL     1       0.064  -5.761   1.302  0.00  0.00    -0.083 HD
BRANCH  25  28
ATOM     28  C   UNL     1       1.899  -4.907   1.039  0.00  0.00    -0.044 C 
BRANCH  28  29
ATOM     29  C   UNL     1       2.480  -5.652   2.213  0.00  0.00    -0.064 A 
ATOM     30  C   UNL     1       2.852  -4.963   3.352  0.00  0.00    +0.002 A 
ATOM     31  C   UNL     1       3.385  -5.647   4.429  0.00  0.00    +0.000 A 
ATOM     32  C   UNL     1       3.546  -7.018   4.367  0.00  0.00    +0.000 A 
ATOM     33  C   UNL     1       3.173  -7.707   3.228  0.00  0.00    +0.000 A 
ATOM     34  C   UNL     1       2.636  -7.024   2.152  0.00  0.00    +0.002 A 
ENDBRANCH  28  29
ENDBRANCH  25  28
ENDBRANCH   7  25
TORSDOF 5
