REMARK  Name = ZINC63140946
REMARK  5 active torsions:
REMARK  status: ('A' for Active; 'I' for Inactive)
REMARK    1  A    between atoms: C_1  and  C_2
REMARK    2  A    between atoms: C_2  and  O_3
REMARK    3  A    between atoms: O_3  and  C_4
REMARK    4  A    between atoms: C_9  and  C_10
REMARK    5  A    between atoms: N_29  and  C_32
REMARK                            x       y       z     vdW  Elec       q    Type
REMARK                         _______ _______ _______ _____ _____    ______ ____
ROOT
ATOM      1  C   UNL     1       2.055  -1.434   3.442  0.00  0.00    +0.137 C 
ATOM      2  C   UNL     1       3.465  -1.014   3.015  0.00  0.00    +0.131 C 
ATOM      3  C   UNL     1       4.346  -2.250   3.134  0.00  0.00    -0.034 C 
ATOM      4  C   UNL     1       4.905  -2.429   1.943  0.00  0.00    -0.001 A 
ATOM      5  C   UNL     1       5.898  -3.404   1.464  0.00  0.00    +0.010 A 
ATOM      6  C   UNL     1       6.247  -3.309   0.153  0.00  0.00    +0.001 A 
ATOM      7  C   UNL     1       5.714  -2.353  -0.717  0.00  0.00    +0.002 A 
ATOM      8  C   UNL     1       4.801  -1.415  -0.360  0.00  0.00    +0.026 A 
ATOM      9  C   UNL     1       4.359  -1.411   0.995  0.00  0.00    +0.043 A 
ATOM     10  N   UNL     1       3.512  -0.607   1.609  0.00  0.00    -0.375 N 
ATOM     11  C   UNL     1       4.417  -3.072   4.398  0.00  0.00    +0.065 C 
ATOM     12  C   UNL     1       2.964  -3.367   4.813  0.00  0.00    +0.167 C 
ATOM     13  N   UNL     1       2.170  -2.144   4.736  0.00  0.00    -0.279 N 
ATOM     14  C   UNL     1       1.534  -1.625   5.793  0.00  0.00    +0.234 C 
ATOM     15  O   UNL     1       0.916  -0.594   5.629  0.00  0.00    -0.274 OA
ATOM     16  C   UNL     1       1.529  -2.226   7.159  0.00  0.00    +0.204 C 
ATOM     17  N   UNL     1       2.296  -3.459   7.220  0.00  0.00    -0.288 N 
ATOM     18  C   UNL     1       2.945  -3.979   6.174  0.00  0.00    +0.237 C 
ATOM     19  O   UNL     1       3.554  -5.014   6.340  0.00  0.00    -0.274 OA
ATOM     20  H   UNL     1       3.005   0.118   1.211  0.00  0.00    +0.160 HD
ENDROOT
BRANCH  17  21
ATOM     21  C   UNL     1       2.363  -4.171   8.498  0.00  0.00    +0.077 C 
ATOM     22  C   UNL     1       0.951  -4.562   8.939  0.00  0.00    +0.022 C 
ATOM     23  C   UNL     1       1.035  -5.626  10.036  0.00  0.00    +0.002 C 
ATOM     24  C   UNL     1       2.080  -6.674   9.650  0.00  0.00    +0.000 C 
ATOM     25  C   UNL     1       3.265  -6.593  10.616  0.00  0.00    +0.000 C 
ATOM     26  C   UNL     1       4.123  -5.375  10.266  0.00  0.00    +0.000 C 
ATOM     27  C   UNL     1       3.428  -4.104  10.757  0.00  0.00    +0.002 C 
ATOM     28  C   UNL     1       2.994  -3.262   9.556  0.00  0.00    +0.022 C 
ENDBRANCH  17  21
BRANCH   1  34
ATOM     29  C   UNL     1       0.282  -2.003   1.763  0.00  0.00    +0.125 A 
ATOM     30  C   UNL     1      -0.260  -2.848   0.806  0.00  0.00    +0.046 A 
ATOM     31  C   UNL     1       0.371  -4.039   0.500  0.00  0.00    +0.004 A 
ATOM     32  C   UNL     1       1.542  -4.388   1.147  0.00  0.00    +0.001 A 
ATOM     33  C   UNL     1       2.084  -3.547   2.101  0.00  0.00    +0.009 A 
ATOM     34  C   UNL     1       1.460  -2.353   2.406  0.00  0.00    +0.017 A 
BRANCH  29  35
ATOM     35  O   UNL     1      -0.336  -0.831   2.065  0.00  0.00    -0.492 OA
BRANCH  35  37
ATOM     36  C   UNL     1      -2.091   0.814   1.833  0.00  0.00    +0.048 C 
ATOM     37  C   UNL     1      -1.545  -0.536   1.363  0.00  0.00    +0.225 C 
ENDBRANCH  35  37
ENDBRANCH  29  35
ENDBRANCH   1  34
TORSDOF 4
