REMARK  Name = ZINC48701574
REMARK  5 active torsions:
REMARK  status: ('A' for Active; 'I' for Inactive)
REMARK    1  A    between atoms: C_9  and  N_11
REMARK    2  A    between atoms: C_12  and  C_14
REMARK    3  A    between atoms: N_16  and  C_17
REMARK    4  A    between atoms: C_17  and  C_18
REMARK    5  A    between atoms: C_18  and  C_19
REMARK                            x       y       z     vdW  Elec       q    Type
REMARK                         _______ _______ _______ _____ _____    ______ ____
ROOT
ATOM      1  C   UNL     1       0.068  -4.260   0.193  0.00  0.00    +0.299 C 
ATOM      2  O   UNL     1       1.125  -4.856   0.179  0.00  0.00    -0.265 OA
ATOM      3  N   UNL     1      -1.089  -4.942   0.302  0.00  0.00    -0.308 N 
ATOM      4  H   UNL     1      -1.934  -4.466   0.313  0.00  0.00    +0.149 HD
ENDROOT
BRANCH   1   6
ATOM      5  N   UNL     1       1.207  -2.088  -0.021  0.00  0.00    -0.277 N 
ATOM      6  C   UNL     1       0.050  -2.770   0.088  0.00  0.00    +0.303 C 
ATOM      7  O   UNL     1      -1.008  -2.174   0.102  0.00  0.00    -0.265 OA
ATOM      8  H   UNL     1       2.046  -2.567  -0.112  0.00  0.00    +0.155 HD
BRANCH   5  17
ATOM      9  C   UNL     1       0.154   1.381   0.637  0.00  0.00    +0.002 A 
ATOM     10  C   UNL     1       1.148   2.108   0.055  0.00  0.00    +0.010 A 
ATOM     11  C   UNL     1       2.212   1.451  -0.582  0.00  0.00    +0.002 A 
ATOM     12  C   UNL     1       3.261   2.155  -1.197  0.00  0.00    +0.119 A 
ATOM     13  N   UNL     1       4.235   1.499  -1.781  0.00  0.00    -0.263 NA
ATOM     14  C   UNL     1       4.284   0.175  -1.823  0.00  0.00    +0.111 A 
ATOM     15  C   UNL     1       3.316  -0.599  -1.257  0.00  0.00    +0.030 A 
ATOM     16  C   UNL     1       2.239   0.033  -0.612  0.00  0.00    +0.006 A 
ATOM     17  C   UNL     1       1.198  -0.694  -0.002  0.00  0.00    +0.042 A 
ATOM     18  C   UNL     1       0.170  -0.010   0.614  0.00  0.00    +0.024 A 
ENDBRANCH   5  17
ENDBRANCH   1   6
BRANCH   3  19
ATOM     19  C   UNL     1      -1.071  -6.403   0.405  0.00  0.00    +0.105 C 
BRANCH  19  20
ATOM     20  C   UNL     1      -2.505  -6.925   0.517  0.00  0.00    +0.025 C 
BRANCH  20  21
ATOM     21  C   UNL     1      -2.485  -8.451   0.624  0.00  0.00    -0.027 C 
ATOM     22  C   UNL     1      -1.824  -9.041  -0.623  0.00  0.00    +0.010 C 
ATOM     23  C   UNL     1      -1.805 -10.567  -0.516  0.00  0.00    -0.010 C 
ATOM     24  C   UNL     1      -3.239 -11.089  -0.404  0.00  0.00    +0.007 C 
ATOM     25  C   UNL     1      -3.900 -10.498   0.843  0.00  0.00    -0.010 C 
ATOM     26  C   UNL     1      -3.920  -8.972   0.736  0.00  0.00    +0.010 C 
ATOM     27  C   UNL     1      -3.108 -10.913   2.085  0.00  0.00    +0.007 C 
ATOM     28  C   UNL     1      -1.674 -10.391   1.973  0.00  0.00    -0.010 C 
ATOM     29  C   UNL     1      -1.013 -10.982   0.726  0.00  0.00    +0.007 C 
ATOM     30  C   UNL     1      -1.693  -8.865   1.866  0.00  0.00    +0.010 C 
ENDBRANCH  20  21
ENDBRANCH  19  20
ENDBRANCH   3  19
TORSDOF 5
