REMARK  Name = ZINC65266446
REMARK  5 active torsions:
REMARK  status: ('A' for Active; 'I' for Inactive)
REMARK    1  A    between atoms: C_1  and  C_2
REMARK    2  A    between atoms: C_2  and  C_3
REMARK    3  A    between atoms: C_2  and  C_4
REMARK    4  A    between atoms: C_2  and  N_5
REMARK    5  A    between atoms: C_20  and  C_22
REMARK                            x       y       z     vdW  Elec       q    Type
REMARK                         _______ _______ _______ _____ _____    ______ ____
ROOT
ATOM      1  N   UNL     1       0.720  -0.443  -1.210  0.00  0.00    -0.370 N 
ATOM      2  C   UNL     1       1.968  -0.144  -1.374  0.00  0.00    +0.099 C 
ATOM      3  N   UNL     1       2.701   0.495  -0.387  0.00  0.00    -0.286 N 
ATOM      4  C   UNL     1       3.651   1.442  -0.791  0.00  0.00    +0.145 A 
ATOM      5  C   UNL     1       4.030   1.532  -2.131  0.00  0.00    +0.069 A 
ATOM      6  C   UNL     1       4.983   2.467  -2.507  0.00  0.00    +0.028 A 
ATOM      7  C   UNL     1       5.521   3.290  -1.525  0.00  0.00    +0.022 A 
ATOM      8  C   UNL     1       5.094   3.151  -0.220  0.00  0.00    +0.113 A 
ATOM      9  N   UNL     1       4.189   2.250   0.110  0.00  0.00    -0.238 NA
ATOM     10  N   UNL     1       3.446   0.699  -3.097  0.00  0.00    -0.328 N 
ATOM     11  C   UNL     1       2.701  -0.478  -2.646  0.00  0.00    +0.103 C 
ATOM     12  C   UNL     1       3.632  -1.687  -2.438  0.00  0.00    +0.054 C 
ATOM     13  C   UNL     1       3.719  -2.302  -3.853  0.00  0.00    +0.111 C 
ATOM     14  N   UNL     1       2.547  -1.831  -4.607  0.00  0.00    -0.295 N 
ATOM     15  C   UNL     1       1.728  -0.975  -3.727  0.00  0.00    +0.141 C 
ATOM     16  C   UNL     1       2.268  -2.131  -5.891  0.00  0.00    +0.253 C 
ATOM     17  O   UNL     1       1.266  -1.683  -6.417  0.00  0.00    -0.269 OA
ATOM     18  H   UNL     1       0.208  -0.811  -1.946  0.00  0.00    +0.161 HD
ATOM     19  H   UNL     1       3.536   0.896  -4.043  0.00  0.00    +0.147 HD
ATOM     20  H   UNL     1       2.561   0.294   0.551  0.00  0.00    +0.155 HD
ENDROOT
BRANCH  16  21
ATOM     21  C   UNL     1       3.170  -2.997  -6.654  0.00  0.00    +0.075 A 
ATOM     22  C   UNL     1       3.071  -3.419  -7.971  0.00  0.00    +0.022 A 
ATOM     23  C   UNL     1       4.081  -4.237  -8.415  0.00  0.00    +0.028 A 
ATOM     24  C   UNL     1       5.083  -4.570  -7.560  0.00  0.00    +0.079 A 
ATOM     25  S   UNL     1       4.686  -3.777  -6.133  0.00  0.00    -0.072 S 
ATOM     26 CL   UNL     1       6.461  -5.578  -7.872  0.00  0.00    -0.076 Cl
ENDBRANCH  16  21
BRANCH   1  28
ATOM     27  C   UNL     1       0.259   1.237   0.508  0.00  0.00    +0.033 C 
ATOM     28  C   UNL     1       0.080  -0.224   0.090  0.00  0.00    +0.031 C 
ATOM     29  C   UNL     1       0.725  -1.136   1.136  0.00  0.00    +0.033 C 
ATOM     30  C   UNL     1      -1.412  -0.546  -0.016  0.00  0.00    +0.033 C 
ENDBRANCH   1  28
TORSDOF 2
