REMARK  Name = ZINC35484284
REMARK  18 active torsions:
REMARK  status: ('A' for Active; 'I' for Inactive)
REMARK    1  A    between atoms: C_1  and  C_2
REMARK    2  A    between atoms: C_2  and  C_3
REMARK    3  A    between atoms: C_3  and  C_4
REMARK    4  A    between atoms: C_4  and  O_5
REMARK    5  A    between atoms: O_5  and  C_6
REMARK    6  A    between atoms: C_9  and  C_15
REMARK    7  A    between atoms: C_11  and  O_12
REMARK    8  A    between atoms: O_12  and  C_13
REMARK    9  A    between atoms: C_13  and  C_14
REMARK   10  A    between atoms: C_17  and  C_18
REMARK   11  A    between atoms: C_18  and  C_19
REMARK   12  A    between atoms: C_20  and  C_29
REMARK   13  A    between atoms: C_25  and  C_28
REMARK   14  A    between atoms: N_35  and  C_36
REMARK   15  A    between atoms: C_36  and  C_37
REMARK   16  A    between atoms: C_37  and  C_38
REMARK   17  A    between atoms: C_38  and  O_39
REMARK   18  A    between atoms: O_39  and  C_40
REMARK                            x       y       z     vdW  Elec       q    Type
REMARK                         _______ _______ _______ _____ _____    ______ ____
ROOT
ATOM      1  C   UNL     1       1.925  -7.767  -3.224  0.00  0.00    +0.145 C 
ATOM      2  C   UNL     1       0.623  -8.390  -3.668  0.00  0.00    +0.078 C 
ATOM      3  C   UNL     1       0.339  -9.375  -2.784  0.00  0.00    +0.249 C 
ATOM      4  O   UNL     1      -0.748 -10.179  -2.828  0.00  0.00    -0.282 OA
ATOM      5  C   UNL     1       1.406  -9.432  -1.763  0.00  0.00    +0.288 C 
ATOM      6  O   UNL     1       1.439 -10.213  -0.832  0.00  0.00    -0.266 OA
ATOM      7  N   UNL     1       2.336  -8.493  -2.017  0.00  0.00    -0.283 N 
ENDROOT
BRANCH   1  11
ATOM      8  C   UNL     1       1.339  -3.629  -2.316  0.00  0.00    +0.162 A 
ATOM      9  C   UNL     1       0.824  -4.605  -1.478  0.00  0.00    +0.050 A 
ATOM     10  C   UNL     1       1.015  -5.942  -1.774  0.00  0.00    +0.009 A 
ATOM     11  C   UNL     1       1.720  -6.308  -2.906  0.00  0.00    -0.019 A 
ATOM     12  C   UNL     1       2.236  -5.340  -3.746  0.00  0.00    +0.055 A 
ATOM     13  C   UNL     1       2.043  -3.998  -3.458  0.00  0.00    +0.162 A 
BRANCH   8  14
ATOM     14  O   UNL     1       1.151  -2.314  -2.026  0.00  0.00    -0.488 OA
BRANCH  14  15
ATOM     15  C   UNL     1       0.419  -2.009  -0.837  0.00  0.00    +0.229 C 
BRANCH  15  16
ATOM     16  C   UNL     1       0.311  -0.491  -0.679  0.00  0.00    +0.041 C 
BRANCH  16  18
ATOM     17  C   UNL     1      -0.581   1.353   0.751  0.00  0.00    +0.004 C 
ATOM     18  C   UNL     1      -0.473  -0.165   0.593  0.00  0.00    -0.000 C 
ENDBRANCH  16  18
ENDBRANCH  15  16
ENDBRANCH  14  15
ENDBRANCH   8  14
BRANCH  13  19
ATOM     19  O   UNL     1       2.545  -3.044  -4.287  0.00  0.00    -0.489 OA
BRANCH  19  20
ATOM     20  C   UNL     1       3.164  -3.493  -5.494  0.00  0.00    +0.226 C 
ATOM     21  C   UNL     1       3.766  -2.297  -6.234  0.00  0.00    +0.048 C 
ENDBRANCH  19  20
ENDBRANCH  13  19
ENDBRANCH   1  11
BRANCH   2  22
ATOM     22  C   UNL     1      -0.179  -8.004  -4.833  0.00  0.00    +0.215 C 
ATOM     23  O   UNL     1       0.268  -7.215  -5.645  0.00  0.00    -0.285 OA
BRANCH  22  24
ATOM     24  C   UNL     1      -1.529  -8.571  -5.021  0.00  0.00    +0.133 A 
ATOM     25  C   UNL     1      -2.329  -8.408  -6.131  0.00  0.00    +0.051 A 
ATOM     26  N   UNL     1      -3.481  -9.094  -5.893  0.00  0.00    -0.303 N 
ATOM     27  C   UNL     1      -4.612  -9.275  -6.639  0.00  0.00    +0.093 A 
ATOM     28  C   UNL     1      -5.636 -10.015  -6.166  0.00  0.00    +0.018 A 
ATOM     29  C   UNL     1      -5.553 -10.612  -4.896  0.00  0.00    +0.008 A 
ATOM     30  C   UNL     1      -4.435 -10.441  -4.143  0.00  0.00    -0.008 A 
ATOM     31  C   UNL     1      -3.371  -9.664  -4.649  0.00  0.00    +0.141 A 
ATOM     32  N   UNL     1      -2.191  -9.345  -4.142  0.00  0.00    -0.224 NA
ATOM     33  C   UNL     1      -4.332 -11.075  -2.779  0.00  0.00    +0.047 C 
ATOM     34  C   UNL     1      -1.994  -7.619  -7.371  0.00  0.00    +0.066 C 
ENDBRANCH  22  24
ENDBRANCH   2  22
BRANCH   7  35
ATOM     35  C   UNL     1       3.544  -8.241  -1.227  0.00  0.00    +0.111 C 
BRANCH  35  36
ATOM     36  C   UNL     1       3.235  -7.212  -0.138  0.00  0.00    +0.047 C 
BRANCH  36  37
ATOM     37  C   UNL     1       4.497  -6.948   0.686  0.00  0.00    +0.161 C 
BRANCH  37  38
ATOM     38  O   UNL     1       4.209  -5.987   1.704  0.00  0.00    -0.383 OA
ATOM     39  C   UNL     1       5.326  -5.668   2.535  0.00  0.00    +0.193 C 
ENDBRANCH  37  38
ENDBRANCH  36  37
ENDBRANCH  35  36
ENDBRANCH   7  35
TORSDOF 13
