REMARK  Name = ZINC02148216
REMARK  11 active torsions:
REMARK  status: ('A' for Active; 'I' for Inactive)
REMARK    1  A    between atoms: C_1  and  C_2
REMARK    2  A    between atoms: C_2  and  C_4
REMARK    3  A    between atoms: C_2  and  N_13
REMARK    4  A    between atoms: N_6  and  N_7
REMARK    5  A    between atoms: C_8  and  C_9
REMARK    6  A    between atoms: C_9  and  C_10
REMARK    7  A    between atoms: C_9  and  C_11
REMARK    8  A    between atoms: C_9  and  C_12
REMARK    9  A    between atoms: C_15  and  C_18
REMARK   10  A    between atoms: C_20  and  C_28
REMARK   11  A    between atoms: C_22  and  C_24
REMARK                            x       y       z     vdW  Elec       q    Type
REMARK                         _______ _______ _______ _____ _____    ______ ____
ROOT
ATOM      1  N   UNL     1      -6.207   2.901   1.720  0.00  0.00    -0.151 N 
ATOM      2  N   UNL     1      -5.015   2.599   1.333  0.00  0.00    -0.130 NA
ATOM      3  C   UNL     1      -4.203   2.772   2.357  0.00  0.00    +0.205 A 
ATOM      4  N   UNL     1      -4.958   3.202   3.378  0.00  0.00    -0.108 NA
ATOM      5  N   UNL     1      -6.175   3.269   2.953  0.00  0.00    -0.045 NA
ENDROOT
BRANCH   3   6
ATOM      6  C   UNL     1      -2.737   2.543   2.375  0.00  0.00    +0.024 A 
ATOM      7  C   UNL     1      -2.006   2.777   3.538  0.00  0.00    +0.024 A 
ATOM      8  C   UNL     1      -0.643   2.561   3.548  0.00  0.00    +0.056 A 
ATOM      9  C   UNL     1      -0.002   2.114   2.407  0.00  0.00    +0.024 A 
ATOM     10  C   UNL     1      -0.722   1.881   1.250  0.00  0.00    +0.056 A 
ATOM     11  C   UNL     1      -2.085   2.098   1.227  0.00  0.00    +0.024 A 
BRANCH  10  12
ATOM     12  C   UNL     1      -0.017   1.395   0.010  0.00  0.00    +0.417 C 
ATOM     13  F   UNL     1       0.002  -0.004   0.002  0.00  0.00    -0.166 F 
ATOM     14  F   UNL     1       1.296   1.879  -0.000  0.00  0.00    -0.166 F 
ATOM     15  F   UNL     1      -0.694   1.858  -1.124  0.00  0.00    -0.166 F 
ENDBRANCH  10  12
BRANCH   8  16
ATOM     16  C   UNL     1       0.149   2.814   4.805  0.00  0.00    +0.417 C 
ATOM     17  F   UNL     1       0.593   4.141   4.818  0.00  0.00    -0.166 F 
ATOM     18  F   UNL     1      -0.663   2.584   5.922  0.00  0.00    -0.166 F 
ATOM     19  F   UNL     1       1.250   1.953   4.844  0.00  0.00    -0.166 F 
ENDBRANCH   8  16
ENDBRANCH   3   6
BRANCH   1  21
ATOM     20  C   UNL     1      -8.415   1.870   1.508  0.00  0.00    +0.044 C 
ATOM     21  C   UNL     1      -7.409   2.841   0.885  0.00  0.00    +0.214 C 
BRANCH  21  22
ATOM     22  C   UNL     1      -8.026   4.213   0.793  0.00  0.00    +0.258 C 
ATOM     23  O   UNL     1      -7.513   5.149   1.369  0.00  0.00    -0.272 OA
ATOM     24  N   UNL     1      -9.149   4.399   0.072  0.00  0.00    -0.205 N 
ATOM     25  H   UNL     1      -9.560   3.651  -0.389  0.00  0.00    +0.177 HD
BRANCH  24  26
ATOM     26  N   UNL     1      -9.723   5.675  -0.014  0.00  0.00    -0.192 NA
ATOM     27  C   UNL     1     -10.790   5.852  -0.699  0.00  0.00    +0.109 C 
BRANCH  27  28
ATOM     28  C   UNL     1     -11.407   7.224  -0.790  0.00  0.00    -0.001 C 
ATOM     29  C   UNL     1     -10.569   8.215   0.019  0.00  0.00    +0.016 C 
ATOM     30  C   UNL     1     -11.448   7.668  -2.254  0.00  0.00    +0.016 C 
ATOM     31  C   UNL     1     -12.830   7.182  -0.230  0.00  0.00    +0.016 C 
ENDBRANCH  27  28
ENDBRANCH  24  26
ENDBRANCH  21  22
ENDBRANCH   1  21
TORSDOF 7
