REMARK  Name = ZINC63196948
REMARK  6 active torsions:
REMARK  status: ('A' for Active; 'I' for Inactive)
REMARK    1  A    between atoms: C_1  and  C_2
REMARK    2  A    between atoms: C_2  and  C_4
REMARK    3  A    between atoms: C_2  and  N_23
REMARK    4  A    between atoms: N_10  and  C_11
REMARK    5  A    between atoms: C_14  and  S_17
REMARK    6  A    between atoms: S_17  and  C_20
REMARK                            x       y       z     vdW  Elec       q    Type
REMARK                         _______ _______ _______ _____ _____    ______ ____
ROOT
ATOM      1  C   UNL     1       0.654  -0.634   1.288  0.00  0.00    +0.059 C 
ATOM      2  C   UNL     1       2.128  -0.222   1.355  0.00  0.00    +0.021 C 
ATOM      3  C   UNL     1       2.809  -0.963   2.508  0.00  0.00    +0.003 C 
ATOM      4  C   UNL     1       2.740  -2.472   2.259  0.00  0.00    +0.019 C 
ATOM      5  C   UNL     1       1.273  -2.909   2.202  0.00  0.00    +0.105 C 
ATOM      6  N   UNL     1       0.573  -2.098   1.196  0.00  0.00    -0.328 N 
ENDROOT
BRANCH   6   7
ATOM      7  C   UNL     1      -0.152  -2.707   0.169  0.00  0.00    +0.030 A 
ATOM      8  C   UNL     1       0.500  -3.495  -0.771  0.00  0.00    +0.025 A 
ATOM      9  C   UNL     1      -0.220  -4.096  -1.785  0.00  0.00    +0.029 A 
ATOM     10  C   UNL     1      -1.588  -3.914  -1.865  0.00  0.00    +0.095 A 
ATOM     11  C   UNL     1      -2.240  -3.130  -0.931  0.00  0.00    +0.029 A 
ATOM     12  C   UNL     1      -1.527  -2.531   0.088  0.00  0.00    +0.025 A 
BRANCH  10  13
ATOM     13  S   UNL     1      -2.503  -4.682  -3.161  0.00  0.00    +0.058 S 
ATOM     14  O   UNL     1      -3.647  -3.858  -3.335  0.00  0.00    -0.164 OA
ATOM     15  O   UNL     1      -1.565  -4.853  -4.215  0.00  0.00    -0.164 OA
BRANCH  13  16
ATOM     16  C   UNL     1      -2.992  -6.296  -2.493  0.00  0.00    +0.485 C 
ATOM     17  F   UNL     1      -1.848  -7.030  -2.162  0.00  0.00    -0.183 F 
ATOM     18  F   UNL     1      -3.774  -6.110  -1.348  0.00  0.00    -0.183 F 
ENDBRANCH  13  16
ENDBRANCH  10  13
ENDBRANCH   6   7
BRANCH   1  20
ATOM     19  C   UNL     1       0.802  -0.381  -1.193  0.00  0.00    -0.012 C 
ATOM     20  C   UNL     1       0.002  -0.005   0.055  0.00  0.00    -0.058 C 
BRANCH  20  21
ATOM     21  N   UNL     1      -0.017   1.456   0.203  0.00  0.00    +0.381 N 
ATOM     22  H   UNL     1      -0.525   1.865  -0.567  0.00  0.00    -0.090 HD
ATOM     23  H   UNL     1      -0.469   1.701   1.071  0.00  0.00    -0.090 HD
ATOM     24  H   UNL     1       0.929   1.806   0.206  0.00  0.00    -0.090 HD
ENDBRANCH  20  21
ENDBRANCH   1  20
TORSDOF 5
