REMARK  Name = ZINC13739089
REMARK  7 active torsions:
REMARK  status: ('A' for Active; 'I' for Inactive)
REMARK    1  A    between atoms: C_1  and  C_2
REMARK    2  A    between atoms: C_2  and  C_23
REMARK    3  A    between atoms: N_3  and  N_4
REMARK    4  A    between atoms: C_5  and  C_7
REMARK    5  A    between atoms: C_7  and  C_8
REMARK    6  A    between atoms: C_14  and  C_16
REMARK    7  A    between atoms: C_16  and  C_17
REMARK                            x       y       z     vdW  Elec       q    Type
REMARK                         _______ _______ _______ _____ _____    ______ ____
ROOT
ATOM      1  C   UNL     1      -0.957  -6.431  -0.026  0.00  0.00    +0.129 C 
ENDROOT
BRANCH   1   2
ATOM      2  C   UNL     1      -2.389  -6.969  -0.015  0.00  0.00    +0.168 C 
ATOM      3  C   UNL     1      -2.370  -8.474  -0.148  0.00  0.00    +0.253 C 
ATOM      4  O   UNL     1      -2.389  -8.995  -1.244  0.00  0.00    -0.272 OA
ATOM      5  N   UNL     1      -2.334  -9.231   0.968  0.00  0.00    -0.204 N 
ATOM      6  N   UNL     1      -2.412  -8.642   2.233  0.00  0.00    -0.169 NA
ATOM      7  C   UNL     1      -2.737  -7.399   2.376  0.00  0.00    +0.118 C 
ATOM      8  N   UNL     1      -3.037  -6.632   1.261  0.00  0.00    -0.319 N 
ATOM      9  H   UNL     1      -2.253 -10.195   0.892  0.00  0.00    +0.177 HD
ATOM     10  H   UNL     1      -3.659  -5.890   1.322  0.00  0.00    +0.148 HD
BRANCH   7  11
ATOM     11  C   UNL     1      -2.791  -6.786   3.751  0.00  0.00    +0.108 C 
BRANCH  11  12
ATOM     12  C   UNL     1      -2.425  -7.825   4.779  0.00  0.00    -0.040 A 
ATOM     13  C   UNL     1      -3.410  -8.611   5.349  0.00  0.00    +0.004 A 
ATOM     14  C   UNL     1      -3.074  -9.567   6.289  0.00  0.00    +0.000 A 
ATOM     15  C   UNL     1      -1.754  -9.732   6.666  0.00  0.00    +0.000 A 
ATOM     16  C   UNL     1      -0.770  -8.943   6.100  0.00  0.00    +0.000 A 
ATOM     17  C   UNL     1      -1.106  -7.990   5.157  0.00  0.00    +0.004 A 
ENDBRANCH  11  12
ENDBRANCH   7  11
ENDBRANCH   1   2
BRANCH   1  19
ATOM     18  N   UNL     1       0.168  -4.228  -0.024  0.00  0.00    -0.207 N 
ATOM     19  C   UNL     1      -0.986  -4.924  -0.017  0.00  0.00    +0.234 C 
ATOM     20  O   UNL     1      -2.048  -4.338  -0.004  0.00  0.00    -0.274 OA
ATOM     21  H   UNL     1       1.017  -4.697  -0.034  0.00  0.00    +0.177 HD
BRANCH  18  24
ATOM     22  C   UNL     1       2.572  -2.885  -0.038  0.00  0.00    +0.068 C 
ATOM     23  C   UNL     1       1.252  -2.157  -0.022  0.00  0.00    +0.065 C 
ATOM     24  N   UNL     1       0.141  -2.827  -0.015  0.00  0.00    -0.185 NA
BRANCH  23  25
ATOM     25  C   UNL     1       1.224  -0.683  -0.013  0.00  0.00    +0.016 A 
ATOM     26  C   UNL     1       2.418   0.042  -0.021  0.00  0.00    +0.012 A 
ATOM     27  C   UNL     1       2.385   1.421  -0.013  0.00  0.00    +0.021 A 
ATOM     28  C   UNL     1       1.171   2.087   0.002  0.00  0.00    +0.042 A 
ATOM     29  C   UNL     1      -0.017   1.376   0.010  0.00  0.00    +0.040 A 
ATOM     30  C   UNL     1       0.002  -0.004   0.002  0.00  0.00    +0.051 A 
ATOM     31 CL   UNL     1      -1.488  -0.895   0.011  0.00  0.00    -0.083 Cl
ATOM     32 CL   UNL     1       1.139   3.823   0.011  0.00  0.00    -0.083 Cl
ENDBRANCH  23  25
ENDBRANCH  18  24
ENDBRANCH   1  19
TORSDOF 6
