REMARK  Name = ZINC03196064
REMARK  4 active torsions:
REMARK  status: ('A' for Active; 'I' for Inactive)
REMARK    1  A    between atoms: N_9  and  C_10
REMARK    2  A    between atoms: C_11  and  C_19
REMARK    3  A    between atoms: N_23  and  C_24
REMARK    4  A    between atoms: C_24  and  N_56
REMARK                            x       y       z     vdW  Elec       q    Type
REMARK                         _______ _______ _______ _____ _____    ______ ____
ROOT
ATOM      1  C   UNL     1       2.382   1.404  -0.017  0.00  0.00    +0.017 A 
ATOM      2  C   UNL     1       2.410   0.023  -0.003  0.00  0.00    +0.025 A 
ATOM      3  C   UNL     1       1.222  -0.699   0.008  0.00  0.00    +0.044 A 
ATOM      4  C   UNL     1       0.003  -0.006   0.004  0.00  0.00    +0.028 A 
ATOM      5  C   UNL     1      -0.015   1.386  -0.011  0.00  0.00    +0.027 A 
ATOM      6  C   UNL     1       1.176   2.086  -0.023  0.00  0.00    +0.019 A 
ATOM      7 BR   UNL     1       1.160   3.976  -0.044  0.00  0.00    -0.050 Br
ATOM      8  C   UNL     1      -1.061  -1.031   0.019  0.00  0.00    +0.136 C 
ATOM      9  N   UNL     1      -2.365  -0.835   0.020  0.00  0.00    -0.234 NA
ATOM     10  C   UNL     1      -0.345  -2.326   0.031  0.00  0.00    +0.268 C 
ATOM     11  O   UNL     1      -0.859  -3.428   0.045  0.00  0.00    -0.268 OA
ATOM     12  N   UNL     1       0.974  -2.068   0.024  0.00  0.00    -0.282 N 
ENDROOT
BRANCH   9  13
ATOM     13  C   UNL     1      -3.199  -1.877  -0.079  0.00  0.00    +0.120 A 
ATOM     14  C   UNL     1      -3.673  -2.528  -1.232  0.00  0.00    +0.088 A 
ATOM     15  C   UNL     1      -4.543  -3.610  -1.078  0.00  0.00    -0.018 A 
ATOM     16  C   UNL     1      -4.883  -3.954   0.197  0.00  0.00    -0.004 A 
ATOM     17  S   UNL     1      -4.006  -2.801   1.219  0.00  0.00    -0.073 S 
ATOM     18  C   UNL     1      -5.795  -5.060   0.627  0.00  0.00    +0.043 C 
ATOM     19  C   UNL     1      -6.592  -5.532  -0.598  0.00  0.00    +0.005 C 
ATOM     20  C   UNL     1      -5.624  -5.740  -1.765  0.00  0.00    +0.005 C 
ATOM     21  C   UNL     1      -5.109  -4.389  -2.264  0.00  0.00    +0.037 C 
BRANCH  14  22
ATOM     22  C   UNL     1      -3.270  -2.092  -2.535  0.00  0.00    +0.102 C 
ATOM     23  N   UNL     1      -2.950  -1.747  -3.569  0.00  0.00    -0.191 NA
ENDBRANCH  14  22
ENDBRANCH   9  13
BRANCH  12  24
ATOM     24  C   UNL     1       2.016  -3.097   0.032  0.00  0.00    +0.039 C 
BRANCH  24  31
ATOM     25  C   UNL     1       1.321  -4.325  -1.947  0.00  0.00    -0.077 C 
ATOM     26  C   UNL     1       1.752  -4.938  -3.252  0.00  0.00    -0.019 C 
ATOM     27  C   UNL     1       2.355  -6.329  -2.964  0.00  0.00    -0.002 C 
ATOM     28  C   UNL     1       3.722  -6.243  -2.461  0.00  0.00    -0.002 C 
ATOM     29  C   UNL     1       3.806  -5.467  -1.130  0.00  0.00    -0.019 C 
ATOM     30  C   UNL     1       3.736  -3.994  -1.431  0.00  0.00    -0.077 C 
ATOM     31  N   UNL     1       2.357  -3.403  -1.366  0.00  0.00    +0.390 N 
ATOM     32  H   UNL     1       2.352  -2.530  -1.907  0.00  0.00    -0.080 HD
ENDBRANCH  24  31
ENDBRANCH  12  24
TORSDOF 4
