REMARK  Name = ZINC04843003
REMARK  6 active torsions:
REMARK  status: ('A' for Active; 'I' for Inactive)
REMARK    1  A    between atoms: C_4  and  O_7
REMARK    2  A    between atoms: O_7  and  C_8
REMARK    3  A    between atoms: C_8  and  C_9
REMARK    4  A    between atoms: C_9  and  N_10
REMARK    5  A    between atoms: C_17  and  C_20
REMARK    6  A    between atoms: C_17  and  O_30
REMARK                            x       y       z     vdW  Elec       q    Type
REMARK                         _______ _______ _______ _____ _____    ______ ____
ROOT
ATOM      1  N   UNL     1       0.702  -3.614  -0.657  0.00  0.00    -0.265 N 
ATOM      2  C   UNL     1       0.757  -3.627   0.738  0.00  0.00    +0.043 A 
ATOM      3  C   UNL     1       0.203  -4.509   1.663  0.00  0.00    +0.024 A 
ATOM      4  C   UNL     1       0.400  -4.310   3.014  0.00  0.00    +0.002 A 
ATOM      5  C   UNL     1       1.147  -3.235   3.460  0.00  0.00    +0.000 A 
ATOM      6  C   UNL     1       1.700  -2.354   2.547  0.00  0.00    +0.009 A 
ATOM      7  C   UNL     1       1.505  -2.551   1.199  0.00  0.00    +0.019 A 
ATOM      8  C   UNL     1       1.961  -1.794  -0.027  0.00  0.00    +0.196 C 
ATOM      9  C   UNL     1       1.378  -2.579  -1.183  0.00  0.00    +0.261 C 
ATOM     10  O   UNL     1       1.498  -2.322  -2.362  0.00  0.00    -0.271 OA
ENDROOT
BRANCH   8  11
ATOM     11  C   UNL     1       1.415  -0.390  -0.013  0.00  0.00    +0.022 A 
ATOM     12  C   UNL     1       2.132   0.746  -0.014  0.00  0.00    +0.091 A 
ATOM     13  N   UNL     1       1.293   1.827  -0.001  0.00  0.00    -0.360 N 
ATOM     14  H   UNL     1       1.579   2.754   0.002  0.00  0.00    +0.165 HD
ATOM     15  C   UNL     1      -0.017   1.403   0.010  0.00  0.00    +0.047 A 
ATOM     16  C   UNL     1       0.002  -0.004   0.002  0.00  0.00    +0.006 A 
ATOM     17  C   UNL     1      -1.198  -0.717   0.010  0.00  0.00    +0.010 A 
ATOM     18  C   UNL     1      -2.387  -0.043   0.025  0.00  0.00    +0.001 A 
ATOM     19  C   UNL     1      -2.411   1.344   0.033  0.00  0.00    +0.002 A 
ATOM     20  C   UNL     1      -1.238   2.068   0.030  0.00  0.00    +0.026 A 
ENDBRANCH   8  11
BRANCH   8  21
ATOM     21  O   UNL     1       3.388  -1.774  -0.101  0.00  0.00    -0.371 OA
ATOM     22  H   UNL     1       3.735  -1.326  -0.884  0.00  0.00    +0.212 HD
ENDBRANCH   8  21
BRANCH   1  23
ATOM     23  C   UNL     1      -0.011  -4.615  -1.455  0.00  0.00    +0.154 C 
BRANCH  23  24
ATOM     24  C   UNL     1      -1.453  -4.156  -1.679  0.00  0.00    +0.248 C 
BRANCH  24  25
ATOM     25  O   UNL     1      -1.457  -2.967  -2.471  0.00  0.00    -0.490 OA
BRANCH  25  29
ATOM     26  C   UNL     1      -5.134  -1.321  -3.359  0.00  0.00    +0.000 A 
ATOM     27  C   UNL     1      -3.979  -0.721  -3.825  0.00  0.00    +0.004 A 
ATOM     28  C   UNL     1      -2.747  -1.270  -3.529  0.00  0.00    +0.045 A 
ATOM     29  C   UNL     1      -2.668  -2.425  -2.764  0.00  0.00    +0.121 A 
ATOM     30  C   UNL     1      -3.829  -3.028  -2.302  0.00  0.00    +0.045 A 
ATOM     31  C   UNL     1      -5.059  -2.471  -2.595  0.00  0.00    +0.004 A 
ENDBRANCH  25  29
ENDBRANCH  24  25
ENDBRANCH  23  24
ENDBRANCH   1  23
TORSDOF 6
