REMARK  Name = ZINC54200677
REMARK  10 active torsions:
REMARK  status: ('A' for Active; 'I' for Inactive)
REMARK    1  A    between atoms: C_1  and  C_2
REMARK    2  A    between atoms: C_3  and  N_15
REMARK    3  A    between atoms: N_6  and  C_9
REMARK    4  A    between atoms: N_7  and  C_8
REMARK    5  A    between atoms: C_16  and  C_18
REMARK    6  A    between atoms: C_18  and  C_20
REMARK    7  A    between atoms: C_18  and  N_27
REMARK    8  A    between atoms: C_20  and  C_21
REMARK    9  A    between atoms: N_27  and  S_28
REMARK   10  A    between atoms: S_28  and  C_31
REMARK                            x       y       z     vdW  Elec       q    Type
REMARK                         _______ _______ _______ _____ _____    ______ ____
ROOT
ATOM      1  C   UNL     1       0.268   0.055  -4.752  0.00  0.00    +0.167 C 
ENDROOT
BRANCH   1   3
ATOM      2  N   UNL     1      -0.039   0.089  -2.297  0.00  0.00    -0.278 N 
ATOM      3  C   UNL     1       0.234  -0.625  -3.407  0.00  0.00    +0.236 C 
ATOM      4  O   UNL     1       0.452  -1.816  -3.324  0.00  0.00    -0.274 OA
ATOM      5  H   UNL     1      -0.143   1.052  -2.354  0.00  0.00    +0.155 HD
BRANCH   2   8
ATOM      6  C   UNL     1      -2.544   0.201  -0.529  0.00  0.00    +0.067 C 
ATOM      7  C   UNL     1      -1.259  -0.537  -0.250  0.00  0.00    +0.059 A 
ATOM      8  C   UNL     1      -0.174  -0.563  -1.056  0.00  0.00    +0.121 A 
ATOM      9  C   UNL     1       0.835  -1.394  -0.398  0.00  0.00    +0.293 A 
ATOM     10  O   UNL     1       1.948  -1.653  -0.819  0.00  0.00    -0.264 OA
ATOM     11  N   UNL     1       0.296  -1.819   0.764  0.00  0.00    -0.216 N 
ATOM     12  N   UNL     1      -0.995  -1.289   0.864  0.00  0.00    -0.282 N 
ATOM     13  C   UNL     1      -1.918  -1.505   1.981  0.00  0.00    +0.171 C 
BRANCH  11  14
ATOM     14  C   UNL     1       0.921  -2.642   1.707  0.00  0.00    +0.067 A 
ATOM     15  C   UNL     1       0.258  -3.754   2.209  0.00  0.00    +0.028 A 
ATOM     16  C   UNL     1       0.878  -4.564   3.140  0.00  0.00    +0.002 A 
ATOM     17  C   UNL     1       2.158  -4.269   3.572  0.00  0.00    +0.000 A 
ATOM     18  C   UNL     1       2.821  -3.162   3.074  0.00  0.00    +0.002 A 
ATOM     19  C   UNL     1       2.209  -2.352   2.139  0.00  0.00    +0.028 A 
ENDBRANCH  11  14
ENDBRANCH   2   8
ENDBRANCH   1   3
BRANCH   1  20
ATOM     20  N   UNL     1       0.584  -0.930  -5.790  0.00  0.00    -0.178 NA
ATOM     21  H   UNL     1       1.508  -1.142  -5.991  0.00  0.00    +0.149 HD
BRANCH  20  22
ATOM     22  S   UNL     1      -0.638  -1.680  -6.618  0.00  0.00    +0.059 S 
ATOM     23  O   UNL     1      -0.018  -2.513  -7.589  0.00  0.00    -0.153 OA
ATOM     24  O   UNL     1      -1.539  -2.187  -5.643  0.00  0.00    -0.153 OA
BRANCH  22  25
ATOM     25  C   UNL     1      -1.507  -0.432  -7.508  0.00  0.00    +0.105 A 
ATOM     26  C   UNL     1      -2.511   0.287  -6.886  0.00  0.00    +0.030 A 
ATOM     27  C   UNL     1      -3.194   1.266  -7.583  0.00  0.00    +0.022 A 
ATOM     28  C   UNL     1      -2.872   1.526  -8.903  0.00  0.00    +0.041 A 
ATOM     29  C   UNL     1      -1.867   0.807  -9.525  0.00  0.00    +0.022 A 
ATOM     30  C   UNL     1      -1.182  -0.168  -8.825  0.00  0.00    +0.030 A 
ATOM     31 CL   UNL     1      -3.729   2.756  -9.779  0.00  0.00    -0.084 Cl
ENDBRANCH  22  25
ENDBRANCH  20  22
ENDBRANCH   1  20
BRANCH   1  32
ATOM     32  C   UNL     1       1.338   1.148  -4.743  0.00  0.00    +0.065 C 
BRANCH  32  33
ATOM     33  C   UNL     1       1.336   1.863  -6.070  0.00  0.00    -0.045 A 
ATOM     34  C   UNL     1       2.078   1.366  -7.125  0.00  0.00    +0.004 A 
ATOM     35  C   UNL     1       2.076   2.022  -8.341  0.00  0.00    +0.000 A 
ATOM     36  C   UNL     1       1.332   3.175  -8.504  0.00  0.00    +0.000 A 
ATOM     37  C   UNL     1       0.589   3.672  -7.449  0.00  0.00    +0.000 A 
ATOM     38  C   UNL     1       0.587   3.014  -6.234  0.00  0.00    +0.004 A 
ENDBRANCH  32  33
ENDBRANCH   1  32
TORSDOF 8
