REMARK  Name = ZINC36648969
REMARK  13 active torsions:
REMARK  status: ('A' for Active; 'I' for Inactive)
REMARK    1  A    between atoms: C_1  and  C_2
REMARK    2  A    between atoms: C_2  and  N_3
REMARK    3  A    between atoms: N_3  and  C_4
REMARK    4  A    between atoms: N_3  and  C_6
REMARK    5  A    between atoms: C_4  and  C_5
REMARK    6  A    between atoms: C_6  and  C_7
REMARK    7  A    between atoms: C_7  and  N_8
REMARK    8  A    between atoms: N_17  and  C_18
REMARK    9  A    between atoms: C_18  and  C_20
REMARK   10  A    between atoms: C_20  and  C_21
REMARK   11  A    between atoms: C_21  and  N_22
REMARK   12  A    between atoms: N_22  and  S_23
REMARK   13  A    between atoms: S_23  and  C_26
REMARK                            x       y       z     vdW  Elec       q    Type
REMARK                         _______ _______ _______ _____ _____    ______ ____
ROOT
ATOM      1  N   UNL     1      -1.449  -3.761  -1.659  0.00  0.00    -0.314 N 
ATOM      2  C   UNL     1      -1.579  -4.443  -2.864  0.00  0.00    +0.068 A 
ATOM      3  C   UNL     1      -1.509  -4.044  -4.191  0.00  0.00    +0.028 A 
ATOM      4  C   UNL     1      -1.684  -4.971  -5.198  0.00  0.00    +0.002 A 
ATOM      5  C   UNL     1      -1.929  -6.299  -4.890  0.00  0.00    +0.002 A 
ATOM      6  C   UNL     1      -2.001  -6.707  -3.574  0.00  0.00    +0.028 A 
ATOM      7  C   UNL     1      -1.826  -5.782  -2.553  0.00  0.00    +0.066 A 
ATOM      8  N   UNL     1      -1.841  -5.885  -1.166  0.00  0.00    -0.326 N 
ATOM      9  C   UNL     1      -1.605  -4.652  -0.645  0.00  0.00    +0.201 A 
ATOM     10  N   UNL     1      -1.541  -4.363   0.652  0.00  0.00    -0.147 NA
ATOM     11  H   UNL     1      -1.990  -6.698  -0.658  0.00  0.00    +0.169 HD
ENDROOT
BRANCH  10  12
ATOM     12  C   UNL     1      -1.591  -5.339   1.554  0.00  0.00    +0.240 C 
ATOM     13  O   UNL     1      -1.601  -6.500   1.193  0.00  0.00    -0.274 OA
BRANCH  12  14
ATOM     14  C   UNL     1      -1.635  -5.006   3.023  0.00  0.00    +0.115 C 
BRANCH  14  15
ATOM     15  C   UNL     1      -1.689  -6.300   3.838  0.00  0.00    +0.115 C 
BRANCH  15  16
ATOM     16  N   UNL     1      -1.732  -5.976   5.266  0.00  0.00    -0.189 NA
ATOM     17  H   UNL     1      -1.507  -5.082   5.567  0.00  0.00    +0.148 HD
BRANCH  16  18
ATOM     18  S   UNL     1      -2.164  -7.136   6.365  0.00  0.00    +0.058 S 
ATOM     19  O   UNL     1      -2.085  -6.530   7.648  0.00  0.00    -0.153 OA
ATOM     20  O   UNL     1      -3.357  -7.734   5.877  0.00  0.00    -0.153 OA
BRANCH  18  21
ATOM     21  C   UNL     1      -0.921  -8.384   6.321  0.00  0.00    +0.105 A 
ATOM     22  C   UNL     1      -1.042  -9.450   5.449  0.00  0.00    +0.028 A 
ATOM     23  C   UNL     1      -0.066 -10.429   5.414  0.00  0.00    +0.002 A 
ATOM     24  C   UNL     1       1.030 -10.342   6.251  0.00  0.00    +0.000 A 
ATOM     25  C   UNL     1       1.151  -9.277   7.123  0.00  0.00    +0.002 A 
ATOM     26  C   UNL     1       0.178  -8.295   7.155  0.00  0.00    +0.028 A 
ENDBRANCH  18  21
ENDBRANCH  16  18
ENDBRANCH  15  16
ENDBRANCH  14  15
ENDBRANCH  12  14
ENDBRANCH  10  12
BRANCH   1  27
ATOM     27  C   UNL     1      -1.183  -2.328  -1.508  0.00  0.00    +0.106 C 
BRANCH  27  28
ATOM     28  C   UNL     1       0.328  -2.091  -1.467  0.00  0.00    -0.057 C 
BRANCH  28  29
ATOM     29  N   UNL     1       0.594  -0.654  -1.316  0.00  0.00    +0.380 N 
ATOM     30  H   UNL     1       0.127  -0.146  -2.052  0.00  0.00    -0.082 HD
BRANCH  29  32
ATOM     31  C   UNL     1       0.242   1.322   0.087  0.00  0.00    -0.017 C 
ATOM     32  C   UNL     1       0.093  -0.198  -0.013  0.00  0.00    -0.082 C 
ENDBRANCH  29  32
BRANCH  29  33
ATOM     33  C   UNL     1       2.041  -0.413  -1.396  0.00  0.00    -0.082 C 
ATOM     34  C   UNL     1       2.537  -0.755  -2.803  0.00  0.00    -0.017 C 
ENDBRANCH  29  33
ENDBRANCH  28  29
ENDBRANCH  27  28
ENDBRANCH   1  27
TORSDOF 11
