REMARK  Name = ZINC14462856
REMARK  10 active torsions:
REMARK  status: ('A' for Active; 'I' for Inactive)
REMARK    1  A    between atoms: C_1  and  C_2
REMARK    2  A    between atoms: C_2  and  C_3
REMARK    3  A    between atoms: C_2  and  C_4
REMARK    4  A    between atoms: C_7  and  C_10
REMARK    5  A    between atoms: C_21  and  S_26
REMARK    6  A    between atoms: S_26  and  N_29
REMARK    7  A    between atoms: N_29  and  C_30
REMARK    8  A    between atoms: C_30  and  C_31
REMARK    9  A    between atoms: C_30  and  C_32
REMARK   10  A    between atoms: C_30  and  C_33
REMARK                            x       y       z     vdW  Elec       q    Type
REMARK                         _______ _______ _______ _____ _____    ______ ____
ROOT
ATOM      1  C   UNL     1      -2.645  -0.138  -1.099  0.00  0.00    +0.105 C 
ATOM      2  C   UNL     1      -3.301   1.246  -1.117  0.00  0.00    +0.029 C 
ATOM      3  C   UNL     1      -4.183   1.323  -2.398  0.00  0.00    +0.033 C 
ATOM      4  C   UNL     1      -3.190   1.682  -3.486  0.00  0.00    -0.030 C 
ATOM      5  C   UNL     1      -2.122   2.238  -2.968  0.00  0.00    -0.023 C 
ATOM      6  C   UNL     1      -2.253   2.320  -1.466  0.00  0.00    +0.049 C 
ATOM      7  C   UNL     1      -0.938   2.093  -0.790  0.00  0.00    -0.018 A 
ATOM      8  C   UNL     1       0.007   3.110  -0.812  0.00  0.00    +0.034 A 
ATOM      9  C   UNL     1       1.233   2.941  -0.202  0.00  0.00    +0.106 A 
ATOM     10  C   UNL     1       1.536   1.754   0.440  0.00  0.00    +0.030 A 
ATOM     11  C   UNL     1       0.604   0.736   0.469  0.00  0.00    +0.025 A 
ATOM     12  C   UNL     1      -0.628   0.903  -0.150  0.00  0.00    +0.031 A 
ATOM     13  N   UNL     1      -1.562  -0.138  -0.110  0.00  0.00    -0.336 N 
ATOM     14  H   UNL     1      -1.494  -0.843   0.552  0.00  0.00    +0.147 HD
ENDROOT
BRANCH   1  18
ATOM     15  C   UNL     1      -5.550  -3.085  -0.039  0.00  0.00    -0.045 A 
ATOM     16  C   UNL     1      -5.206  -2.899  -1.365  0.00  0.00    +0.004 A 
ATOM     17  C   UNL     1      -4.266  -1.945  -1.708  0.00  0.00    +0.006 A 
ATOM     18  C   UNL     1      -3.670  -1.177  -0.725  0.00  0.00    -0.027 A 
ATOM     19  C   UNL     1      -4.010  -1.367   0.601  0.00  0.00    +0.006 A 
ATOM     20  C   UNL     1      -4.954  -2.317   0.944  0.00  0.00    +0.004 A 
BRANCH  15  22
ATOM     21  C   UNL     1      -5.941  -5.153   1.272  0.00  0.00    +0.012 C 
ATOM     22  C   UNL     1      -6.576  -4.124   0.335  0.00  0.00    +0.013 C 
ATOM     23  C   UNL     1      -7.752  -3.448   1.042  0.00  0.00    +0.012 C 
ENDBRANCH  15  22
ENDBRANCH   1  18
BRANCH   9  24
ATOM     24  S   UNL     1       2.419   4.244  -0.241  0.00  0.00    +0.059 S 
ATOM     25  O   UNL     1       1.694   5.458  -0.099  0.00  0.00    -0.153 OA
ATOM     26  O   UNL     1       3.462   3.871   0.648  0.00  0.00    -0.153 OA
BRANCH  24  27
ATOM     27  N   UNL     1       3.077   4.261  -1.761  0.00  0.00    -0.185 NA
ATOM     28  H   UNL     1       2.916   5.014  -2.351  0.00  0.00    +0.149 HD
BRANCH  27  29
ATOM     29  C   UNL     1       3.903   3.139  -2.214  0.00  0.00    +0.032 C 
ATOM     30  C   UNL     1       3.094   1.843  -2.130  0.00  0.00    +0.029 C 
ATOM     31  C   UNL     1       4.336   3.377  -3.662  0.00  0.00    +0.029 C 
ATOM     32  C   UNL     1       5.142   3.025  -1.324  0.00  0.00    +0.029 C 
ENDBRANCH  27  29
ENDBRANCH  24  27
ENDBRANCH   9  24
TORSDOF 5
