REMARK  Name = ZINC59289338
REMARK  9 active torsions:
REMARK  status: ('A' for Active; 'I' for Inactive)
REMARK    1  A    between atoms: C_1  and  C_2
REMARK    2  A    between atoms: C_3  and  C_13
REMARK    3  A    between atoms: C_6  and  O_11
REMARK    4  A    between atoms: O_11  and  C_12
REMARK    5  A    between atoms: N_15  and  C_16
REMARK    6  A    between atoms: C_16  and  C_18
REMARK    7  A    between atoms: C_16  and  C_28
REMARK    8  A    between atoms: C_28  and  C_29
REMARK    9  A    between atoms: C_28  and  C_30
REMARK                            x       y       z     vdW  Elec       q    Type
REMARK                         _______ _______ _______ _____ _____    ______ ____
ROOT
ATOM      1  C   UNL     1      -2.507  -0.371   0.012  0.00  0.00    +0.249 C 
ATOM      2  O   UNL     1      -3.094  -0.187  -1.038  0.00  0.00    -0.270 OA
ATOM      3  N   UNL     1      -3.146  -0.180   1.184  0.00  0.00    -0.301 N 
ATOM      4  H   UNL     1      -2.678  -0.326   2.021  0.00  0.00    +0.150 HD
ENDROOT
BRANCH   1   7
ATOM      5  C   UNL     1      -0.018   1.503   0.010  0.00  0.00    +0.087 C 
ATOM      6  C   UNL     1       0.002  -0.004   0.002  0.00  0.00    +0.115 A 
ATOM      7  C   UNL     1      -1.101  -0.801   0.003  0.00  0.00    +0.085 A 
ATOM      8  C   UNL     1      -0.593  -2.188  -0.008  0.00  0.00    +0.036 A 
ATOM      9  C   UNL     1      -1.195  -3.441  -0.012  0.00  0.00    +0.058 A 
ATOM     10  C   UNL     1      -0.407  -4.577  -0.022  0.00  0.00    +0.121 A 
ATOM     11  C   UNL     1       0.979  -4.465  -0.028  0.00  0.00    +0.049 A 
ATOM     12  C   UNL     1       1.582  -3.225  -0.024  0.00  0.00    +0.050 A 
ATOM     13  C   UNL     1       0.805  -2.073  -0.014  0.00  0.00    +0.136 A 
ATOM     14  O   UNL     1       1.107  -0.758  -0.013  0.00  0.00    -0.459 OA
BRANCH  10  15
ATOM     15  O   UNL     1      -0.988  -5.807  -0.026  0.00  0.00    -0.495 OA
ATOM     16  C   UNL     1      -0.114  -6.937  -0.037  0.00  0.00    +0.277 C 
ENDBRANCH  10  15
ENDBRANCH   1   7
BRANCH   3  17
ATOM     17  C   UNL     1      -4.546   0.249   1.193  0.00  0.00    +0.142 C 
BRANCH  17  18
ATOM     18  C   UNL     1      -4.845   0.963   2.486  0.00  0.00    +0.129 A 
ATOM     19  N   UNL     1      -3.924   1.263   3.441  0.00  0.00    -0.340 N 
ATOM     20  H   UNL     1      -2.976   1.059   3.410  0.00  0.00    +0.167 HD
ATOM     21  C   UNL     1      -4.588   1.913   4.462  0.00  0.00    +0.066 A 
ATOM     22  C   UNL     1      -4.197   2.452   5.681  0.00  0.00    +0.028 A 
ATOM     23  C   UNL     1      -5.134   3.051   6.494  0.00  0.00    +0.002 A 
ATOM     24  C   UNL     1      -6.464   3.118   6.104  0.00  0.00    +0.002 A 
ATOM     25  C   UNL     1      -6.867   2.593   4.909  0.00  0.00    +0.030 A 
ATOM     26  C   UNL     1      -5.934   1.981   4.067  0.00  0.00    +0.089 A 
ATOM     27  N   UNL     1      -6.020   1.388   2.849  0.00  0.00    -0.231 NA
ENDBRANCH  17  18
BRANCH  17  28
ATOM     28  C   UNL     1      -5.455  -0.976   1.065  0.00  0.00    +0.011 C 
ATOM     29  C   UNL     1      -6.918  -0.528   1.075  0.00  0.00    +0.009 C 
ATOM     30  C   UNL     1      -5.152  -1.701  -0.248  0.00  0.00    +0.009 C 
ENDBRANCH  17  28
ENDBRANCH   3  17
TORSDOF 5
