REMARK  Name = ZINC29481078
REMARK  5 active torsions:
REMARK  status: ('A' for Active; 'I' for Inactive)
REMARK    1  A    between atoms: C_9  and  C_11
REMARK    2  A    between atoms: C_11  and  S_12
REMARK    3  A    between atoms: S_12  and  C_13
REMARK    4  A    between atoms: N_14  and  C_15
REMARK    5  A    between atoms: C_15  and  C_16
REMARK                            x       y       z     vdW  Elec       q    Type
REMARK                         _______ _______ _______ _____ _____    ______ ____
ROOT
ATOM      1  S   UNL     1      -1.351  -0.866   0.050  0.00  0.00    -0.084 S 
ENDROOT
BRANCH   1   2
ATOM      2  C   UNL     1       0.016   0.241  -0.053  0.00  0.00    +0.126 C 
ATOM      3  N   UNL     1      -0.172   1.524   0.085  0.00  0.00    -0.365 N 
ATOM      4  N   UNL     1       1.282  -0.249  -0.279  0.00  0.00    -0.339 N 
ATOM      5  H   UNL     1       2.135   0.442  -0.343  0.00  0.00    +0.144 HD
ATOM      6  H   UNL     1       1.440  -1.331  -0.395  0.00  0.00    +0.144 HD
ATOM      7  H   UNL     1      -1.193   1.926   0.159  0.00  0.00    +0.161 HD
BRANCH   3   8
ATOM      8  C   UNL     1       0.978   2.431   0.142  0.00  0.00    +0.146 C 
BRANCH   8   9
ATOM      9  C   UNL     1       0.972   3.340  -1.088  0.00  0.00    +0.137 C 
ATOM     10  C   UNL     1       2.177   4.298  -1.037  0.00  0.00    +0.035 C 
ATOM     11  C   UNL     1       2.956   3.997  -2.341  0.00  0.00    +0.031 C 
ATOM     12  C   UNL     1       1.869   3.332  -3.223  0.00  0.00    +0.160 C 
ATOM     13  O   UNL     1       1.103   2.550  -2.281  0.00  0.00    -0.375 OA
ENDBRANCH   8   9
ENDBRANCH   3   8
ENDBRANCH   1   2
BRANCH   1  14
ATOM     14  C   UNL     1      -2.690   0.316   0.347  0.00  0.00    +0.173 C 
BRANCH  14  23
ATOM     15  C   UNL     1      -4.928   0.342   3.671  0.00  0.00    +0.000 C 
ATOM     16  C   UNL     1      -5.047   1.853   3.399  0.00  0.00    +0.002 C 
ATOM     17  C   UNL     1      -5.906   2.086   2.156  0.00  0.00    +0.019 C 
ATOM     18  C   UNL     1      -5.110   1.690   0.905  0.00  0.00    +0.108 C 
ATOM     19  N   UNL     1      -5.122   0.241   0.793  0.00  0.00    -0.301 N 
ATOM     20  C   UNL     1      -6.376  -0.488   1.028  0.00  0.00    +0.108 C 
ATOM     21  C   UNL     1      -6.242  -1.297   2.318  0.00  0.00    +0.019 C 
ATOM     22  C   UNL     1      -6.282  -0.342   3.523  0.00  0.00    +0.002 C 
ATOM     23  C   UNL     1      -3.996  -0.426   0.472  0.00  0.00    +0.226 C 
ATOM     24  O   UNL     1      -4.033  -1.624   0.284  0.00  0.00    -0.275 OA
ENDBRANCH  14  23
ENDBRANCH   1  14
TORSDOF 5
