REMARK  Name = ZINC39752004
REMARK  7 active torsions:
REMARK  status: ('A' for Active; 'I' for Inactive)
REMARK    1  A    between atoms: C_1  and  C_2
REMARK    2  A    between atoms: C_6  and  C_8
REMARK    3  A    between atoms: C_9  and  C_10
REMARK    4  A    between atoms: N_15  and  C_17
REMARK    5  A    between atoms: C_17  and  N_18
REMARK    6  A    between atoms: N_21  and  C_24
REMARK    7  A    between atoms: C_24  and  C_25
REMARK                            x       y       z     vdW  Elec       q    Type
REMARK                         _______ _______ _______ _____ _____    ______ ____
ROOT
ATOM      1  C   UNL     1       2.296  -3.422   3.975  0.00  0.00    +0.153 A 
ATOM      2  N   UNL     1       3.521  -3.330   4.612  0.00  0.00    -0.318 N 
ATOM      3  H   UNL     1       4.156  -2.603   4.519  0.00  0.00    +0.169 HD
ATOM      4  C   UNL     1       3.680  -4.423   5.383  0.00  0.00    +0.174 A 
ATOM      5  S   UNL     1       5.034  -4.775   6.370  0.00  0.00    -0.012 S 
ATOM      6  N   UNL     1       2.581  -5.192   5.239  0.00  0.00    -0.257 N 
ATOM      7  N   UNL     1       1.719  -4.535   4.349  0.00  0.00    -0.153 NA
ENDROOT
BRANCH   1   9
ATOM      8  C   UNL     1       0.523  -2.643   2.493  0.00  0.00    +0.049 C 
ATOM      9  C   UNL     1       1.736  -2.437   3.044  0.00  0.00    +0.051 C 
BRANCH   8  14
ATOM     10  C   UNL     1      -0.019   1.526   0.010  0.00  0.00    +0.052 C 
ATOM     11  C   UNL     1       0.002  -0.004   0.002  0.00  0.00    +0.174 C 
ATOM     12  C   UNL     1      -1.434  -0.577   0.087  0.00  0.00    +0.075 C 
ATOM     13  C   UNL     1      -1.232  -1.792   0.976  0.00  0.00    +0.022 C 
ATOM     14  C   UNL     1      -0.037  -1.657   1.562  0.00  0.00    +0.117 C 
ATOM     15  O   UNL     1       0.603  -0.517   1.206  0.00  0.00    -0.489 OA
ENDBRANCH   8  14
ENDBRANCH   1   9
BRANCH   6  16
ATOM     16  C   UNL     1       2.331  -6.477   5.896  0.00  0.00    +0.072 C 
BRANCH  16  17
ATOM     17  N   UNL     1       1.350  -6.292   6.975  0.00  0.00    +0.394 N 
ATOM     18  C   UNL     1       0.060  -5.891   6.399  0.00  0.00    -0.061 C 
ATOM     19  C   UNL     1      -0.957  -5.680   7.524  0.00  0.00    +0.066 C 
ATOM     20  N   UNL     1      -1.107  -6.929   8.284  0.00  0.00    -0.301 NA
ATOM     21  C   UNL     1       0.182  -7.357   8.846  0.00  0.00    +0.066 C 
ATOM     22  C   UNL     1       1.189  -7.553   7.710  0.00  0.00    -0.061 C 
ATOM     23  H   UNL     1       1.675  -5.574   7.605  0.00  0.00    -0.079 HD
BRANCH  20  24
ATOM     24  C   UNL     1      -2.119  -6.784   9.340  0.00  0.00    +0.126 C 
BRANCH  24  25
ATOM     25  C   UNL     1      -2.423  -8.135   9.933  0.00  0.00    +0.005 A 
ATOM     26  C   UNL     1      -1.836  -8.757  10.984  0.00  0.00    +0.013 A 
ATOM     27  C   UNL     1      -2.284 -10.011  11.357  0.00  0.00    +0.023 A 
ATOM     28  C   UNL     1      -3.298 -10.581  10.660  0.00  0.00    +0.055 A 
ATOM     29  S   UNL     1      -3.655  -9.328   9.438  0.00  0.00    -0.085 S 
ATOM     30 BR   UNL     1      -4.124 -12.262  10.918  0.00  0.00    -0.043 Br
ENDBRANCH  24  25
ENDBRANCH  20  24
ENDBRANCH  16  17
ENDBRANCH   6  16
TORSDOF 6
