REMARK  Name = ZINC08861036
REMARK  6 active torsions:
REMARK  status: ('A' for Active; 'I' for Inactive)
REMARK    1  A    between atoms: C_1  and  C_2
REMARK    2  A    between atoms: C_2  and  C_27
REMARK    3  A    between atoms: N_5  and  C_9
REMARK    4  A    between atoms: C_9  and  C_10
REMARK    5  A    between atoms: N_12  and  C_13
REMARK    6  A    between atoms: N_12  and  C_19
REMARK                            x       y       z     vdW  Elec       q    Type
REMARK                         _______ _______ _______ _____ _____    ______ ____
ROOT
ATOM      1  C   UNL     1      -0.949  -1.079  -1.088  0.00  0.00    +0.214 C 
ENDROOT
BRANCH   1   6
ATOM      2  C   UNL     1      -1.409  -5.274  -3.152  0.00  0.00    +0.047 C 
ATOM      3  C   UNL     1      -1.548  -4.685  -1.747  0.00  0.00    +0.135 C 
ATOM      4  C   UNL     1      -1.965  -3.229  -1.813  0.00  0.00    +0.251 C 
ATOM      5  O   UNL     1      -2.987  -2.781  -2.287  0.00  0.00    -0.272 OA
ATOM      6  N   UNL     1      -0.962  -2.536  -1.237  0.00  0.00    -0.215 N 
ATOM      7  C   UNL     1       0.016  -3.344  -0.814  0.00  0.00    +0.310 C 
ATOM      8  O   UNL     1       1.024  -2.952  -0.259  0.00  0.00    -0.252 OA
ATOM      9  N   UNL     1      -0.239  -4.639  -1.071  0.00  0.00    -0.281 N 
ATOM     10  H   UNL     1       0.327  -5.396  -0.855  0.00  0.00    +0.152 HD
BRANCH   3  11
ATOM     11  C   UNL     1      -2.536  -5.482  -0.935  0.00  0.00    -0.016 A 
ATOM     12  C   UNL     1      -3.879  -5.154  -0.965  0.00  0.00    +0.006 A 
ATOM     13  C   UNL     1      -4.786  -5.888  -0.224  0.00  0.00    +0.000 A 
ATOM     14  C   UNL     1      -4.349  -6.944   0.554  0.00  0.00    +0.000 A 
ATOM     15  C   UNL     1      -3.006  -7.268   0.588  0.00  0.00    +0.000 A 
ATOM     16  C   UNL     1      -2.099  -6.537  -0.156  0.00  0.00    +0.006 A 
ENDBRANCH   3  11
ENDBRANCH   1   6
BRANCH   1  17
ATOM     17  C   UNL     1      -0.298  -0.456  -2.296  0.00  0.00    +0.238 C 
ATOM     18  O   UNL     1       0.194  -1.161  -3.151  0.00  0.00    -0.273 OA
ATOM     19  N   UNL     1      -0.264   0.885  -2.427  0.00  0.00    -0.265 N 
BRANCH  19  20
ATOM     20  C   UNL     1      -0.730   1.740  -1.332  0.00  0.00    +0.104 C 
ATOM     21  C   UNL     1      -1.814   2.701  -1.847  0.00  0.00    +0.047 C 
ATOM     22  C   UNL     1      -2.078   3.808  -0.799  0.00  0.00    +0.168 C 
ATOM     23  S   UNL     1      -0.464   3.937   0.070  0.00  0.00    -0.029 S 
ATOM     24  O   UNL     1      -0.642   3.577   1.433  0.00  0.00    -0.174 OA
ATOM     25  O   UNL     1       0.137   5.185  -0.251  0.00  0.00    -0.174 OA
ATOM     26  C   UNL     1       0.454   2.591  -0.791  0.00  0.00    +0.188 C 
ENDBRANCH  19  20
BRANCH  19  27
ATOM     27  C   UNL     1       0.216   1.461  -3.608  0.00  0.00    +0.037 A 
ATOM     28  C   UNL     1       0.395   2.836  -3.689  0.00  0.00    +0.023 A 
ATOM     29  C   UNL     1       0.875   3.401  -4.855  0.00  0.00    +0.002 A 
ATOM     30  C   UNL     1       1.165   2.600  -5.944  0.00  0.00    +0.000 A 
ATOM     31  C   UNL     1       0.983   1.231  -5.869  0.00  0.00    +0.002 A 
ATOM     32  C   UNL     1       0.509   0.660  -4.704  0.00  0.00    +0.023 A 
ENDBRANCH  19  27
ENDBRANCH   1  17
TORSDOF 5
