REMARK  Name = ZINC21234926
REMARK  8 active torsions:
REMARK  status: ('A' for Active; 'I' for Inactive)
REMARK    1  A    between atoms: C_1  and  C_2
REMARK    2  A    between atoms: C_2  and  C_3
REMARK    3  A    between atoms: C_3  and  C_5
REMARK    4  A    between atoms: C_3  and  O_6
REMARK    5  A    between atoms: O_6  and  C_7
REMARK    6  A    between atoms: C_12  and  C_13
REMARK    7  A    between atoms: C_18  and  C_23
REMARK    8  A    between atoms: C_26  and  C_29
REMARK                            x       y       z     vdW  Elec       q    Type
REMARK                         _______ _______ _______ _____ _____    ______ ____
ROOT
ATOM      1  C   UNL     1       2.620   1.047  -0.060  0.00  0.00    +0.139 C 
ATOM      2  C   UNL     1       2.962   1.030  -1.532  0.00  0.00    +0.037 C 
ATOM      3  C   UNL     1       3.165  -0.061  -2.283  0.00  0.00    +0.017 C 
ATOM      4  C   UNL     1       3.510   0.070  -3.757  0.00  0.00    +0.059 C 
ATOM      5  C   UNL     1       2.849   1.317  -4.341  0.00  0.00    +0.032 C 
ATOM      6  C   UNL     1       3.368   2.530  -3.559  0.00  0.00    +0.088 C 
ATOM      7  C   UNL     1       3.062   2.323  -2.106  0.00  0.00    +0.163 C 
ATOM      8  O   UNL     1       2.895   3.296  -1.397  0.00  0.00    -0.292 OA
ATOM      9  N   UNL     1       3.107  -1.339  -1.828  0.00  0.00    -0.316 N 
ATOM     10  C   UNL     1       2.094  -1.853  -1.024  0.00  0.00    +0.052 A 
ATOM     11  C   UNL     1       1.266  -2.881  -1.440  0.00  0.00    +0.025 A 
ATOM     12  C   UNL     1       0.335  -3.401  -0.557  0.00  0.00    +0.002 A 
ATOM     13  C   UNL     1       0.235  -2.895   0.726  0.00  0.00    +0.002 A 
ATOM     14  C   UNL     1       1.045  -1.851   1.135  0.00  0.00    +0.025 A 
ATOM     15  C   UNL     1       1.966  -1.315   0.247  0.00  0.00    +0.049 A 
ATOM     16  N   UNL     1       2.767  -0.232   0.601  0.00  0.00    -0.331 N 
ATOM     17  H   UNL     1       3.900  -2.054  -2.092  0.00  0.00    +0.152 HD
ATOM     18  H   UNL     1       3.518  -0.358   1.394  0.00  0.00    +0.147 HD
ENDROOT
BRANCH   5  19
ATOM     19  C   UNL     1       3.214   1.454  -5.797  0.00  0.00    -0.043 A 
ATOM     20  C   UNL     1       4.539   1.586  -6.168  0.00  0.00    +0.004 A 
ATOM     21  C   UNL     1       4.874   1.707  -7.504  0.00  0.00    +0.003 A 
ATOM     22  C   UNL     1       3.883   1.706  -8.468  0.00  0.00    -0.050 A 
ATOM     23  C   UNL     1       2.558   1.580  -8.096  0.00  0.00    +0.003 A 
ATOM     24  C   UNL     1       2.223   1.454  -6.761  0.00  0.00    +0.004 A 
ATOM     25  C   UNL     1       4.248   1.843  -9.924  0.00  0.00    +0.044 C 
ENDBRANCH   5  19
BRANCH   1  31
ATOM     26  C   UNL     1       0.761   2.047   1.294  0.00  0.00    +0.126 A 
ATOM     27  C   UNL     1      -0.554   2.466   1.431  0.00  0.00    +0.046 A 
ATOM     28  C   UNL     1      -1.432   2.341   0.373  0.00  0.00    +0.004 A 
ATOM     29  C   UNL     1      -1.000   1.803  -0.826  0.00  0.00    +0.001 A 
ATOM     30  C   UNL     1       0.309   1.379  -0.964  0.00  0.00    +0.009 A 
ATOM     31  C   UNL     1       1.191   1.503   0.092  0.00  0.00    +0.019 A 
BRANCH  26  32
ATOM     32  O   UNL     1       1.627   2.170   2.334  0.00  0.00    -0.489 OA
BRANCH  32  33
ATOM     33  C   UNL     1       1.130   2.789   3.522  0.00  0.00    +0.170 C 
ATOM     34  C   UNL     1       0.396   1.749   4.371  0.00  0.00    +0.052 C 
BRANCH  33  36
ATOM     35  C   UNL     1       2.962   4.488   3.519  0.00  0.00    +0.007 C 
ATOM     36  C   UNL     1       2.299   3.368   4.323  0.00  0.00    +0.041 C 
ENDBRANCH  33  36
ENDBRANCH  32  33
ENDBRANCH  26  32
ENDBRANCH   1  31
TORSDOF 5
