REMARK  Name = ZINC67512281
REMARK  4 active torsions:
REMARK  status: ('A' for Active; 'I' for Inactive)
REMARK    1  A    between atoms: C_4  and  C_7
REMARK    2  A    between atoms: C_10  and  N_12
REMARK    3  A    between atoms: C_13  and  C_15
REMARK    4  A    between atoms: C_15  and  N_16
REMARK                            x       y       z     vdW  Elec       q    Type
REMARK                         _______ _______ _______ _____ _____    ______ ____
ROOT
ATOM      1  C   UNL     1       2.303  -2.270   4.500  0.00  0.00    +0.213 C 
ENDROOT
BRANCH   1   2
ATOM      2  N   UNL     1       2.940  -2.688   5.752  0.00  0.00    -0.215 N 
ATOM      3  C   UNL     1       3.115  -3.974   6.120  0.00  0.00    +0.247 C 
ATOM      4  O   UNL     1       2.788  -4.966   5.504  0.00  0.00    -0.273 OA
ATOM      5  C   UNL     1       3.804  -3.919   7.464  0.00  0.00    +0.113 C 
ATOM      6  C   UNL     1       5.169  -4.595   7.390  0.00  0.00    +0.035 C 
ATOM      7  C   UNL     1       5.862  -4.501   8.752  0.00  0.00    +0.003 C 
ATOM      8  C   UNL     1       4.994  -5.181   9.813  0.00  0.00    +0.000 C 
ATOM      9  C   UNL     1       3.638  -4.477   9.892  0.00  0.00    +0.003 C 
ATOM     10  C   UNL     1       2.936  -4.571   8.535  0.00  0.00    +0.035 C 
ATOM     11  N   UNL     1       3.955  -2.482   7.728  0.00  0.00    -0.285 N 
ATOM     12  C   UNL     1       3.425  -1.843   6.669  0.00  0.00    +0.310 C 
ATOM     13  O   UNL     1       3.388  -0.633   6.559  0.00  0.00    -0.252 OA
ATOM     14  H   UNL     1       4.360  -2.075   8.510  0.00  0.00    +0.151 HD
ENDBRANCH   1   2
BRANCH   1  16
ATOM     15  N   UNL     1       2.992  -1.772   2.177  0.00  0.00    -0.311 N 
ATOM     16  C   UNL     1       3.348  -2.147   3.422  0.00  0.00    +0.231 C 
ATOM     17  O   UNL     1       4.511  -2.385   3.674  0.00  0.00    -0.274 OA
ATOM     18  H   UNL     1       2.062  -1.581   1.976  0.00  0.00    +0.149 HD
BRANCH  15  21
ATOM     19  C   UNL     1       3.711  -0.707  -0.038  0.00  0.00    +0.041 C 
ATOM     20  C   UNL     1       3.671  -2.222  -0.251  0.00  0.00    +0.033 C 
ATOM     21  C   UNL     1       4.008  -1.652   1.129  0.00  0.00    +0.081 C 
BRANCH  19  25
ATOM     22  C   UNL     1      -0.017   1.378   0.010  0.00  0.00    +0.000 A 
ATOM     23  C   UNL     1       1.171   2.086   0.002  0.00  0.00    +0.000 A 
ATOM     24  C   UNL     1       2.377   1.411  -0.013  0.00  0.00    +0.004 A 
ATOM     25  C   UNL     1       2.396   0.029  -0.020  0.00  0.00    -0.042 A 
ATOM     26  C   UNL     1       1.208  -0.679  -0.012  0.00  0.00    +0.004 A 
ATOM     27  C   UNL     1       0.002  -0.004   0.002  0.00  0.00    +0.000 A 
ENDBRANCH  19  25
ENDBRANCH  15  21
ENDBRANCH   1  16
TORSDOF 4
