REMARK  Name = ZINC09243389
REMARK  7 active torsions:
REMARK  status: ('A' for Active; 'I' for Inactive)
REMARK    1  A    between atoms: C_1  and  C_2
REMARK    2  A    between atoms: C_4  and  C_10
REMARK    3  A    between atoms: C_5  and  O_9
REMARK    4  A    between atoms: C_7  and  C_8
REMARK    5  A    between atoms: N_18  and  C_28
REMARK    6  A    between atoms: C_19  and  C_21
REMARK    7  A    between atoms: C_28  and  C_29
REMARK                            x       y       z     vdW  Elec       q    Type
REMARK                         _______ _______ _______ _____ _____    ______ ____
ROOT
ATOM      1  C   UNL     1       0.028  -2.814  -2.491  0.00  0.00    +0.075 A 
ATOM      2  C   UNL     1      -0.953  -3.626  -2.963  0.00  0.00    +0.035 A 
ATOM      3  C   UNL     1      -0.499  -4.096  -4.217  0.00  0.00    +0.153 A 
ATOM      4  N   UNL     1       0.687  -3.560  -4.421  0.00  0.00    -0.168 NA
ATOM      5  N   UNL     1       1.016  -2.804  -3.434  0.00  0.00    -0.276 N 
ATOM      6  H   UNL     1       1.844  -2.303  -3.368  0.00  0.00    +0.189 HD
ATOM      7  C   UNL     1      -1.537  -4.985  -4.769  0.00  0.00    +0.268 C 
ATOM      8  O   UNL     1      -1.462  -5.558  -5.839  0.00  0.00    -0.268 OA
ATOM      9  N   UNL     1      -2.579  -5.073  -3.924  0.00  0.00    -0.281 N 
ATOM     10  C   UNL     1      -2.306  -4.245  -2.743  0.00  0.00    +0.142 C 
ENDROOT
BRANCH   1  14
ATOM     11  C   UNL     1      -0.018   1.503   0.010  0.00  0.00    +0.044 C 
ATOM     12  C   UNL     1       0.002  -0.004   0.002  0.00  0.00    -0.047 A 
ATOM     13  C   UNL     1       0.006  -0.685  -1.198  0.00  0.00    +0.017 A 
ATOM     14  C   UNL     1       0.025  -2.079  -1.207  0.00  0.00    +0.042 A 
ATOM     15  C   UNL     1       0.040  -2.779   0.005  0.00  0.00    +0.126 A 
ATOM     16  C   UNL     1       0.036  -2.082   1.201  0.00  0.00    +0.049 A 
ATOM     17  C   UNL     1       0.023  -0.700   1.198  0.00  0.00    -0.044 A 
ATOM     18  C   UNL     1       0.025   0.053   2.503  0.00  0.00    +0.044 C 
BRANCH  15  19
ATOM     19  O   UNL     1       0.058  -4.138   0.007  0.00  0.00    -0.506 OA
ATOM     20  H   UNL     1       0.946  -4.519   0.003  0.00  0.00    +0.292 HD
ENDBRANCH  15  19
ENDBRANCH   1  14
BRANCH  10  21
ATOM     21  C   UNL     1      -3.353  -3.169  -2.614  0.00  0.00    -0.022 A 
ATOM     22  C   UNL     1      -3.866  -2.564  -3.746  0.00  0.00    +0.007 A 
ATOM     23  C   UNL     1      -4.826  -1.577  -3.628  0.00  0.00    +0.020 A 
ATOM     24  C   UNL     1      -5.274  -1.194  -2.377  0.00  0.00    +0.041 A 
ATOM     25  C   UNL     1      -4.760  -1.799  -1.244  0.00  0.00    +0.020 A 
ATOM     26  C   UNL     1      -3.804  -2.790  -1.363  0.00  0.00    +0.007 A 
ATOM     27 CL   UNL     1      -6.479   0.047  -2.227  0.00  0.00    -0.084 Cl
ENDBRANCH  10  21
BRANCH   9  28
ATOM     28  C   UNL     1      -3.789  -5.868  -4.146  0.00  0.00    +0.145 C 
BRANCH  28  29
ATOM     29  C   UNL     1      -3.592  -7.252  -3.582  0.00  0.00    -0.012 A 
ATOM     30  C   UNL     1      -3.062  -8.261  -4.371  0.00  0.00    +0.008 A 
ATOM     31  C   UNL     1      -2.899  -9.519  -3.811  0.00  0.00    +0.020 A 
ATOM     32  C   UNL     1      -3.267  -9.723  -2.494  0.00  0.00    +0.111 A 
ATOM     33  N   UNL     1      -3.769  -8.739  -1.774  0.00  0.00    -0.263 NA
ATOM     34  C   UNL     1      -3.933  -7.529  -2.272  0.00  0.00    +0.115 A 
ENDBRANCH  28  29
ENDBRANCH   9  28
TORSDOF 5
