REMARK  Name = ZINC67043361
REMARK  3 active torsions:
REMARK  status: ('A' for Active; 'I' for Inactive)
REMARK    1  A    between atoms: C_5  and  C_7
REMARK    2  A    between atoms: N_16  and  C_17
REMARK    3  A    between atoms: C_17  and  C_18
REMARK                            x       y       z     vdW  Elec       q    Type
REMARK                         _______ _______ _______ _____ _____    ______ ____
ROOT
ATOM      1  C   UNL     1       1.231  -2.186  -0.021  0.00  0.00    +0.168 C 
ATOM      2  C   UNL     1       1.345  -2.688  -1.465  0.00  0.00    +0.145 C 
ATOM      3  N   UNL     1       1.175  -4.150  -1.463  0.00  0.00    -0.281 N 
ATOM      4  C   UNL     1       0.009  -4.709  -0.760  0.00  0.00    +0.137 C 
ATOM      5  C   UNL     1      -0.040  -4.109   0.650  0.00  0.00    +0.179 C 
ATOM      6  O   UNL     1       0.022  -2.683   0.557  0.00  0.00    -0.369 OA
ATOM      7  C   UNL     1       2.059  -4.953  -2.086  0.00  0.00    +0.303 C 
ATOM      8  O   UNL     1       2.965  -4.469  -2.738  0.00  0.00    -0.253 OA
ATOM      9  N   UNL     1       1.941  -6.292  -1.988  0.00  0.00    -0.295 N 
ATOM     10  H   UNL     1       1.178  -6.678  -1.530  0.00  0.00    +0.151 HD
ENDROOT
BRANCH   1  15
ATOM     11  C   UNL     1      -0.013   1.378   0.013  0.00  0.00    +0.001 A 
ATOM     12  C   UNL     1       1.174   2.087   0.003  0.00  0.00    +0.003 A 
ATOM     13  C   UNL     1       2.381   1.414  -0.014  0.00  0.00    +0.039 A 
ATOM     14  C   UNL     1       2.401   0.029  -0.021  0.00  0.00    +0.129 A 
ATOM     15  C   UNL     1       1.211  -0.679  -0.012  0.00  0.00    +0.018 A 
ATOM     16  C   UNL     1       0.005  -0.004   0.005  0.00  0.00    +0.009 A 
ATOM     17  F   UNL     1       3.580  -0.630  -0.038  0.00  0.00    -0.205 F 
ENDBRANCH   1  15
BRANCH   9  18
ATOM     18  C   UNL     1       2.964  -7.163  -2.571  0.00  0.00    +0.142 C 
BRANCH  18  19
ATOM     19  C   UNL     1       2.597  -8.603  -2.325  0.00  0.00    -0.014 A 
ATOM     20  C   UNL     1       3.030  -9.250  -1.174  0.00  0.00    +0.010 A 
ATOM     21  C   UNL     1       2.671 -10.573  -0.986  0.00  0.00    +0.042 A 
ATOM     22  C   UNL     1       1.894 -11.207  -1.950  0.00  0.00    +0.099 A 
ATOM     23  N   UNL     1       1.501 -10.555  -3.034  0.00  0.00    -0.349 N 
ATOM     24  C   UNL     1       1.823  -9.292  -3.237  0.00  0.00    +0.089 A 
ATOM     25  N   UNL     1       1.526 -12.536  -1.775  0.00  0.00    -0.317 N 
ATOM     26  C   UNL     1       1.883 -13.378  -0.624  0.00  0.00    +0.106 C 
ATOM     27  C   UNL     1       1.281 -14.776  -0.875  0.00  0.00    +0.020 C 
ATOM     28  C   UNL     1       1.100 -14.805  -2.416  0.00  0.00    +0.020 C 
ATOM     29  C   UNL     1       0.709 -13.332  -2.708  0.00  0.00    +0.106 C 
ATOM     30  H   UNL     1       0.960 -11.017  -3.694  0.00  0.00    +0.167 HD
ENDBRANCH  18  19
ENDBRANCH   9  18
TORSDOF 3
