REMARK  Name = ZINC12567721
REMARK  7 active torsions:
REMARK  status: ('A' for Active; 'I' for Inactive)
REMARK    1  A    between atoms: C_1  and  C_2
REMARK    2  A    between atoms: C_2  and  C_4
REMARK    3  A    between atoms: C_2  and  N_14
REMARK    4  A    between atoms: C_7  and  S_10
REMARK    5  A    between atoms: S_10  and  C_13
REMARK    6  A    between atoms: N_17  and  C_18
REMARK    7  A    between atoms: C_18  and  C_19
REMARK                            x       y       z     vdW  Elec       q    Type
REMARK                         _______ _______ _______ _____ _____    ______ ____
ROOT
ATOM      1  N   UNL     1      -3.064   4.307   5.187  0.00  0.00    -0.293 N 
ATOM      2  C   UNL     1      -4.077   4.752   5.958  0.00  0.00    +0.300 C 
ATOM      3  O   UNL     1      -4.679   3.978   6.676  0.00  0.00    -0.253 OA
ATOM      4  N   UNL     1      -4.421   6.054   5.932  0.00  0.00    -0.299 N 
ATOM      5  H   UNL     1      -2.584   4.925   4.614  0.00  0.00    +0.151 HD
ATOM      6  H   UNL     1      -3.941   6.672   5.359  0.00  0.00    +0.150 HD
ENDROOT
BRANCH   1   8
ATOM      7  C   UNL     1      -1.722   2.642   6.373  0.00  0.00    +0.033 C 
ATOM      8  C   UNL     1      -2.690   2.891   5.215  0.00  0.00    +0.102 C 
BRANCH   8   9
ATOM      9  C   UNL     1      -2.022   2.523   3.915  0.00  0.00    -0.027 A 
ATOM     10  C   UNL     1      -2.295   1.306   3.318  0.00  0.00    +0.007 A 
ATOM     11  C   UNL     1      -1.683   0.968   2.126  0.00  0.00    +0.027 A 
ATOM     12  C   UNL     1      -0.798   1.847   1.530  0.00  0.00    +0.088 A 
ATOM     13  C   UNL     1      -0.521   3.062   2.129  0.00  0.00    +0.027 A 
ATOM     14  C   UNL     1      -1.137   3.402   3.319  0.00  0.00    +0.007 A 
BRANCH  12  15
ATOM     15  S   UNL     1      -0.017   1.417   0.010  0.00  0.00    -0.006 S 
ATOM     16  O   UNL     1       0.002  -0.004   0.002  0.00  0.00    -0.170 OA
ATOM     17  O   UNL     1       1.195   2.158   0.002  0.00  0.00    -0.170 OA
ATOM     18  C   UNL     1      -1.135   2.034  -1.279  0.00  0.00    +0.200 C 
ENDBRANCH  12  15
ENDBRANCH   8   9
ENDBRANCH   1   8
BRANCH   4  19
ATOM     19  C   UNL     1      -5.522   6.538   6.770  0.00  0.00    +0.112 C 
BRANCH  19  20
ATOM     20  C   UNL     1      -5.705   8.041   6.554  0.00  0.00    -0.013 C 
ATOM     21  C   UNL     1      -4.416   8.772   6.934  0.00  0.00    +0.012 C 
ATOM     22  C   UNL     1      -4.599  10.275   6.718  0.00  0.00    -0.010 C 
ATOM     23  C   UNL     1      -5.748  10.780   7.593  0.00  0.00    +0.007 C 
ATOM     24  C   UNL     1      -7.038  10.049   7.213  0.00  0.00    -0.010 C 
ATOM     25  C   UNL     1      -6.854   8.546   7.429  0.00  0.00    +0.012 C 
ATOM     26  C   UNL     1      -7.361  10.317   5.742  0.00  0.00    +0.007 C 
ATOM     27  C   UNL     1      -6.212   9.813   4.867  0.00  0.00    -0.010 C 
ATOM     28  C   UNL     1      -4.923  10.544   5.247  0.00  0.00    +0.007 C 
ATOM     29  C   UNL     1      -6.028   8.309   5.083  0.00  0.00    +0.012 C 
ENDBRANCH  19  20
ENDBRANCH   4  19
TORSDOF 5
