REMARK  Name = ZINC60392193
REMARK  11 active torsions:
REMARK  status: ('A' for Active; 'I' for Inactive)
REMARK    1  A    between atoms: C_1  and  C_2
REMARK    2  A    between atoms: C_2  and  N_3
REMARK    3  A    between atoms: N_3  and  C_4
REMARK    4  A    between atoms: N_3  and  C_6
REMARK    5  A    between atoms: C_4  and  C_5
REMARK    6  A    between atoms: C_6  and  C_7
REMARK    7  A    between atoms: C_7  and  N_8
REMARK    8  A    between atoms: N_17  and  C_18
REMARK    9  A    between atoms: C_18  and  C_20
REMARK   10  A    between atoms: C_23  and  C_27
REMARK   11  A    between atoms: C_25  and  C_26
REMARK                            x       y       z     vdW  Elec       q    Type
REMARK                         _______ _______ _______ _____ _____    ______ ____
ROOT
ATOM      1  N   UNL     1       1.269  -3.076   1.101  0.00  0.00    -0.314 N 
ATOM      2  C   UNL     1       0.211  -3.977   1.158  0.00  0.00    +0.068 A 
ATOM      3  C   UNL     1      -1.112  -3.860   1.561  0.00  0.00    +0.028 A 
ATOM      4  C   UNL     1      -1.948  -4.957   1.504  0.00  0.00    +0.002 A 
ATOM      5  C   UNL     1      -1.473  -6.175   1.046  0.00  0.00    +0.002 A 
ATOM      6  C   UNL     1      -0.158  -6.302   0.643  0.00  0.00    +0.028 A 
ATOM      7  C   UNL     1       0.690  -5.205   0.697  0.00  0.00    +0.066 A 
ATOM      8  N   UNL     1       2.030  -5.025   0.368  0.00  0.00    -0.326 N 
ATOM      9  C   UNL     1       2.359  -3.728   0.615  0.00  0.00    +0.201 A 
ATOM     10  N   UNL     1       3.554  -3.186   0.416  0.00  0.00    -0.142 NA
ATOM     11  H   UNL     1       2.626  -5.706   0.020  0.00  0.00    +0.169 HD
ENDROOT
BRANCH  10  12
ATOM     12  C   UNL     1       4.514  -3.889  -0.197  0.00  0.00    +0.270 C 
ATOM     13  O   UNL     1       4.265  -4.992  -0.650  0.00  0.00    -0.268 OA
BRANCH  12  14
ATOM     14  C   UNL     1       5.878  -3.326  -0.323  0.00  0.00    +0.042 A 
ATOM     15  C   UNL     1       6.134  -2.014   0.075  0.00  0.00    +0.013 A 
ATOM     16  C   UNL     1       7.407  -1.495  -0.045  0.00  0.00    +0.004 A 
ATOM     17  C   UNL     1       8.428  -2.274  -0.559  0.00  0.00    -0.050 A 
ATOM     18  C   UNL     1       8.181  -3.576  -0.955  0.00  0.00    +0.007 A 
ATOM     19  C   UNL     1       6.913  -4.108  -0.835  0.00  0.00    -0.038 A 
ATOM     20  C   UNL     1       6.646  -5.528  -1.262  0.00  0.00    +0.044 C 
ATOM     21  C   UNL     1       9.816  -1.701  -0.688  0.00  0.00    +0.044 C 
ENDBRANCH  12  14
ENDBRANCH  10  12
BRANCH   1  22
ATOM     22  C   UNL     1       1.216  -1.665   1.492  0.00  0.00    +0.106 C 
BRANCH  22  23
ATOM     23  C   UNL     1       0.813  -0.816   0.284  0.00  0.00    -0.057 C 
BRANCH  23  24
ATOM     24  N   UNL     1       0.637   0.581   0.704  0.00  0.00    +0.380 N 
ATOM     25  H   UNL     1      -0.041   0.624   1.450  0.00  0.00    -0.082 HD
BRANCH  24  27
ATOM     26  C   UNL     1       1.713   2.527   1.730  0.00  0.00    -0.017 C 
ATOM     27  C   UNL     1       1.921   1.115   1.177  0.00  0.00    -0.082 C 
ENDBRANCH  24  27
BRANCH  24  28
ATOM     28  C   UNL     1       0.163   1.378  -0.435  0.00  0.00    -0.082 C 
ATOM     29  C   UNL     1      -1.261   0.954  -0.798  0.00  0.00    -0.017 C 
ENDBRANCH  24  28
ENDBRANCH  23  24
ENDBRANCH  22  23
ENDBRANCH   1  22
TORSDOF 7
