REMARK  Name = ZINC14461123
REMARK  8 active torsions:
REMARK  status: ('A' for Active; 'I' for Inactive)
REMARK    1  A    between atoms: C_1  and  C_2
REMARK    2  A    between atoms: C_2  and  C_3
REMARK    3  A    between atoms: C_2  and  C_4
REMARK    4  A    between atoms: C_4  and  C_5
REMARK    5  A    between atoms: C_5  and  O_6
REMARK    6  A    between atoms: O_6  and  C_7
REMARK    7  A    between atoms: C_20  and  C_23
REMARK    8  A    between atoms: C_28  and  O_29
REMARK                            x       y       z     vdW  Elec       q    Type
REMARK                         _______ _______ _______ _____ _____    ______ ____
ROOT
ATOM      1  C   UNL     1       1.119  -3.530   1.825  0.00  0.00    +0.121 A 
ATOM      2  C   UNL     1       1.339  -3.706   0.466  0.00  0.00    +0.047 A 
ATOM      3  C   UNL     1       1.727  -2.638  -0.316  0.00  0.00    +0.027 A 
ATOM      4  C   UNL     1       1.899  -1.379   0.247  0.00  0.00    +0.032 A 
ATOM      5  C   UNL     1       1.664  -1.204   1.615  0.00  0.00    -0.016 A 
ATOM      6  C   UNL     1       1.284  -2.276   2.394  0.00  0.00    +0.051 A 
ATOM      7  C   UNL     1       1.831   0.158   2.167  0.00  0.00    +0.049 C 
ATOM      8  C   UNL     1       2.196   0.391   3.587  0.00  0.00    -0.023 C 
ATOM      9  C   UNL     1       2.904   1.512   3.664  0.00  0.00    -0.030 C 
ATOM     10  C   UNL     1       3.097   2.106   2.267  0.00  0.00    +0.033 C 
ATOM     11  C   UNL     1       3.000   0.851   1.400  0.00  0.00    +0.029 C 
ATOM     12  C   UNL     1       2.490   1.047  -0.017  0.00  0.00    +0.108 C 
ATOM     13  N   UNL     1       2.308  -0.313  -0.569  0.00  0.00    -0.336 N 
ATOM     14  H   UNL     1       2.473  -0.471  -1.511  0.00  0.00    +0.147 HD
ENDROOT
BRANCH  12  15
ATOM     15  C   UNL     1       1.175   1.782   0.000  0.00  0.00    +0.015 A 
ATOM     16  C   UNL     1      -0.013   1.076   0.008  0.00  0.00    +0.024 A 
ATOM     17  C   UNL     1      -1.220   1.751   0.017  0.00  0.00    +0.018 A 
ATOM     18  C   UNL     1      -1.242   3.134   0.031  0.00  0.00    +0.019 A 
ATOM     19  C   UNL     1      -0.057   3.844   0.023  0.00  0.00    +0.047 A 
ATOM     20  C   UNL     1       1.155   3.169   0.008  0.00  0.00    +0.122 A 
ATOM     21 BR   UNL     1      -2.844   0.781   0.020  0.00  0.00    -0.050 Br
BRANCH  20  22
ATOM     22  O   UNL     1       2.322   3.866   0.000  0.00  0.00    -0.506 OA
ATOM     23  H   UNL     1       2.651   4.073  -0.885  0.00  0.00    +0.292 HD
ENDBRANCH  20  22
ENDBRANCH  12  15
BRANCH   1  24
ATOM     24  O   UNL     1       0.743  -4.584   2.596  0.00  0.00    -0.492 OA
BRANCH  24  25
ATOM     25  C   UNL     1       0.593  -5.846   1.942  0.00  0.00    +0.229 C 
BRANCH  25  26
ATOM     26  C   UNL     1       0.168  -6.902   2.964  0.00  0.00    +0.044 C 
BRANCH  26  28
ATOM     27  C   UNL     1       1.366  -8.721   1.739  0.00  0.00    +0.007 C 
ATOM     28  C   UNL     1       0.007  -8.253   2.264  0.00  0.00    -0.014 C 
ATOM     29  C   UNL     1      -0.537  -9.281   3.258  0.00  0.00    +0.007 C 
ENDBRANCH  26  28
ENDBRANCH  25  26
ENDBRANCH  24  25
ENDBRANCH   1  24
TORSDOF 6
