REMARK  Name = ZINC40592359
REMARK  4 active torsions:
REMARK  status: ('A' for Active; 'I' for Inactive)
REMARK    1  A    between atoms: C_1  and  N_2
REMARK    2  A    between atoms: N_2  and  C_3
REMARK    3  A    between atoms: C_3  and  C_4
REMARK    4  A    between atoms: N_9  and  C_11
REMARK                            x       y       z     vdW  Elec       q    Type
REMARK                         _______ _______ _______ _____ _____    ______ ____
ROOT
ATOM      1  C   UNL     1      -4.111  -4.585  -0.339  0.00  0.00    +0.177 C 
ATOM      2  C   UNL     1      -4.673  -4.046  -1.635  0.00  0.00    +0.014 A 
ATOM      3  C   UNL     1      -5.825  -3.345  -1.299  0.00  0.00    +0.040 A 
ATOM      4  C   UNL     1      -6.560  -2.732  -2.311  0.00  0.00    +0.024 A 
ATOM      5  C   UNL     1      -6.144  -2.825  -3.624  0.00  0.00    +0.003 A 
ATOM      6  C   UNL     1      -4.997  -3.526  -3.946  0.00  0.00    +0.016 A 
ATOM      7  C   UNL     1      -4.260  -4.138  -2.945  0.00  0.00    +0.025 A 
ATOM      8 BR   UNL     1      -2.691  -5.099  -3.378  0.00  0.00    -0.050 Br
ATOM      9  N   UNL     1      -6.035  -3.394   0.080  0.00  0.00    -0.284 N 
ATOM     10  C   UNL     1      -5.081  -4.100   0.717  0.00  0.00    +0.239 C 
ATOM     11  O   UNL     1      -5.011  -4.308   1.909  0.00  0.00    -0.273 OA
ATOM     12  H   UNL     1      -6.782  -2.969   0.528  0.00  0.00    +0.155 HD
ENDROOT
BRANCH   1  17
ATOM     13  C   UNL     1      -1.380  -2.034   0.121  0.00  0.00    -0.014 C 
ATOM     14  C   UNL     1      -0.702  -2.638   1.354  0.00  0.00    +0.004 C 
ATOM     15  C   UNL     1      -0.719  -4.165   1.240  0.00  0.00    +0.016 C 
ATOM     16  C   UNL     1      -2.165  -4.645   1.099  0.00  0.00    +0.085 C 
ATOM     17  N   UNL     1      -2.769  -4.040  -0.095  0.00  0.00    -0.288 NA
ATOM     18  C   UNL     1      -2.807  -2.576   0.012  0.00  0.00    +0.087 C 
BRANCH  13  19
ATOM     19  C   UNL     1      -1.421  -0.511   0.255  0.00  0.00    -0.078 C 
BRANCH  19  21
ATOM     20  C   UNL     1      -0.090   1.482   0.370  0.00  0.00    -0.100 C 
ATOM     21  N   UNL     1      -0.051   0.019   0.241  0.00  0.00    +0.377 N 
ATOM     22  H   UNL     1       0.398  -0.230  -0.628  0.00  0.00    -0.086 HD
ATOM     23  H   UNL     1       0.469  -0.372   1.012  0.00  0.00    -0.086 HD
ENDBRANCH  19  21
ENDBRANCH  13  19
ENDBRANCH   1  17
TORSDOF 3
