REMARK  Name = ZINC59310011
REMARK  7 active torsions:
REMARK  status: ('A' for Active; 'I' for Inactive)
REMARK    1  A    between atoms: C_1  and  C_2
REMARK    2  A    between atoms: C_5  and  N_8
REMARK    3  A    between atoms: C_9  and  C_11
REMARK    4  A    between atoms: C_11  and  S_12
REMARK    5  A    between atoms: S_12  and  C_13
REMARK    6  A    between atoms: N_18  and  N_19
REMARK    7  A    between atoms: C_20  and  C_21
REMARK                            x       y       z     vdW  Elec       q    Type
REMARK                         _______ _______ _______ _____ _____    ______ ____
ROOT
ATOM      1  C   UNL     1       0.651  -8.704   2.634  0.00  0.00    +0.211 A 
ATOM      2  N   UNL     1       0.761  -9.586   3.633  0.00  0.00    -0.186 NA
ATOM      3  C   UNL     1       0.832 -10.805   3.142  0.00  0.00    +0.232 A 
ATOM      4  N   UNL     1       0.767 -10.717   1.796  0.00  0.00    -0.245 N 
ATOM      5  N   UNL     1       0.645  -9.352   1.493  0.00  0.00    -0.144 NA
ATOM      6  N   UNL     1       0.952 -11.971   3.875  0.00  0.00    -0.205 N 
ATOM      7  H   UNL     1       0.997 -12.827   3.421  0.00  0.00    +0.177 HD
ATOM      8  H   UNL     1       0.796 -11.452   1.164  0.00  0.00    +0.192 HD
ENDROOT
BRANCH   6   9
ATOM      9  N   UNL     1       1.007 -11.916   5.274  0.00  0.00    -0.188 NA
ATOM     10  C   UNL     1       1.120 -13.014   5.965  0.00  0.00    +0.139 C 
BRANCH  10  11
ATOM     11  C   UNL     1       1.178 -12.957   7.428  0.00  0.00    +0.010 A 
ATOM     12  C   UNL     1       1.427 -14.124   8.179  0.00  0.00    -0.009 A 
ATOM     13  C   UNL     1       1.624 -15.365   7.547  0.00  0.00    +0.009 A 
ATOM     14  C   UNL     1       1.863 -16.472   8.300  0.00  0.00    +0.001 A 
ATOM     15  C   UNL     1       1.917 -16.412   9.692  0.00  0.00    +0.001 A 
ATOM     16  C   UNL     1       1.734 -15.245  10.363  0.00  0.00    +0.008 A 
ATOM     17  C   UNL     1       1.484 -14.059   9.640  0.00  0.00    -0.017 A 
ATOM     18  C   UNL     1       1.293 -12.844  10.299  0.00  0.00    +0.017 A 
ATOM     19  C   UNL     1       1.046 -11.683   9.564  0.00  0.00    -0.017 A 
ATOM     20  C   UNL     1       0.992 -11.732   8.102  0.00  0.00    -0.009 A 
ATOM     21  C   UNL     1       0.746 -10.543   7.393  0.00  0.00    +0.009 A 
ATOM     22  C   UNL     1       0.571  -9.379   8.073  0.00  0.00    +0.001 A 
ATOM     23  C   UNL     1       0.627  -9.329   9.465  0.00  0.00    +0.001 A 
ATOM     24  C   UNL     1       0.849 -10.443  10.209  0.00  0.00    +0.008 A 
ENDBRANCH  10  11
ENDBRANCH   6   9
BRANCH   1  25
ATOM     25  S   UNL     1       0.527  -6.956   2.819  0.00  0.00    -0.075 S 
BRANCH  25  26
ATOM     26  C   UNL     1       0.398  -6.342   1.117  0.00  0.00    +0.173 C 
BRANCH  26  28
ATOM     27  N   UNL     1       0.177  -4.160  -0.026  0.00  0.00    -0.285 N 
ATOM     28  C   UNL     1       0.285  -4.839   1.133  0.00  0.00    +0.227 C 
ATOM     29  O   UNL     1       0.290  -4.242   2.188  0.00  0.00    -0.275 OA
ATOM     30  H   UNL     1       0.096  -4.641  -0.865  0.00  0.00    +0.155 HD
BRANCH  27  35
ATOM     31  C   UNL     1       0.203   1.513  -0.001  0.00  0.00    +0.044 C 
ATOM     32  C   UNL     1       0.196   0.006  -0.008  0.00  0.00    -0.050 A 
ATOM     33  C   UNL     1       0.940  -0.691   0.926  0.00  0.00    +0.005 A 
ATOM     34  C   UNL     1       0.936  -2.072   0.923  0.00  0.00    +0.023 A 
ATOM     35  C   UNL     1       0.183  -2.760  -0.020  0.00  0.00    +0.033 A 
ATOM     36  C   UNL     1      -0.563  -2.057  -0.956  0.00  0.00    +0.023 A 
ATOM     37  C   UNL     1      -0.559  -0.676  -0.944  0.00  0.00    +0.005 A 
ENDBRANCH  27  35
ENDBRANCH  26  28
ENDBRANCH  25  26
ENDBRANCH   1  25
TORSDOF 6
