REMARK  Name = ZINC22410240
REMARK  7 active torsions:
REMARK  status: ('A' for Active; 'I' for Inactive)
REMARK    1  A    between atoms: C_3  and  S_25
REMARK    2  A    between atoms: C_5  and  S_7
REMARK    3  A    between atoms: S_7  and  N_10
REMARK    4  A    between atoms: N_10  and  N_11
REMARK    5  A    between atoms: C_12  and  C_14
REMARK    6  A    between atoms: C_14  and  C_15
REMARK    7  A    between atoms: S_25  and  N_28
REMARK                            x       y       z     vdW  Elec       q    Type
REMARK                         _______ _______ _______ _____ _____    ______ ____
ROOT
ATOM      1  N   UNL     1       3.076   4.326  -1.587  0.00  0.00    -0.108 NA
ATOM      2  H   UNL     1       3.913   3.981  -1.935  0.00  0.00    +0.172 HD
ENDROOT
BRANCH   1   3
ATOM      3  N   UNL     1       2.210   5.042  -2.423  0.00  0.00    -0.232 N 
ATOM      4  C   UNL     1       2.659   6.124  -3.090  0.00  0.00    +0.228 C 
ATOM      5  O   UNL     1       3.813   6.478  -2.965  0.00  0.00    -0.274 OA
ATOM      6  H   UNL     1       1.164   4.722  -2.537  0.00  0.00    +0.171 HD
BRANCH   4   7
ATOM      7  C   UNL     1       1.728   6.895  -3.990  0.00  0.00    +0.104 C 
BRANCH   7   8
ATOM      8  C   UNL     1       2.483   8.067  -4.621  0.00  0.00    -0.020 C 
ATOM      9  C   UNL     1       3.006   8.989  -3.518  0.00  0.00    +0.011 C 
ATOM     10  C   UNL     1       3.760  10.162  -4.149  0.00  0.00    -0.010 C 
ATOM     11  C   UNL     1       2.815  10.944  -5.063  0.00  0.00    +0.007 C 
ATOM     12  C   UNL     1       2.292  10.021  -6.166  0.00  0.00    -0.010 C 
ATOM     13  C   UNL     1       1.538   8.849  -5.535  0.00  0.00    +0.011 C 
ATOM     14  C   UNL     1       3.469   9.488  -6.985  0.00  0.00    +0.007 C 
ATOM     15  C   UNL     1       4.414   8.706  -6.071  0.00  0.00    -0.010 C 
ATOM     16  C   UNL     1       4.937   9.628  -4.969  0.00  0.00    +0.007 C 
ATOM     17  C   UNL     1       3.660   7.534  -5.441  0.00  0.00    +0.011 C 
ENDBRANCH   7   8
ENDBRANCH   4   7
ENDBRANCH   1   3
BRANCH   1  18
ATOM     18  S   UNL     1       2.670   4.067  -0.002  0.00  0.00    +0.074 S 
ATOM     19  O   UNL     1       2.387   5.342   0.558  0.00  0.00    -0.152 OA
ATOM     20  O   UNL     1       3.661   3.202   0.535  0.00  0.00    -0.152 OA
BRANCH  18  25
ATOM     21  C   UNL     1      -0.013   1.076   0.008  0.00  0.00    +0.004 A 
ATOM     22  C   UNL     1      -1.219   1.751   0.017  0.00  0.00    +0.028 A 
ATOM     23  C   UNL     1      -1.238   3.133   0.030  0.00  0.00    +0.107 A 
ATOM     24  C   UNL     1      -0.050   3.840   0.023  0.00  0.00    +0.057 A 
ATOM     25  C   UNL     1       1.156   3.166   0.008  0.00  0.00    +0.109 A 
ATOM     26  C   UNL     1       1.175   1.783   0.000  0.00  0.00    +0.029 A 
BRANCH  23  27
ATOM     27  S   UNL     1      -2.776   3.993   0.049  0.00  0.00    +0.056 S 
ATOM     28  O   UNL     1      -3.733   3.101   0.604  0.00  0.00    -0.153 OA
ATOM     29  O   UNL     1      -2.517   5.275   0.604  0.00  0.00    -0.153 OA
BRANCH  27  30
ATOM     30  N   UNL     1      -3.217   4.240  -1.528  0.00  0.00    -0.204 NA
ATOM     31  H   UNL     1      -4.177   4.777  -1.560  0.00  0.00    +0.144 HD
ATOM     32  H   UNL     1      -3.323   3.270  -2.036  0.00  0.00    +0.144 HD
ENDBRANCH  27  30
ENDBRANCH  23  27
ENDBRANCH  18  25
ENDBRANCH   1  18
TORSDOF 7
