REMARK  Name = ZINC13133861
REMARK  6 active torsions:
REMARK  status: ('A' for Active; 'I' for Inactive)
REMARK    1  A    between atoms: C_7  and  S_16
REMARK    2  A    between atoms: C_9  and  C_11
REMARK    3  A    between atoms: S_16  and  C_17
REMARK    4  A    between atoms: C_17  and  C_18
REMARK    5  A    between atoms: N_20  and  C_21
REMARK    6  A    between atoms: C_22  and  C_29
REMARK                            x       y       z     vdW  Elec       q    Type
REMARK                         _______ _______ _______ _____ _____    ______ ____
ROOT
ATOM      1  C   UNL     1      -0.013   1.086   0.008  0.00  0.00    +0.172 C 
ENDROOT
BRANCH   1   2
ATOM      2  C   UNL     1      -0.742   1.585  -1.213  0.00  0.00    +0.228 C 
ATOM      3  O   UNL     1      -1.736   2.268  -1.088  0.00  0.00    -0.275 OA
ATOM      4  N   UNL     1      -0.288   1.272  -2.443  0.00  0.00    -0.279 N 
ATOM      5  H   UNL     1       0.507   0.726  -2.543  0.00  0.00    +0.155 HD
BRANCH   4   6
ATOM      6  C   UNL     1      -0.959   1.732  -3.566  0.00  0.00    +0.084 A 
ATOM      7  C   UNL     1      -0.648   1.523  -4.899  0.00  0.00    +0.068 A 
ATOM      8  C   UNL     1      -1.530   2.121  -5.902  0.00  0.00    -0.023 A 
ATOM      9  C   UNL     1      -2.560   2.829  -5.406  0.00  0.00    -0.004 A 
ATOM     10  S   UNL     1      -2.384   2.711  -3.643  0.00  0.00    -0.077 S 
ATOM     11  C   UNL     1      -3.418   3.414  -6.496  0.00  0.00    +0.043 C 
ATOM     12  C   UNL     1      -3.035   2.617  -7.762  0.00  0.00    +0.010 C 
ATOM     13  C   UNL     1      -1.598   2.168  -7.429  0.00  0.00    +0.037 C 
BRANCH   7  14
ATOM     14  C   UNL     1       0.520   0.729  -5.292  0.00  0.00    +0.244 C 
ATOM     15  O   UNL     1       0.412  -0.472  -5.457  0.00  0.00    -0.270 OA
ATOM     16  N   UNL     1       1.714   1.329  -5.469  0.00  0.00    -0.325 N 
ATOM     17  H   UNL     1       1.800   2.286  -5.337  0.00  0.00    +0.145 HD
ATOM     18  H   UNL     1       2.487   0.803  -5.728  0.00  0.00    +0.145 HD
ENDBRANCH   7  14
ENDBRANCH   4   6
ENDBRANCH   1   2
BRANCH   1  19
ATOM     19  S   UNL     1      -0.860   1.669   1.497  0.00  0.00    -0.096 S 
BRANCH  19  26
ATOM     20  C   UNL     1      -1.395   2.064   5.947  0.00  0.00    +0.001 A 
ATOM     21  C   UNL     1      -0.537   1.475   6.871  0.00  0.00    +0.002 A 
ATOM     22  C   UNL     1       0.525   0.723   6.465  0.00  0.00    +0.028 A 
ATOM     23  C   UNL     1       0.770   0.554   5.095  0.00  0.00    +0.076 A 
ATOM     24  C   UNL     1      -0.103   1.160   4.157  0.00  0.00    +0.032 A 
ATOM     25  C   UNL     1      -1.189   1.914   4.606  0.00  0.00    +0.012 A 
ATOM     26  C   UNL     1       0.174   0.961   2.735  0.00  0.00    +0.109 A 
ATOM     27  N   UNL     1       1.234   0.232   2.410  0.00  0.00    -0.220 NA
ATOM     28  C   UNL     1       2.018  -0.305   3.344  0.00  0.00    +0.168 A 
ATOM     29  N   UNL     1       1.808  -0.160   4.641  0.00  0.00    -0.227 NA
BRANCH  28  30
ATOM     30  C   UNL     1       3.179  -1.103   2.909  0.00  0.00    +0.056 A 
ATOM     31  C   UNL     1       3.600  -1.394   1.637  0.00  0.00    +0.019 A 
ATOM     32  C   UNL     1       4.725  -2.167   1.473  0.00  0.00    +0.008 A 
ATOM     33  C   UNL     1       5.385  -2.618   2.573  0.00  0.00    +0.046 A 
ATOM     34  S   UNL     1       4.407  -1.936   3.902  0.00  0.00    -0.094 S 
ENDBRANCH  28  30
ENDBRANCH  19  26
ENDBRANCH   1  19
TORSDOF 6
