REMARK  Name = ZINC35597169
REMARK  9 active torsions:
REMARK  status: ('A' for Active; 'I' for Inactive)
REMARK    1  A    between atoms: C_1  and  C_2
REMARK    2  A    between atoms: C_2  and  C_3
REMARK    3  A    between atoms: C_2  and  C_4
REMARK    4  A    between atoms: C_2  and  N_5
REMARK    5  A    between atoms: N_8  and  C_9
REMARK    6  A    between atoms: C_9  and  C_10
REMARK    7  A    between atoms: C_10  and  C_12
REMARK    8  A    between atoms: C_10  and  N_23
REMARK    9  A    between atoms: N_21  and  C_22
REMARK                            x       y       z     vdW  Elec       q    Type
REMARK                         _______ _______ _______ _____ _____    ______ ____
ROOT
ATOM      1  C   UNL     1       4.258  -0.667  -4.102  0.00  0.00    -0.020 C 
ENDROOT
BRANCH   1   2
ATOM      2  C   UNL     1       5.756  -0.556  -4.225  0.00  0.00    -0.059 A 
ATOM      3  C   UNL     1       6.572  -1.441  -3.543  0.00  0.00    +0.004 A 
ATOM      4  C   UNL     1       7.943  -1.338  -3.654  0.00  0.00    +0.023 A 
ATOM      5  C   UNL     1       8.505  -0.347  -4.451  0.00  0.00    +0.033 A 
ATOM      6  C   UNL     1       7.687   0.537  -5.137  0.00  0.00    -0.026 A 
ATOM      7  C   UNL     1       6.312   0.425  -5.022  0.00  0.00    +0.007 A 
ATOM      8  C   UNL     1       8.260   1.616  -6.018  0.00  0.00    +0.038 C 
ATOM      9  C   UNL     1       9.713   1.902  -5.639  0.00  0.00    +0.024 C 
ATOM     10  C   UNL     1      10.486   0.577  -5.604  0.00  0.00    +0.105 C 
ATOM     11  N   UNL     1       9.898  -0.257  -4.546  0.00  0.00    -0.333 N 
ATOM     12  C   UNL     1      10.757  -0.983  -3.607  0.00  0.00    +0.129 C 
ENDBRANCH   1   2
BRANCH   1  13
ATOM     13  N   UNL     1       3.871  -2.084  -4.100  0.00  0.00    +0.385 N 
ATOM     14  C   UNL     1       2.392  -2.210  -4.046  0.00  0.00    -0.078 C 
ATOM     15  C   UNL     1       2.136  -3.631  -4.607  0.00  0.00    -0.020 C 
ATOM     16  C   UNL     1       3.196  -3.757  -5.726  0.00  0.00    -0.020 C 
ATOM     17  C   UNL     1       4.284  -2.727  -5.367  0.00  0.00    -0.078 C 
ATOM     18  H   UNL     1       4.291  -2.559  -3.316  0.00  0.00    -0.081 HD
ENDBRANCH   1  13
BRANCH   1  19
ATOM     19  C   UNL     1       3.804  -0.012  -2.797  0.00  0.00    +0.095 C 
BRANCH  19  23
ATOM     20  N   UNL     1       3.918   3.551  -1.897  0.00  0.00    -0.295 N 
ATOM     21  C   UNL     1       3.673   2.227  -1.844  0.00  0.00    +0.300 C 
ATOM     22  O   UNL     1       3.092   1.754  -0.886  0.00  0.00    -0.253 OA
ATOM     23  N   UNL     1       4.070   1.428  -2.854  0.00  0.00    -0.301 N 
ATOM     24  H   UNL     1       4.381   3.929  -2.661  0.00  0.00    +0.151 HD
ATOM     25  H   UNL     1       4.533   1.805  -3.618  0.00  0.00    +0.150 HD
BRANCH  20  27
ATOM     26  C   UNL     1       4.156   3.972   0.501  0.00  0.00    +0.031 C 
ATOM     27  C   UNL     1       3.486   4.420  -0.799  0.00  0.00    +0.028 C 
ATOM     28  C   UNL     1       1.966   4.332  -0.647  0.00  0.00    +0.031 C 
ATOM     29  C   UNL     1       3.884   5.865  -1.106  0.00  0.00    +0.031 C 
ENDBRANCH  20  27
ENDBRANCH  19  23
ENDBRANCH   1  19
TORSDOF 5
