REMARK  Name = ZINC66845484
REMARK  4 active torsions:
REMARK  status: ('A' for Active; 'I' for Inactive)
REMARK    1  A    between atoms: C_4  and  N_23
REMARK    2  A    between atoms: C_5  and  C_7
REMARK    3  A    between atoms: C_7  and  N_8
REMARK    4  A    between atoms: C_12  and  C_15
REMARK                            x       y       z     vdW  Elec       q    Type
REMARK                         _______ _______ _______ _____ _____    ______ ____
ROOT
ATOM      1  N   UNL     1       1.516  -2.674   1.342  0.00  0.00    -0.293 NA
ATOM      2  C   UNL     1       2.786  -2.162   1.877  0.00  0.00    +0.113 C 
ATOM      3  C   UNL     1       2.935  -2.605   3.335  0.00  0.00    +0.176 C 
ATOM      4  O   UNL     1       2.853  -4.031   3.405  0.00  0.00    -0.369 OA
ATOM      5  C   UNL     1       1.629  -4.564   2.893  0.00  0.00    +0.162 C 
ATOM      6  C   UNL     1       1.466  -4.140   1.431  0.00  0.00    +0.121 C 
ENDROOT
BRANCH   5   7
ATOM      7  C   UNL     1       1.657  -6.068   2.982  0.00  0.00    -0.016 A 
ATOM      8  C   UNL     1       2.846  -6.748   2.793  0.00  0.00    +0.009 A 
ATOM      9  C   UNL     1       2.874  -8.127   2.875  0.00  0.00    +0.040 A 
ATOM     10  C   UNL     1       1.712  -8.829   3.146  0.00  0.00    +0.142 A 
ATOM     11  C   UNL     1       0.521  -8.146   3.334  0.00  0.00    +0.076 A 
ATOM     12  C   UNL     1       0.496  -6.765   3.257  0.00  0.00    +0.029 A 
ATOM     13 CL   UNL     1      -0.939  -9.023   3.674  0.00  0.00    -0.081 Cl
ATOM     14  F   UNL     1       1.738 -10.177   3.225  0.00  0.00    -0.204 F 
ENDBRANCH   5   7
BRANCH   1  15
ATOM     15  C   UNL     1       1.307  -2.222  -0.040  0.00  0.00    +0.122 C 
BRANCH  15  20
ATOM     16  C   UNL     1       1.643   1.512  -0.488  0.00  0.00    +0.000 A 
ATOM     17  C   UNL     1       0.409   1.954  -0.052  0.00  0.00    +0.002 A 
ATOM     18  C   UNL     1      -0.535   1.045   0.389  0.00  0.00    +0.033 A 
ATOM     19  C   UNL     1      -0.244  -0.306   0.392  0.00  0.00    +0.131 A 
ATOM     20  C   UNL     1       0.990  -0.749  -0.045  0.00  0.00    -0.003 A 
ATOM     21  C   UNL     1       1.934   0.160  -0.484  0.00  0.00    +0.007 A 
BRANCH  19  22
ATOM     22  N   UNL     1      -1.254  -1.280   0.865  0.00  0.00    +0.057 N 
ATOM     23  O   UNL     1      -2.295  -0.888   1.340  0.00  0.00    -0.126 OA
ATOM     24  O   UNL     1      -1.039  -2.466   0.776  0.00  0.00    -0.126 OA
ENDBRANCH  19  22
ENDBRANCH  15  20
ENDBRANCH   1  15
TORSDOF 4
