REMARK  Name = ZINC09548993
REMARK  10 active torsions:
REMARK  status: ('A' for Active; 'I' for Inactive)
REMARK    1  A    between atoms: C_1  and  C_2
REMARK    2  A    between atoms: C_2  and  C_26
REMARK    3  A    between atoms: N_5  and  C_9
REMARK    4  A    between atoms: C_9  and  C_10
REMARK    5  A    between atoms: N_12  and  C_13
REMARK    6  A    between atoms: C_18  and  O_19
REMARK    7  A    between atoms: O_19  and  C_20
REMARK    8  A    between atoms: C_26  and  C_27
REMARK    9  A    between atoms: C_32  and  O_33
REMARK   10  A    between atoms: O_33  and  C_34
REMARK                            x       y       z     vdW  Elec       q    Type
REMARK                         _______ _______ _______ _____ _____    ______ ____
ROOT
ATOM      1  C   UNL     1      -4.668  -0.163  -1.392  0.00  0.00    +0.042 C 
ATOM      2  C   UNL     1      -3.582  -1.132  -0.921  0.00  0.00    +0.114 C 
ATOM      3  C   UNL     1      -2.213  -0.656  -1.365  0.00  0.00    +0.247 C 
ATOM      4  O   UNL     1      -1.827  -0.496  -2.503  0.00  0.00    -0.273 OA
ATOM      5  N   UNL     1      -1.515  -0.445  -0.232  0.00  0.00    -0.215 N 
ATOM      6  C   UNL     1      -2.244  -0.724   0.855  0.00  0.00    +0.310 C 
ATOM      7  O   UNL     1      -1.829  -0.615   1.993  0.00  0.00    -0.252 OA
ATOM      8  N   UNL     1      -3.487  -1.135   0.549  0.00  0.00    -0.285 N 
ATOM      9  H   UNL     1      -4.185  -1.387   1.174  0.00  0.00    +0.151 HD
ENDROOT
BRANCH   5  10
ATOM     10  C   UNL     1      -0.128   0.025  -0.195  0.00  0.00    +0.214 C 
BRANCH  10  11
ATOM     11  C   UNL     1      -0.110   1.532  -0.151  0.00  0.00    +0.235 C 
ATOM     12  O   UNL     1      -1.152   2.151  -0.155  0.00  0.00    -0.274 OA
ATOM     13  N   UNL     1       1.066   2.190  -0.112  0.00  0.00    -0.281 N 
ATOM     14  H   UNL     1       1.898   1.694  -0.055  0.00  0.00    +0.155 HD
BRANCH  13  15
ATOM     15  C   UNL     1       1.086   3.590  -0.153  0.00  0.00    +0.076 A 
ATOM     16  C   UNL     1       0.071   4.319   0.451  0.00  0.00    +0.027 A 
ATOM     17  C   UNL     1       0.094   5.700   0.410  0.00  0.00    +0.002 A 
ATOM     18  C   UNL     1       1.126   6.359  -0.232  0.00  0.00    +0.004 A 
ATOM     19  C   UNL     1       2.140   5.641  -0.837  0.00  0.00    +0.048 A 
ATOM     20  C   UNL     1       2.128   4.255  -0.795  0.00  0.00    +0.150 A 
BRANCH  20  21
ATOM     21  O   UNL     1       3.128   3.547  -1.385  0.00  0.00    -0.454 OA
BRANCH  21  22
ATOM     22  C   UNL     1       2.947   3.133  -2.666  0.00  0.00    +0.129 A 
ATOM     23  C   UNL     1       1.728   3.337  -3.296  0.00  0.00    +0.046 A 
ATOM     24  C   UNL     1       1.548   2.919  -4.601  0.00  0.00    +0.004 A 
ATOM     25  C   UNL     1       2.578   2.288  -5.274  0.00  0.00    +0.000 A 
ATOM     26  C   UNL     1       3.792   2.079  -4.646  0.00  0.00    +0.004 A 
ATOM     27  C   UNL     1       3.978   2.500  -3.344  0.00  0.00    +0.046 A 
ENDBRANCH  21  22
ENDBRANCH  20  21
ENDBRANCH  13  15
ENDBRANCH  10  11
ENDBRANCH   5  10
BRANCH   2  28
ATOM     28  C   UNL     1      -3.857  -2.543  -1.445  0.00  0.00    +0.073 C 
BRANCH  28  29
ATOM     29  C   UNL     1      -5.222  -2.990  -0.990  0.00  0.00    -0.003 A 
ATOM     30  C   UNL     1      -5.353  -3.753   0.155  0.00  0.00    +0.007 A 
ATOM     31  C   UNL     1      -6.606  -4.160   0.576  0.00  0.00    +0.000 A 
ATOM     32  C   UNL     1      -7.729  -3.814  -0.152  0.00  0.00    +0.004 A 
ATOM     33  C   UNL     1      -7.603  -3.057  -1.300  0.00  0.00    +0.046 A 
ATOM     34  C   UNL     1      -6.348  -2.642  -1.722  0.00  0.00    +0.123 A 
BRANCH  34  35
ATOM     35  O   UNL     1      -6.221  -1.897  -2.851  0.00  0.00    -0.495 OA
ATOM     36  C   UNL     1      -7.422  -1.576  -3.555  0.00  0.00    +0.277 C 
ENDBRANCH  34  35
ENDBRANCH  28  29
ENDBRANCH   2  28
TORSDOF 8
