REMARK  Name = ZINC17673033
REMARK  5 active torsions:
REMARK  status: ('A' for Active; 'I' for Inactive)
REMARK    1  A    between atoms: C_1  and  C_2
REMARK    2  A    between atoms: N_13  and  C_26
REMARK    3  A    between atoms: C_14  and  S_16
REMARK    4  A    between atoms: S_16  and  C_17
REMARK    5  A    between atoms: C_17  and  C_18
REMARK                            x       y       z     vdW  Elec       q    Type
REMARK                         _______ _______ _______ _____ _____    ______ ____
ROOT
ATOM      1  C   UNL     1       3.672   0.022   2.300  0.00  0.00    +0.008 C 
ATOM      2  C   UNL     1       2.314   0.707   2.134  0.00  0.00    -0.009 C 
ATOM      3  C   UNL     1       1.320  -0.270   1.499  0.00  0.00    +0.008 C 
ATOM      4  C   UNL     1      -0.092   0.312   1.560  0.00  0.00    +0.037 C 
ATOM      5  C   UNL     1      -0.076   1.714   0.957  0.00  0.00    -0.023 A 
ATOM      6  C   UNL     1       1.087   2.392   0.825  0.00  0.00    -0.004 A 
ATOM      7  S   UNL     1       0.640   3.946   0.093  0.00  0.00    -0.073 S 
ATOM      8  C   UNL     1      -1.101   3.686  -0.035  0.00  0.00    +0.117 A 
ATOM      9  C   UNL     1      -1.280   2.392   0.505  0.00  0.00    +0.076 A 
ATOM     10  C   UNL     1      -2.616   1.875   0.538  0.00  0.00    +0.268 A 
ATOM     11  O   UNL     1      -2.872   0.768   0.980  0.00  0.00    -0.267 OA
ATOM     12  N   UNL     1      -3.579   2.694   0.052  0.00  0.00    -0.255 N 
ATOM     13  C   UNL     1      -3.314   3.936  -0.446  0.00  0.00    +0.178 A 
ATOM     14  N   UNL     1      -2.089   4.441  -0.496  0.00  0.00    -0.215 NA
ATOM     15  C   UNL     1       2.457   1.928   1.215  0.00  0.00    +0.046 C 
ENDROOT
BRANCH  12  16
ATOM     16  C   UNL     1      -4.907   2.246   0.063  0.00  0.00    +0.052 A 
ATOM     17  C   UNL     1      -5.715   2.494   1.164  0.00  0.00    +0.028 A 
ATOM     18  C   UNL     1      -7.025   2.055   1.170  0.00  0.00    +0.022 A 
ATOM     19  C   UNL     1      -7.529   1.362   0.084  0.00  0.00    +0.041 A 
ATOM     20  C   UNL     1      -6.723   1.109  -1.013  0.00  0.00    +0.022 A 
ATOM     21  C   UNL     1      -5.414   1.550  -1.026  0.00  0.00    +0.028 A 
ATOM     22 CL   UNL     1      -9.173   0.807   0.097  0.00  0.00    -0.084 Cl
ENDBRANCH  12  16
BRANCH  13  23
ATOM     23  S   UNL     1      -4.655   4.908  -1.049  0.00  0.00    -0.079 S 
BRANCH  23  24
ATOM     24  C   UNL     1      -3.759   6.393  -1.567  0.00  0.00    +0.153 C 
BRANCH  24  25
ATOM     25  C   UNL     1      -4.732   7.395  -2.132  0.00  0.00    +0.146 A 
ATOM     26  N   UNL     1      -5.010   7.387  -3.424  0.00  0.00    -0.199 NA
ATOM     27  C   UNL     1      -5.872   8.267  -3.927  0.00  0.00    +0.217 A 
ATOM     28  N   UNL     1      -6.446   9.162  -3.129  0.00  0.00    -0.181 NA
ATOM     29  C   UNL     1      -6.160   9.170  -1.832  0.00  0.00    +0.217 A 
ATOM     30  N   UNL     1      -5.300   8.283  -1.336  0.00  0.00    -0.199 NA
ATOM     31  N   UNL     1      -6.753  10.098  -1.000  0.00  0.00    -0.327 N 
ATOM     32  N   UNL     1      -6.167   8.254  -5.275  0.00  0.00    -0.327 N 
ATOM     33  H   UNL     1      -6.544  10.103  -0.053  0.00  0.00    +0.145 HD
ATOM     34  H   UNL     1      -7.380  10.743  -1.362  0.00  0.00    +0.145 HD
ATOM     35  H   UNL     1      -6.792   8.898  -5.641  0.00  0.00    +0.145 HD
ATOM     36  H   UNL     1      -5.747   7.601  -5.856  0.00  0.00    +0.145 HD
ENDBRANCH  24  25
ENDBRANCH  23  24
ENDBRANCH  13  23
TORSDOF 4
