REMARK  Name = ZINC32602063
REMARK  8 active torsions:
REMARK  status: ('A' for Active; 'I' for Inactive)
REMARK    1  A    between atoms: C_1  and  C_2
REMARK    2  A    between atoms: C_7  and  C_8
REMARK    3  A    between atoms: N_9  and  S_12
REMARK    4  A    between atoms: S_12  and  C_15
REMARK    5  A    between atoms: C_17  and  C_25
REMARK    6  A    between atoms: C_20  and  C_21
REMARK    7  A    between atoms: C_21  and  C_22
REMARK    8  A    between atoms: C_21  and  C_23
REMARK                            x       y       z     vdW  Elec       q    Type
REMARK                         _______ _______ _______ _____ _____    ______ ____
ROOT
ATOM      1  S   UNL     1       1.930  -1.912  -0.027  0.00  0.00    +0.086 S 
ATOM      2  O   UNL     1       1.231  -2.607  -1.050  0.00  0.00    -0.148 OA
ATOM      3  O   UNL     1       3.347  -1.800  -0.013  0.00  0.00    -0.148 OA
ENDROOT
BRANCH   1  12
ATOM      4  C   UNL     1      -3.727   2.088   0.050  0.00  0.00    +0.044 C 
ATOM      5  C   UNL     1      -2.408   1.359   0.033  0.00  0.00    -0.045 A 
ATOM      6  C   UNL     1      -1.242   2.072   0.030  0.00  0.00    +0.033 A 
ATOM      7  C   UNL     1      -0.017   1.401   0.010  0.00  0.00    +0.091 A 
ATOM      8  C   UNL     1       0.002  -0.004   0.002  0.00  0.00    +0.092 A 
ATOM      9  C   UNL     1      -1.192  -0.711   0.010  0.00  0.00    +0.033 A 
ATOM     10  C   UNL     1      -2.390  -0.028   0.025  0.00  0.00    -0.045 A 
ATOM     11  C   UNL     1      -3.688  -0.793   0.034  0.00  0.00    +0.044 C 
ATOM     12  N   UNL     1       1.334  -0.367  -0.013  0.00  0.00    -0.199 N 
ATOM     13  C   UNL     1       2.066   0.780  -0.013  0.00  0.00    +0.223 A 
ATOM     14  N   UNL     1       1.276   1.814  -0.000  0.00  0.00    -0.234 NA
ENDBRANCH   1  12
BRANCH   1  15
ATOM     15  C   UNL     1       1.469  -2.663   1.499  0.00  0.00    +0.115 A 
ATOM     16  C   UNL     1       0.598  -3.736   1.505  0.00  0.00    +0.033 A 
ATOM     17  C   UNL     1       0.236  -4.326   2.701  0.00  0.00    -0.035 A 
ATOM     18  C   UNL     1       0.746  -3.842   3.893  0.00  0.00    +0.021 A 
ATOM     19  C   UNL     1       1.617  -2.768   3.886  0.00  0.00    +0.021 A 
ATOM     20  C   UNL     1       1.982  -2.182   2.688  0.00  0.00    -0.017 A 
ATOM     21 BR   UNL     1       0.252  -4.649   5.530  0.00  0.00    -0.050 Br
ATOM     22  C   UNL     1      -0.713  -5.496   2.708  0.00  0.00    +0.045 C 
BRANCH  20  23
ATOM     23  C   UNL     1       2.936  -1.015   2.681  0.00  0.00    +0.015 C 
ATOM     24  C   UNL     1       2.341   0.136   3.494  0.00  0.00    +0.012 C 
ATOM     25  C   UNL     1       4.269  -1.442   3.300  0.00  0.00    +0.012 C 
ENDBRANCH  20  23
ENDBRANCH   1  15
TORSDOF 3
