REMARK  Name = ZINC00952379
REMARK  5 active torsions:
REMARK  status: ('A' for Active; 'I' for Inactive)
REMARK    1  A    between atoms: C_1  and  C_2
REMARK    2  A    between atoms: C_11  and  S_15
REMARK    3  A    between atoms: S_15  and  C_16
REMARK    4  A    between atoms: C_16  and  C_17
REMARK    5  A    between atoms: N_19  and  C_20
REMARK                            x       y       z     vdW  Elec       q    Type
REMARK                         _______ _______ _______ _____ _____    ______ ____
ROOT
ATOM      1  C   UNL     1      10.478   8.201   0.787  0.00  0.00    +0.008 C 
ATOM      2  C   UNL     1       8.972   8.305   1.036  0.00  0.00    -0.009 C 
ATOM      3  C   UNL     1       8.226   7.356   0.094  0.00  0.00    +0.008 C 
ATOM      4  C   UNL     1       6.755   7.270   0.503  0.00  0.00    +0.037 C 
ATOM      5  C   UNL     1       6.187   8.683   0.600  0.00  0.00    -0.025 A 
ATOM      6  C   UNL     1       7.005   9.748   0.714  0.00  0.00    -0.004 A 
ATOM      7  S   UNL     1       5.927  11.154   0.794  0.00  0.00    -0.073 S 
ATOM      8  C   UNL     1       4.374  10.306   0.673  0.00  0.00    +0.113 A 
ATOM      9  C   UNL     1       4.748   8.950   0.581  0.00  0.00    +0.043 A 
ATOM     10  C   UNL     1       3.672   8.026   0.464  0.00  0.00    +0.109 A 
ATOM     11  N   UNL     1       2.429   8.483   0.460  0.00  0.00    -0.229 NA
ATOM     12  C   UNL     1       2.152   9.771   0.556  0.00  0.00    +0.223 A 
ATOM     13  N   UNL     1       3.108  10.674   0.662  0.00  0.00    -0.228 NA
ATOM     14  C   UNL     1       8.503   9.741   0.763  0.00  0.00    +0.046 C 
ENDROOT
BRANCH  10  15
ATOM     15  S   UNL     1       3.989   6.298   0.333  0.00  0.00    -0.096 S 
BRANCH  15  16
ATOM     16  C   UNL     1       2.293   5.675   0.226  0.00  0.00    +0.171 C 
BRANCH  16  17
ATOM     17  C   UNL     1       2.317   4.173   0.104  0.00  0.00    +0.227 C 
ATOM     18  O   UNL     1       3.376   3.582   0.091  0.00  0.00    -0.275 OA
ATOM     19  N   UNL     1       1.161   3.486   0.010  0.00  0.00    -0.285 N 
ATOM     20  H   UNL     1       0.318   3.962  -0.057  0.00  0.00    +0.155 HD
BRANCH  19  21
ATOM     21  C   UNL     1       1.177   2.086   0.008  0.00  0.00    +0.033 A 
ATOM     22  C   UNL     1       2.134   1.400   0.744  0.00  0.00    +0.025 A 
ATOM     23  C   UNL     1       2.147   0.019   0.741  0.00  0.00    +0.022 A 
ATOM     24  C   UNL     1       1.208  -0.681   0.004  0.00  0.00    +0.041 A 
ATOM     25  C   UNL     1       0.253   0.000  -0.731  0.00  0.00    +0.022 A 
ATOM     26  C   UNL     1       0.236   1.381  -0.731  0.00  0.00    +0.025 A 
ATOM     27 CL   UNL     1       1.227  -2.417   0.002  0.00  0.00    -0.084 Cl
ENDBRANCH  19  21
ENDBRANCH  16  17
ENDBRANCH  15  16
ENDBRANCH  10  15
TORSDOF 4
