REMARK  Name = ZINC22852035
REMARK  6 active torsions:
REMARK  status: ('A' for Active; 'I' for Inactive)
REMARK    1  A    between atoms: C_1  and  C_2
REMARK    2  A    between atoms: C_5  and  C_33
REMARK    3  A    between atoms: N_8  and  C_10
REMARK    4  A    between atoms: C_10  and  C_12
REMARK    5  A    between atoms: C_10  and  C_19
REMARK    6  A    between atoms: C_25  and  C_27
REMARK                            x       y       z     vdW  Elec       q    Type
REMARK                         _______ _______ _______ _____ _____    ______ ____
ROOT
ATOM      1  C   UNL     1       2.787  -0.345  -2.509  0.00  0.00    +0.006 C 
ENDROOT
BRANCH   1   7
ATOM      2  C   UNL     1      -0.019   1.526   0.010  0.00  0.00    +0.005 C 
ATOM      3  C   UNL     1       0.002  -0.004   0.002  0.00  0.00    -0.031 C 
ATOM      4  C   UNL     1       0.743  -0.512   1.242  0.00  0.00    +0.003 C 
ATOM      5  C   UNL     1       2.194  -0.026   1.196  0.00  0.00    -0.031 C 
ATOM      6  C   UNL     1       2.851  -0.519  -0.096  0.00  0.00    -0.074 C 
ATOM      7  N   UNL     1       2.106  -0.006  -1.252  0.00  0.00    +0.388 N 
ATOM      8  C   UNL     1       0.723  -0.498  -1.254  0.00  0.00    -0.074 C 
ATOM      9  C   UNL     1       2.957  -0.579   2.401  0.00  0.00    +0.005 C 
ATOM     10  H   UNL     1       2.072   1.090  -1.169  0.00  0.00    -0.080 HD
ENDBRANCH   1   7
BRANCH   1  11
ATOM     11  C   UNL     1       4.166   0.264  -2.513  0.00  0.00    +0.050 A 
ATOM     12  C   UNL     1       5.332  -0.290  -2.866  0.00  0.00    +0.282 A 
ATOM     13  N   UNL     1       6.498   0.432  -2.805  0.00  0.00    -0.169 N 
ATOM     14  C   UNL     1       6.409   1.723  -2.362  0.00  0.00    +0.200 A 
ATOM     15  S   UNL     1       4.672   1.910  -2.041  0.00  0.00    -0.050 S 
ATOM     16  N   UNL     1       7.593   2.270  -2.357  0.00  0.00    -0.197 NA
ATOM     17  C   UNL     1       8.495   1.377  -2.788  0.00  0.00    +0.218 A 
ATOM     18  N   UNL     1       7.880   0.249  -3.072  0.00  0.00    -0.138 NA
ATOM     19  O   UNL     1       5.361  -1.582  -3.293  0.00  0.00    -0.265 OA
BRANCH  17  20
ATOM     20  C   UNL     1       9.946   1.620  -2.924  0.00  0.00    +0.173 A 
ATOM     21  C   UNL     1      10.590   2.782  -2.634  0.00  0.00    +0.053 A 
ATOM     22  C   UNL     1      11.956   2.568  -2.908  0.00  0.00    +0.042 A 
ATOM     23  C   UNL     1      12.076   1.300  -3.348  0.00  0.00    +0.196 A 
ATOM     24  O   UNL     1      10.861   0.729  -3.351  0.00  0.00    -0.460 OA
ENDBRANCH  17  20
ENDBRANCH   1  11
BRANCH   1  25
ATOM     25  C   UNL     1       1.996   0.197  -3.671  0.00  0.00    -0.055 A 
ATOM     26  C   UNL     1       1.403   1.443  -3.583  0.00  0.00    +0.002 A 
ATOM     27  C   UNL     1       0.681   1.943  -4.651  0.00  0.00    +0.001 A 
ATOM     28  C   UNL     1       0.543   1.193  -5.803  0.00  0.00    +0.015 A 
ATOM     29  C   UNL     1       1.131  -0.056  -5.890  0.00  0.00    +0.018 A 
ATOM     30  C   UNL     1       1.858  -0.554  -4.823  0.00  0.00    +0.017 A 
ATOM     31 BR   UNL     1       0.941  -1.083  -7.467  0.00  0.00    -0.050 Br
ENDBRANCH   1  25
TORSDOF 4
