REMARK  Name = ZINC40095171
REMARK  10 active torsions:
REMARK  status: ('A' for Active; 'I' for Inactive)
REMARK    1  A    between atoms: C_1  and  C_2
REMARK    2  A    between atoms: C_7  and  C_12
REMARK    3  A    between atoms: C_12  and  C_14
REMARK    4  A    between atoms: N_18  and  C_31
REMARK    5  A    between atoms: C_19  and  C_21
REMARK    6  A    between atoms: C_31  and  C_32
REMARK    7  A    between atoms: C_32  and  O_33
REMARK    8  A    between atoms: O_33  and  C_34
REMARK    9  A    between atoms: C_34  and  C_35
REMARK   10  A    between atoms: C_35  and  O_36
REMARK                            x       y       z     vdW  Elec       q    Type
REMARK                         _______ _______ _______ _____ _____    ______ ____
ROOT
ATOM      1  C   UNL     1       7.232  -1.470  -0.207  0.00  0.00    +0.076 C 
ATOM      2  C   UNL     1       8.575  -1.550  -0.351  0.00  0.00    +0.249 C 
ATOM      3  C   UNL     1       9.212  -1.485   0.981  0.00  0.00    +0.288 C 
ATOM      4  O   UNL     1      10.409  -1.532   1.185  0.00  0.00    -0.266 OA
ATOM      5  N   UNL     1       8.270  -1.367   1.934  0.00  0.00    -0.281 N 
ATOM      6  C   UNL     1       6.960  -1.341   1.274  0.00  0.00    +0.145 C 
ATOM      7  O   UNL     1       9.231  -1.670  -1.529  0.00  0.00    -0.282 OA
ENDROOT
BRANCH   6   8
ATOM      8  C   UNL     1       6.120  -2.499   1.749  0.00  0.00    -0.015 A 
ATOM      9  C   UNL     1       6.716  -3.615   2.251  0.00  0.00    +0.006 A 
ATOM     10  C   UNL     1       5.957  -4.696   2.695  0.00  0.00    +0.001 A 
ATOM     11  C   UNL     1       4.597  -4.666   2.639  0.00  0.00    +0.008 A 
ATOM     12  C   UNL     1       3.946  -3.531   2.127  0.00  0.00    -0.018 A 
ATOM     13  C   UNL     1       4.719  -2.429   1.681  0.00  0.00    -0.013 A 
ATOM     14  C   UNL     1       4.067  -1.292   1.175  0.00  0.00    +0.009 A 
ATOM     15  C   UNL     1       2.708  -1.260   1.125  0.00  0.00    +0.001 A 
ATOM     16  C   UNL     1       1.948  -2.341   1.569  0.00  0.00    +0.001 A 
ATOM     17  C   UNL     1       2.544  -3.464   2.054  0.00  0.00    +0.008 A 
ENDBRANCH   6   8
BRANCH   1  18
ATOM     18  C   UNL     1       6.234  -1.497  -1.281  0.00  0.00    +0.195 C 
ATOM     19  O   UNL     1       5.691  -0.466  -1.633  0.00  0.00    -0.287 OA
BRANCH  18  25
ATOM     20  C   UNL     1       2.390  -6.385  -3.422  0.00  0.00    +0.052 C 
ATOM     21  C   UNL     1       3.471  -5.931  -4.406  0.00  0.00    +0.175 C 
ATOM     22  C   UNL     1       3.498  -4.389  -4.518  0.00  0.00    +0.083 C 
ATOM     23  C   UNL     1       4.543  -4.018  -3.483  0.00  0.00    -0.002 A 
ATOM     24  C   UNL     1       4.858  -2.826  -2.880  0.00  0.00    +0.019 A 
ATOM     25  C   UNL     1       5.887  -2.774  -1.934  0.00  0.00    +0.023 A 
ATOM     26  C   UNL     1       6.585  -3.942  -1.613  0.00  0.00    +0.015 A 
ATOM     27  C   UNL     1       6.264  -5.130  -2.226  0.00  0.00    +0.046 A 
ATOM     28  C   UNL     1       5.239  -5.183  -3.173  0.00  0.00    +0.124 A 
ATOM     29  O   UNL     1       4.780  -6.241  -3.901  0.00  0.00    -0.488 OA
ENDBRANCH  18  25
ENDBRANCH   1  18
BRANCH   5  30
ATOM     30  C   UNL     1       8.510  -1.275   3.377  0.00  0.00    +0.137 C 
BRANCH  30  31
ATOM     31  C   UNL     1       8.668   0.194   3.774  0.00  0.00    +0.179 C 
BRANCH  31  32
ATOM     32  O   UNL     1       7.436   0.883   3.552  0.00  0.00    -0.376 OA
BRANCH  32  33
ATOM     33  C   UNL     1       7.476   2.270   3.893  0.00  0.00    +0.187 C 
BRANCH  33  34
ATOM     34  C   UNL     1       6.111   2.903   3.615  0.00  0.00    +0.184 C 
BRANCH  34  35
ATOM     35  O   UNL     1       5.133   2.327   4.484  0.00  0.00    -0.393 OA
ATOM     36  H   UNL     1       4.242   2.682   4.363  0.00  0.00    +0.209 HD
ENDBRANCH  34  35
ENDBRANCH  33  34
ENDBRANCH  32  33
ENDBRANCH  31  32
ENDBRANCH  30  31
ENDBRANCH   5  30
TORSDOF 9
