REMARK  Name = ZINC41083338
REMARK  9 active torsions:
REMARK  status: ('A' for Active; 'I' for Inactive)
REMARK    1  A    between atoms: C_1  and  C_2
REMARK    2  A    between atoms: C_2  and  C_3
REMARK    3  A    between atoms: C_3  and  C_4
REMARK    4  A    between atoms: C_10  and  C_11
REMARK    5  A    between atoms: C_14  and  O_17
REMARK    6  A    between atoms: O_17  and  C_18
REMARK    7  A    between atoms: C_18  and  C_19
REMARK    8  A    between atoms: C_27  and  C_29
REMARK    9  A    between atoms: C_29  and  C_30
REMARK                            x       y       z     vdW  Elec       q    Type
REMARK                         _______ _______ _______ _____ _____    ______ ____
ROOT
ATOM      1  C   UNL     1      -1.441  -8.714   0.227  0.00  0.00    -0.024 A 
ATOM      2  C   UNL     1      -0.677  -9.152   1.318  0.00  0.00    +0.011 A 
ATOM      3  C   UNL     1      -0.849 -10.417   1.805  0.00  0.00    +0.046 A 
ATOM      4  C   UNL     1      -1.781 -11.269   1.222  0.00  0.00    +0.121 A 
ATOM      5  C   UNL     1      -2.542 -10.840   0.139  0.00  0.00    +0.046 A 
ATOM      6  C   UNL     1      -2.382  -9.576  -0.354  0.00  0.00    +0.011 A 
ENDROOT
BRANCH   1  13
ATOM      7  C   UNL     1       2.557  -2.972   0.774  0.00  0.00    +0.100 C 
ATOM      8  N   UNL     1       1.472  -3.427   0.215  0.00  0.00    -0.169 NA
ATOM      9  N   UNL     1       1.295  -4.775  -0.010  0.00  0.00    -0.152 N 
ATOM     10  C   UNL     1       0.203  -5.362  -0.685  0.00  0.00    +0.152 C 
ATOM     11  N   UNL     1      -0.550  -4.713  -1.532  0.00  0.00    -0.283 NA
ATOM     12  C   UNL     1      -0.004  -6.797  -0.336  0.00  0.00    +0.081 C 
ATOM     13  C   UNL     1      -1.260  -7.360  -0.301  0.00  0.00    +0.024 C 
ATOM     14  C   UNL     1       1.215  -7.585  -0.030  0.00  0.00    +0.273 C 
ATOM     15  O   UNL     1       1.234  -8.796  -0.179  0.00  0.00    -0.268 OA
ATOM     16  N   UNL     1       2.301  -6.925   0.417  0.00  0.00    -0.152 NA
ATOM     17  C   UNL     1       2.289  -5.615   0.443  0.00  0.00    +0.181 C 
ATOM     18  S   UNL     1       3.493  -4.468   1.058  0.00  0.00    -0.038 S 
ATOM     19  H   UNL     1      -0.371  -3.780  -1.724  0.00  0.00    +0.188 HD
BRANCH   7  20
ATOM     20  C   UNL     1       2.931  -1.547   1.093  0.00  0.00    +0.064 C 
BRANCH  20  22
ATOM     21  C   UNL     1       2.178   0.833   0.983  0.00  0.00    +0.004 C 
ATOM     22  C   UNL     1       1.799  -0.614   0.659  0.00  0.00    +0.003 C 
ENDBRANCH  20  22
ENDBRANCH   7  20
ENDBRANCH   1  13
BRANCH   4  23
ATOM     23  O   UNL     1      -1.948 -12.524   1.710  0.00  0.00    -0.486 OA
BRANCH  23  24
ATOM     24  C   UNL     1      -2.921 -13.348   1.064  0.00  0.00    +0.284 C 
BRANCH  24  25
ATOM     25  C   UNL     1      -2.966 -14.695   1.738  0.00  0.00    +0.087 A 
ATOM     26  C   UNL     1      -4.101 -15.109   2.402  0.00  0.00    +0.099 A 
ATOM     27  C   UNL     1      -4.123 -16.360   3.020  0.00  0.00    +0.275 A 
ATOM     28  O   UNL     1      -5.126 -16.733   3.609  0.00  0.00    -0.266 OA
ATOM     29  N   UNL     1      -3.023 -17.166   2.964  0.00  0.00    -0.171 N 
ATOM     30  C   UNL     1      -1.941 -16.677   2.285  0.00  0.00    +0.199 A 
ATOM     31  N   UNL     1      -1.913 -15.507   1.698  0.00  0.00    -0.223 NA
ATOM     32  S   UNL     1      -0.757 -17.996   2.446  0.00  0.00    -0.033 S 
ATOM     33  C   UNL     1      -1.776 -19.108   3.403  0.00  0.00    +0.102 A 
ATOM     34  N   UNL     1      -2.878 -18.433   3.522  0.00  0.00    -0.159 NA
BRANCH  33  35
ATOM     35  C   UNL     1      -1.442 -20.479   3.934  0.00  0.00    +0.061 C 
ATOM     36  C   UNL     1      -2.646 -21.037   4.695  0.00  0.00    +0.011 C 
ENDBRANCH  33  35
ENDBRANCH  24  25
ENDBRANCH  23  24
ENDBRANCH   4  23
TORSDOF 7
