REMARK  Name = ZINC00071717
REMARK  9 active torsions:
REMARK  status: ('A' for Active; 'I' for Inactive)
REMARK    1  A    between atoms: C_1  and  C_2
REMARK    2  A    between atoms: C_3  and  N_9
REMARK    3  A    between atoms: N_9  and  C_10
REMARK    4  A    between atoms: C_10  and  N_12
REMARK    5  A    between atoms: N_12  and  N_13
REMARK    6  A    between atoms: C_14  and  C_15
REMARK    7  A    between atoms: C_18  and  N_21
REMARK    8  A    between atoms: N_21  and  C_22
REMARK    9  A    between atoms: N_21  and  C_23
REMARK                            x       y       z     vdW  Elec       q    Type
REMARK                         _______ _______ _______ _____ _____    ______ ____
ROOT
ATOM      1  N   UNL     1      -0.021   5.491  -0.170  0.00  0.00    -0.218 N 
ATOM      2  H   UNL     1      -0.864   5.966  -0.233  0.00  0.00    +0.176 HD
ENDROOT
BRANCH   1   3
ATOM      3  C   UNL     1      -0.011   4.146  -0.076  0.00  0.00    +0.154 C 
ATOM      4  S   UNL     1      -1.486   3.278  -0.067  0.00  0.00    -0.017 S 
BRANCH   3   5
ATOM      5  N   UNL     1       1.161   3.485   0.010  0.00  0.00    -0.295 N 
ATOM      6  H   UNL     1       1.992   3.980   0.085  0.00  0.00    +0.154 HD
BRANCH   5   9
ATOM      7  C   UNL     1       2.821   2.138   1.888  0.00  0.00    +0.047 C 
ATOM      8  C   UNL     1       1.974   1.389   0.891  0.00  0.00    -0.011 A 
ATOM      9  C   UNL     1       1.178   2.087  -0.008  0.00  0.00    +0.037 A 
ATOM     10  C   UNL     1       0.398   1.393  -0.924  0.00  0.00    +0.023 A 
ATOM     11  C   UNL     1       0.417   0.012  -0.940  0.00  0.00    +0.003 A 
ATOM     12  C   UNL     1       1.209  -0.680  -0.044  0.00  0.00    +0.020 A 
ATOM     13  C   UNL     1       1.988   0.007   0.871  0.00  0.00    +0.046 A 
ATOM     14 CL   UNL     1       2.982  -0.867   1.994  0.00  0.00    -0.083 Cl
ENDBRANCH   5   9
ENDBRANCH   3   5
ENDBRANCH   1   3
BRANCH   1  15
ATOM     15  N   UNL     1       1.187   6.201  -0.178  0.00  0.00    -0.188 NA
ATOM     16  C   UNL     1       1.177   7.496  -0.268  0.00  0.00    +0.138 C 
BRANCH  16  17
ATOM     17  C   UNL     1       2.448   8.244  -0.276  0.00  0.00    -0.005 A 
ATOM     18  C   UNL     1       3.663   7.561  -0.180  0.00  0.00    +0.011 A 
ATOM     19  C   UNL     1       4.848   8.262  -0.193  0.00  0.00    +0.024 A 
ATOM     20  C   UNL     1       4.836   9.650  -0.289  0.00  0.00    +0.029 A 
ATOM     21  C   UNL     1       3.628  10.333  -0.380  0.00  0.00    +0.024 A 
ATOM     22  C   UNL     1       2.439   9.638  -0.373  0.00  0.00    +0.011 A 
BRANCH  20  23
ATOM     23  N   UNL     1       6.038  10.357  -0.295  0.00  0.00    -0.336 N 
ATOM     24  C   UNL     1       6.027  11.819  -0.397  0.00  0.00    +0.129 C 
ATOM     25  C   UNL     1       7.312   9.639  -0.200  0.00  0.00    +0.129 C 
ENDBRANCH  20  23
ENDBRANCH  16  17
ENDBRANCH   1  15
TORSDOF 6
