REMARK  Name = ZINC63695263
REMARK  2 active torsions:
REMARK  status: ('A' for Active; 'I' for Inactive)
REMARK    1  A    between atoms: C_13  and  C_15
REMARK    2  A    between atoms: N_18  and  C_21
REMARK                            x       y       z     vdW  Elec       q    Type
REMARK                         _______ _______ _______ _____ _____    ______ ____
ROOT
ATOM      1  C   UNL     1       6.814  -4.060   1.218  0.00  0.00    +0.078 C 
ATOM      2  C   UNL     1       6.147  -4.657  -0.024  0.00  0.00    +0.028 C 
ATOM      3  C   UNL     1       6.209  -6.184   0.054  0.00  0.00    +0.089 C 
ATOM      4  N   UNL     1       7.611  -6.615   0.134  0.00  0.00    -0.266 NA
ATOM      5  C   UNL     1       8.258  -6.092   1.344  0.00  0.00    +0.089 C 
ATOM      6  C   UNL     1       8.257  -4.562   1.304  0.00  0.00    +0.028 C 
ENDROOT
BRANCH   1  19
ATOM      7  C   UNL     1       0.913   1.504   4.594  0.00  0.00    +0.039 A 
ATOM      8  C   UNL     1       0.896   0.118   4.583  0.00  0.00    +0.116 A 
ATOM      9  N   UNL     1       1.973  -0.537   4.182  0.00  0.00    -0.223 NA
ATOM     10  C   UNL     1       3.058   0.116   3.793  0.00  0.00    +0.218 A 
ATOM     11  N   UNL     1       3.107   1.440   3.792  0.00  0.00    -0.223 NA
ATOM     12  C   UNL     1       2.065   2.156   4.181  0.00  0.00    +0.116 A 
ATOM     13  N   UNL     1       4.167  -0.601   3.379  0.00  0.00    -0.297 N 
ATOM     14  C   UNL     1       4.144  -2.071   3.363  0.00  0.00    +0.127 C 
ATOM     15  C   UNL     1       4.508  -2.551   1.953  0.00  0.00    +0.127 C 
ATOM     16  N   UNL     1       5.729  -1.857   1.521  0.00  0.00    -0.298 N 
ATOM     17  C   UNL     1       5.752  -0.388   1.537  0.00  0.00    +0.127 C 
ATOM     18  C   UNL     1       5.386   0.093   2.942  0.00  0.00    +0.127 C 
ATOM     19  C   UNL     1       6.809  -2.556   1.118  0.00  0.00    +0.219 C 
ATOM     20  O   UNL     1       7.777  -1.975   0.675  0.00  0.00    -0.275 OA
ENDBRANCH   1  19
BRANCH   4  21
ATOM     21  C   UNL     1       7.716  -8.079   0.071  0.00  0.00    +0.252 C 
ATOM     22  N   UNL     1       6.844  -8.691   1.081  0.00  0.00    -0.351 N 
ATOM     23  C   UNL     1       5.978  -9.432   0.453  0.00  0.00    +0.061 A 
ATOM     24  C   UNL     1       4.868 -10.279   0.913  0.00  0.00    +0.029 A 
ATOM     25  C   UNL     1       4.123 -10.947   0.011  0.00  0.00    +0.022 A 
ATOM     26  C   UNL     1       4.362 -10.871  -1.375  0.00  0.00    +0.043 A 
ATOM     27  C   UNL     1       5.354 -10.123  -1.902  0.00  0.00    +0.047 A 
ATOM     28  C   UNL     1       6.230  -9.351  -1.012  0.00  0.00    +0.063 A 
ATOM     29  N   UNL     1       7.244  -8.562  -1.233  0.00  0.00    -0.351 N 
ATOM     30 CL   UNL     1       3.339 -11.775  -2.447  0.00  0.00    -0.083 Cl
ATOM     31  H   UNL     1       6.903  -8.566   2.042  0.00  0.00    +0.163 HD
ATOM     32  H   UNL     1       7.618  -8.335  -2.099  0.00  0.00    +0.163 HD
ENDBRANCH   4  21
TORSDOF 2
