REMARK  Name = ZINC02725948
REMARK  7 active torsions:
REMARK  status: ('A' for Active; 'I' for Inactive)
REMARK    1  A    between atoms: C_1  and  C_2
REMARK    2  A    between atoms: C_2  and  N_3
REMARK    3  A    between atoms: C_4  and  C_25
REMARK    4  A    between atoms: C_7  and  S_8
REMARK    5  A    between atoms: S_8  and  C_9
REMARK    6  A    between atoms: C_9  and  C_10
REMARK    7  A    between atoms: N_12  and  C_13
REMARK                            x       y       z     vdW  Elec       q    Type
REMARK                         _______ _______ _______ _____ _____    ______ ____
ROOT
ATOM      1  C   UNL     1      -1.150  -0.694   0.111  0.00  0.00    +0.227 C 
ATOM      2  O   UNL     1      -2.211  -0.106   0.124  0.00  0.00    -0.275 OA
ATOM      3  N   UNL     1       0.002  -0.004   0.002  0.00  0.00    -0.285 N 
ATOM      4  H   UNL     1       0.844  -0.477  -0.086  0.00  0.00    +0.155 HD
ENDROOT
BRANCH   3   5
ATOM      5  C   UNL     1      -0.016   1.397   0.015  0.00  0.00    +0.035 A 
ATOM      6  C   UNL     1       0.914   2.110  -0.732  0.00  0.00    +0.025 A 
ATOM      7  C   UNL     1       0.897   3.490  -0.728  0.00  0.00    +0.029 A 
ATOM      8  C   UNL     1      -0.043   4.168   0.034  0.00  0.00    +0.067 A 
ATOM      9  C   UNL     1      -0.974   3.455   0.791  0.00  0.00    +0.069 A 
ATOM     10  C   UNL     1      -0.959   2.069   0.779  0.00  0.00    +0.051 A 
ATOM     11  N   UNL     1      -1.773   4.395   1.437  0.00  0.00    -0.306 N 
ATOM     12  H   UNL     1      -2.510   4.198   2.036  0.00  0.00    +0.170 HD
ATOM     13  C   UNL     1      -1.348   5.625   1.090  0.00  0.00    +0.325 A 
ATOM     14  O   UNL     1      -1.832   6.670   1.481  0.00  0.00    -0.247 OA
ATOM     15  N   UNL     1      -0.305   5.522   0.245  0.00  0.00    -0.306 N 
ATOM     16  H   UNL     1       0.181   6.263  -0.150  0.00  0.00    +0.170 HD
ENDBRANCH   3   5
BRANCH   1  17
ATOM     17  C   UNL     1      -1.121  -2.197   0.216  0.00  0.00    +0.173 C 
BRANCH  17  18
ATOM     18  S   UNL     1      -2.814  -2.825   0.349  0.00  0.00    -0.077 S 
BRANCH  18  23
ATOM     19  N   UNL     1      -3.423  -5.547   0.574  0.00  0.00    -0.302 N 
ATOM     20  C   UNL     1      -2.708  -6.724   0.619  0.00  0.00    +0.171 A 
ATOM     21  N   UNL     1      -1.436  -6.404   0.530  0.00  0.00    -0.128 NA
ATOM     22  N   UNL     1      -1.310  -5.129   0.428  0.00  0.00    -0.122 NA
ATOM     23  C   UNL     1      -2.491  -4.554   0.455  0.00  0.00    +0.192 A 
BRANCH  20  24
ATOM     24  C   UNL     1      -3.263  -8.081   0.744  0.00  0.00    +0.056 A 
ATOM     25  C   UNL     1      -2.654  -9.289   0.515  0.00  0.00    +0.019 A 
ATOM     26  C   UNL     1      -3.381 -10.442   0.705  0.00  0.00    +0.008 A 
ATOM     27  C   UNL     1      -4.677 -10.351   1.100  0.00  0.00    +0.046 A 
ATOM     28  S   UNL     1      -4.907  -8.585   1.226  0.00  0.00    -0.094 S 
ENDBRANCH  20  24
BRANCH  19  30
ATOM     29  C   UNL     1      -5.461  -5.441  -0.774  0.00  0.00    +0.027 C 
ATOM     30  C   UNL     1      -4.879  -5.393   0.639  0.00  0.00    +0.122 C 
ENDBRANCH  19  30
ENDBRANCH  18  23
ENDBRANCH  17  18
ENDBRANCH   1  17
TORSDOF 6
