REMARK  Name = ZINC40944157
REMARK  9 active torsions:
REMARK  status: ('A' for Active; 'I' for Inactive)
REMARK    1  A    between atoms: C_1  and  C_2
REMARK    2  A    between atoms: C_4  and  O_12
REMARK    3  A    between atoms: C_5  and  C_9
REMARK    4  A    between atoms: C_9  and  C_10
REMARK    5  A    between atoms: C_9  and  C_11
REMARK    6  A    between atoms: O_12  and  C_13
REMARK    7  A    between atoms: C_13  and  C_14
REMARK    8  A    between atoms: C_19  and  C_22
REMARK    9  A    between atoms: C_26  and  N_28
REMARK                            x       y       z     vdW  Elec       q    Type
REMARK                         _______ _______ _______ _____ _____    ______ ____
ROOT
ATOM      1  C   UNL     1       0.018  -2.879  -4.780  0.00  0.00    +0.256 C 
ATOM      2  O   UNL     1       0.035  -4.082  -4.626  0.00  0.00    -0.272 OA
ATOM      3  N   UNL     1       0.004  -2.358  -6.023  0.00  0.00    -0.262 N 
ATOM      4  C   UNL     1       0.010  -3.200  -7.128  0.00  0.00    +0.165 A 
ATOM      5  N   UNL     1       0.004  -2.893  -8.412  0.00  0.00    -0.225 NA
ATOM      6  C   UNL     1       0.011  -3.834  -9.345  0.00  0.00    +0.080 A 
ATOM      7  C   UNL     1       0.025  -5.149  -8.971  0.00  0.00    +0.076 A 
ATOM      8  S   UNL     1       0.035  -4.986  -7.190  0.00  0.00    -0.060 S 
ATOM      9  H   UNL     1      -0.010  -1.396  -6.146  0.00  0.00    +0.157 HD
ENDROOT
BRANCH   6  10
ATOM     10  C   UNL     1       0.004  -3.464 -10.781  0.00  0.00    +0.003 A 
ATOM     11  C   UNL     1       0.006  -4.457 -11.759  0.00  0.00    +0.010 A 
ATOM     12  C   UNL     1      -0.001  -4.107 -13.094  0.00  0.00    +0.003 A 
ATOM     13  C   UNL     1      -0.009  -2.774 -13.462  0.00  0.00    +0.033 A 
ATOM     14  C   UNL     1      -0.009  -1.784 -12.496  0.00  0.00    +0.127 A 
ATOM     15  C   UNL     1      -0.009  -2.122 -11.158  0.00  0.00    +0.042 A 
BRANCH  14  16
ATOM     16  N   UNL     1      -0.017  -0.359 -12.898  0.00  0.00    +0.056 N 
ATOM     17  O   UNL     1      -0.023  -0.062 -14.070  0.00  0.00    -0.126 OA
ATOM     18  O   UNL     1      -0.018   0.507 -12.054  0.00  0.00    -0.126 OA
ENDBRANCH  14  16
ENDBRANCH   6  10
BRANCH   1  19
ATOM     19  C   UNL     1       0.011  -1.966  -3.581  0.00  0.00    +0.325 C 
BRANCH  19  20
ATOM     20  O   UNL     1       0.028  -2.749  -2.386  0.00  0.00    -0.482 OA
BRANCH  20  24
ATOM     21  C   UNL     1      -0.018   1.503   0.010  0.00  0.00    +0.045 C 
ATOM     22  C   UNL     1       0.002  -0.004   0.002  0.00  0.00    -0.033 A 
ATOM     23  C   UNL     1       0.006  -0.688  -1.199  0.00  0.00    +0.050 A 
ATOM     24  C   UNL     1       0.025  -2.075  -1.206  0.00  0.00    +0.125 A 
ATOM     25  C   UNL     1       0.041  -2.772  -0.006  0.00  0.00    -0.002 A 
ATOM     26  C   UNL     1       0.037  -2.085   1.192  0.00  0.00    +0.023 A 
ATOM     27  C   UNL     1       0.023  -0.702   1.196  0.00  0.00    +0.021 A 
ATOM     28 BR   UNL     1       0.025   0.237   2.838  0.00  0.00    -0.050 Br
BRANCH  25  29
ATOM     29  C   UNL     1       0.061  -4.279  -0.011  0.00  0.00    +0.016 C 
ATOM     30  C   UNL     1       1.321  -4.774   0.702  0.00  0.00    +0.012 C 
ATOM     31  C   UNL     1      -1.177  -4.809   0.715  0.00  0.00    +0.012 C 
ENDBRANCH  25  29
ENDBRANCH  20  24
ENDBRANCH  19  20
ENDBRANCH   1  19
TORSDOF 6
