REMARK  Name = ZINC64143470
REMARK  7 active torsions:
REMARK  status: ('A' for Active; 'I' for Inactive)
REMARK    1  A    between atoms: C_4  and  C_7
REMARK    2  A    between atoms: C_7  and  C_9
REMARK    3  A    between atoms: C_7  and  C_14
REMARK    4  A    between atoms: C_23  and  C_25
REMARK    5  A    between atoms: N_27  and  C_28
REMARK    6  A    between atoms: C_28  and  C_29
REMARK    7  A    between atoms: C_29  and  C_30
REMARK                            x       y       z     vdW  Elec       q    Type
REMARK                         _______ _______ _______ _____ _____    ______ ____
ROOT
ATOM      1  C   UNL     1       3.921  -0.589  -1.251  0.00  0.00    +0.223 C 
ATOM      2  O   UNL     1       3.046  -0.273  -2.028  0.00  0.00    -0.275 OA
ATOM      3  N   UNL     1       4.756  -1.603  -1.553  0.00  0.00    -0.301 N 
ATOM      4  C   UNL     1       5.742  -2.070  -0.570  0.00  0.00    +0.108 C 
ATOM      5  C   UNL     1       7.142  -1.974  -1.190  0.00  0.00    +0.026 C 
ATOM      6  C   UNL     1       7.127  -2.674  -2.553  0.00  0.00    -0.015 C 
ATOM      7  C   UNL     1       6.069  -2.159  -3.534  0.00  0.00    +0.026 C 
ATOM      8  C   UNL     1       4.687  -2.256  -2.866  0.00  0.00    +0.108 C 
ATOM      9  C   UNL     1       7.464  -4.164  -2.589  0.00  0.00    +0.021 C 
ATOM     10  C   UNL     1       8.464  -3.139  -3.128  0.00  0.00    +0.082 C 
ENDROOT
BRANCH  10  11
ATOM     11  C   UNL     1       9.702  -2.878  -2.309  0.00  0.00    +0.217 C 
ATOM     12  O   UNL     1      10.088  -3.707  -1.512  0.00  0.00    -0.275 OA
ATOM     13  N   UNL     1      10.380  -1.723  -2.462  0.00  0.00    -0.315 N 
ATOM     14  H   UNL     1      10.071  -1.060  -3.099  0.00  0.00    +0.149 HD
BRANCH  13  15
ATOM     15  C   UNL     1      11.584  -1.470  -1.666  0.00  0.00    +0.108 C 
BRANCH  15  16
ATOM     16  C   UNL     1      12.156  -0.098  -2.030  0.00  0.00    +0.052 C 
BRANCH  16  17
ATOM     17  C   UNL     1      13.395   0.163  -1.211  0.00  0.00    -0.040 C 
ATOM     18  C   UNL     1      14.676  -0.063  -1.580  0.00  0.00    -0.001 A 
ATOM     19  C   UNL     1      15.278  -0.600  -2.807  0.00  0.00    +0.010 A 
ATOM     20  C   UNL     1      16.623  -0.711  -2.883  0.00  0.00    +0.001 A 
ATOM     21  C   UNL     1      17.456  -0.328  -1.822  0.00  0.00    +0.002 A 
ATOM     22  C   UNL     1      16.977   0.174  -0.664  0.00  0.00    +0.026 A 
ATOM     23  C   UNL     1      15.577   0.335  -0.475  0.00  0.00    +0.043 A 
ATOM     24  N   UNL     1      14.879   0.789   0.538  0.00  0.00    -0.380 N 
ATOM     25  C   UNL     1      13.456   0.736   0.187  0.00  0.00    +0.144 C 
ATOM     26  H   UNL     1      15.244   1.110   1.377  0.00  0.00    +0.160 HD
ENDBRANCH  16  17
ENDBRANCH  15  16
ENDBRANCH  13  15
ENDBRANCH  10  11
BRANCH   1  27
ATOM     27  C   UNL     1       4.075   0.151   0.053  0.00  0.00    +0.108 C 
BRANCH  27  31
ATOM     28  C   UNL     1       7.065   3.172  -0.370  0.00  0.00    +0.000 A 
ATOM     29  C   UNL     1       7.224   2.169   0.568  0.00  0.00    +0.000 A 
ATOM     30  C   UNL     1       6.256   1.191   0.705  0.00  0.00    +0.004 A 
ATOM     31  C   UNL     1       5.130   1.217  -0.096  0.00  0.00    -0.035 A 
ATOM     32  C   UNL     1       4.970   2.221  -1.033  0.00  0.00    +0.004 A 
ATOM     33  C   UNL     1       5.939   3.197  -1.171  0.00  0.00    +0.000 A 
ENDBRANCH  27  31
BRANCH  27  34
ATOM     34  C   UNL     1       2.742   0.801   0.431  0.00  0.00    +0.005 C 
ATOM     35  C   UNL     1       2.900   1.610   1.734  0.00  0.00    +0.004 C 
ATOM     36  C   UNL     1       1.563   1.388   2.484  0.00  0.00    +0.000 C 
ATOM     37  C   UNL     1       1.241  -0.096   2.176  0.00  0.00    +0.000 C 
ATOM     38  C   UNL     1       1.688  -0.284   0.712  0.00  0.00    +0.004 C 
ENDBRANCH  27  34
ENDBRANCH   1  27
TORSDOF 7
