REMARK  Name = ZINC38729467
REMARK  8 active torsions:
REMARK  status: ('A' for Active; 'I' for Inactive)
REMARK    1  A    between atoms: C_4  and  C_7
REMARK    2  A    between atoms: C_7  and  C_8
REMARK    3  A    between atoms: C_8  and  C_10
REMARK    4  A    between atoms: C_8  and  N_16
REMARK    5  A    between atoms: C_17  and  C_19
REMARK    6  A    between atoms: C_25  and  C_27
REMARK    7  A    between atoms: C_32  and  C_35
REMARK    8  A    between atoms: C_32  and  C_37
REMARK                            x       y       z     vdW  Elec       q    Type
REMARK                         _______ _______ _______ _____ _____    ______ ____
ROOT
ATOM      1  C   UNL     1       4.668   1.726   4.075  0.00  0.00    +0.091 C 
ATOM      2  C   UNL     1       3.676   2.781   3.582  0.00  0.00    +0.040 C 
ATOM      3  C   UNL     1       3.768   4.014   4.432  0.00  0.00    -0.030 C 
ATOM      4  C   UNL     1       4.322   4.049   5.602  0.00  0.00    -0.030 C 
ATOM      5  C   UNL     1       4.958   2.864   6.266  0.00  0.00    +0.040 C 
ATOM      6  C   UNL     1       4.502   1.569   5.592  0.00  0.00    +0.091 C 
ENDROOT
BRANCH   6   7
ATOM      7  C   UNL     1       5.343   0.417   6.078  0.00  0.00    +0.220 C 
ATOM      8  O   UNL     1       6.320   0.071   5.448  0.00  0.00    -0.275 OA
ATOM      9  N   UNL     1       5.009  -0.230   7.212  0.00  0.00    -0.301 N 
ATOM     10  C   UNL     1       3.769   0.102   7.926  0.00  0.00    +0.109 C 
ATOM     11  C   UNL     1       2.960  -1.182   8.134  0.00  0.00    +0.045 C 
ATOM     12  C   UNL     1       3.833  -2.221   8.841  0.00  0.00    +0.085 C 
ATOM     13  C   UNL     1       5.046  -2.550   7.968  0.00  0.00    +0.045 C 
ATOM     14  C   UNL     1       5.875  -1.285   7.755  0.00  0.00    +0.109 C 
BRANCH  12  15
ATOM     15  C   UNL     1       3.031  -3.474   9.078  0.00  0.00    -0.027 A 
ATOM     16  C   UNL     1       1.714  -3.541   8.662  0.00  0.00    +0.005 A 
ATOM     17  C   UNL     1       0.978  -4.690   8.879  0.00  0.00    +0.000 A 
ATOM     18  C   UNL     1       1.558  -5.774   9.512  0.00  0.00    +0.000 A 
ATOM     19  C   UNL     1       2.875  -5.707   9.928  0.00  0.00    +0.000 A 
ATOM     20  C   UNL     1       3.612  -4.559   9.707  0.00  0.00    +0.005 A 
ENDBRANCH  12  15
BRANCH  12  21
ATOM     21  C   UNL     1       4.291  -1.681  10.132  0.00  0.00    +0.074 C 
ATOM     22  N   UNL     1       4.644  -1.264  11.128  0.00  0.00    -0.196 NA
ENDBRANCH  12  21
ENDBRANCH   6   7
BRANCH   1  24
ATOM     23  N   UNL     1       4.464   0.314   2.055  0.00  0.00    -0.308 N 
ATOM     24  C   UNL     1       4.386   0.410   3.397  0.00  0.00    +0.218 C 
ATOM     25  O   UNL     1       4.090  -0.562   4.058  0.00  0.00    -0.275 OA
ATOM     26  H   UNL     1       4.701   1.091   1.526  0.00  0.00    +0.149 HD
BRANCH  23  27
ATOM     27  C   UNL     1       4.191  -0.965   1.395  0.00  0.00    +0.107 C 
BRANCH  27  28
ATOM     28  C   UNL     1       5.444  -1.802   1.383  0.00  0.00    -0.027 A 
ATOM     29  C   UNL     1       6.669  -1.209   1.141  0.00  0.00    +0.005 A 
ATOM     30  C   UNL     1       7.818  -1.977   1.130  0.00  0.00    +0.000 A 
ATOM     31  C   UNL     1       7.742  -3.338   1.361  0.00  0.00    +0.000 A 
ATOM     32  C   UNL     1       6.518  -3.931   1.604  0.00  0.00    +0.000 A 
ATOM     33  C   UNL     1       5.369  -3.162   1.619  0.00  0.00    +0.005 A 
ENDBRANCH  27  28
BRANCH  27  34
ATOM     34  C   UNL     1       3.734  -0.710  -0.043  0.00  0.00    +0.062 C 
BRANCH  34  38
ATOM     35  C   UNL     1      -0.001   1.363  -0.007  0.00  0.00    +0.000 A 
ATOM     36  C   UNL     1       1.184   2.074  -0.010  0.00  0.00    +0.000 A 
ATOM     37  C   UNL     1       2.393   1.403  -0.022  0.00  0.00    +0.004 A 
ATOM     38  C   UNL     1       2.416   0.021  -0.029  0.00  0.00    -0.045 A 
ATOM     39  C   UNL     1       1.231  -0.690  -0.025  0.00  0.00    +0.004 A 
ATOM     40  C   UNL     1       0.022  -0.019  -0.015  0.00  0.00    +0.000 A 
ENDBRANCH  34  38
ENDBRANCH  27  34
ENDBRANCH  23  27
ENDBRANCH   1  24
TORSDOF 8
