REMARK  Name = ZINC33811963
REMARK  13 active torsions:
REMARK  status: ('A' for Active; 'I' for Inactive)
REMARK    1  A    between atoms: C_1  and  C_2
REMARK    2  A    between atoms: C_2  and  N_3
REMARK    3  A    between atoms: N_6  and  C_9
REMARK    4  A    between atoms: C_10  and  C_20
REMARK    5  A    between atoms: C_11  and  C_19
REMARK    6  A    between atoms: C_12  and  C_17
REMARK    7  A    between atoms: N_15  and  C_16
REMARK    8  A    between atoms: N_24  and  C_28
REMARK    9  A    between atoms: C_28  and  C_29
REMARK   10  A    between atoms: C_29  and  C_30
REMARK   11  A    between atoms: C_30  and  C_31
REMARK   12  A    between atoms: C_31  and  C_32
REMARK   13  A    between atoms: C_32  and  C_33
REMARK                            x       y       z     vdW  Elec       q    Type
REMARK                         _______ _______ _______ _____ _____    ______ ____
ROOT
ATOM      1  C   UNL     1       0.213  -3.291   4.690  0.00  0.00    +0.111 A 
ATOM      2  C   UNL     1       0.189  -2.520   3.515  0.00  0.00    +0.019 A 
ATOM      3  C   UNL     1       0.155  -1.119   3.609  0.00  0.00    -0.017 A 
ATOM      4  C   UNL     1       0.152  -0.529   4.870  0.00  0.00    +0.120 A 
ATOM      5  C   UNL     1       0.184  -1.352   6.025  0.00  0.00    +0.270 A 
ATOM      6  O   UNL     1       0.181  -0.841   7.131  0.00  0.00    -0.266 OA
ATOM      7  N   UNL     1       0.216  -2.691   5.908  0.00  0.00    -0.298 N 
ATOM      8  C   UNL     1       0.248  -3.518   7.117  0.00  0.00    +0.154 C 
ATOM      9  C   UNL     1       0.122  -0.269   2.366  0.00  0.00    +0.046 C 
ENDROOT
BRANCH   2  10
ATOM     10  C   UNL     1       0.193  -3.172   2.205  0.00  0.00    +0.032 C 
ATOM     11  C   UNL     1      -0.896  -3.077   1.394  0.00  0.00    +0.077 C 
ATOM     12  C   UNL     1      -2.172  -2.490   1.652  0.00  0.00    +0.258 C 
ATOM     13  O   UNL     1      -2.419  -1.972   2.727  0.00  0.00    -0.269 OA
ATOM     14  N   UNL     1      -3.077  -2.525   0.690  0.00  0.00    -0.255 N 
ATOM     15  C   UNL     1      -2.805  -3.105  -0.500  0.00  0.00    +0.121 C 
ATOM     16  S   UNL     1      -3.818  -3.268  -1.871  0.00  0.00    -0.027 S 
ATOM     17  S   UNL     1      -1.119  -3.654  -0.283  0.00  0.00    -0.061 S 
BRANCH  14  18
ATOM     18  C   UNL     1      -4.397  -1.932   0.918  0.00  0.00    +0.115 C 
BRANCH  18  19
ATOM     19  C   UNL     1      -4.375  -0.461   0.499  0.00  0.00    +0.019 C 
BRANCH  19  20
ATOM     20  C   UNL     1      -5.754   0.158   0.738  0.00  0.00    +0.002 C 
BRANCH  20  21
ATOM     21  C   UNL     1      -5.732   1.629   0.318  0.00  0.00    +0.011 C 
BRANCH  21  22
ATOM     22  C   UNL     1      -7.110   2.249   0.557  0.00  0.00    +0.125 C 
BRANCH  22  23
ATOM     23  C   UNL     1      -7.088   3.698   0.144  0.00  0.00    +0.356 C 
ATOM     24  O   UNL     1      -6.074   4.185  -0.296  0.00  0.00    -0.246 OA
ATOM     25  O   UNL     1      -8.196   4.447   0.265  0.00  0.00    -0.246 OA
ENDBRANCH  22  23
ENDBRANCH  21  22
ENDBRANCH  20  21
ENDBRANCH  19  20
ENDBRANCH  18  19
ENDBRANCH  14  18
ENDBRANCH   2  10
BRANCH   1  29
ATOM     26  N   UNL     1       0.357  -7.152   3.248  0.00  0.00    +0.382 N 
ATOM     27  C   UNL     1      -0.896  -6.688   3.859  0.00  0.00    -0.060 C 
ATOM     28  C   UNL     1      -0.922  -5.157   3.863  0.00  0.00    +0.088 C 
ATOM     29  N   UNL     1       0.241  -4.652   4.605  0.00  0.00    -0.320 N 
ATOM     30  C   UNL     1       1.494  -5.117   3.995  0.00  0.00    +0.088 C 
ATOM     31  C   UNL     1       1.520  -6.647   3.991  0.00  0.00    -0.060 C 
ATOM     32  H   UNL     1       0.406  -6.750   2.226  0.00  0.00    -0.082 HD
BRANCH  26  34
ATOM     33  C   UNL     1       1.578  -9.052   2.301  0.00  0.00    -0.017 C 
ATOM     34  C   UNL     1       0.387  -8.618   3.158  0.00  0.00    -0.082 C 
ENDBRANCH  26  34
ENDBRANCH   1  29
BRANCH   4  35
ATOM     35  C   UNL     1       0.118   0.897   5.000  0.00  0.00    +0.105 C 
ATOM     36  N   UNL     1       0.091   2.028   5.103  0.00  0.00    -0.191 NA
ENDBRANCH   4  35
TORSDOF 10
