REMARK  Name = ZINC39668900
REMARK  5 active torsions:
REMARK  status: ('A' for Active; 'I' for Inactive)
REMARK    1  A    between atoms: C_10  and  C_12
REMARK    2  A    between atoms: C_12  and  N_13
REMARK    3  A    between atoms: C_14  and  C_16
REMARK    4  A    between atoms: C_27  and  C_29
REMARK    5  A    between atoms: C_32  and  C_35
REMARK                            x       y       z     vdW  Elec       q    Type
REMARK                         _______ _______ _______ _____ _____    ______ ____
ROOT
ATOM      1  C   UNL     1       7.967  -0.961   2.034  0.00  0.00    +0.100 C 
ATOM      2  C   UNL     1       8.170  -2.474   2.272  0.00  0.00    +0.121 C 
ATOM      3  N   UNL     1       9.503  -2.577   2.912  0.00  0.00    -0.296 N 
ATOM      4  C   UNL     1       9.557  -1.421   3.839  0.00  0.00    +0.115 C 
ATOM      5  C   UNL     1       8.879  -0.274   3.064  0.00  0.00    -0.004 C 
ATOM      6  C   UNL     1       9.928   0.578   2.357  0.00  0.00    -0.010 C 
ATOM      7  C   UNL     1      10.786   1.296   3.402  0.00  0.00    -0.082 C 
ATOM      8  N   UNL     1       9.930   2.139   4.245  0.00  0.00    +0.379 N 
ATOM      9  C   UNL     1       8.984   1.303   4.993  0.00  0.00    -0.082 C 
ATOM     10  C   UNL     1       8.050   0.585   4.015  0.00  0.00    -0.010 C 
ATOM     11  C   UNL     1      10.451  -3.511   2.700  0.00  0.00    +0.247 C 
ATOM     12  O   UNL     1      10.312  -4.328   1.811  0.00  0.00    -0.270 OA
ATOM     13  H   UNL     1      10.504   2.658   4.893  0.00  0.00    -0.086 HD
ATOM     14  H   UNL     1       9.418   2.785   3.663  0.00  0.00    -0.086 HD
ENDROOT
BRANCH  11  15
ATOM     15  C   UNL     1      11.662  -3.541   3.548  0.00  0.00    +0.037 A 
ATOM     16  C   UNL     1      11.655  -2.928   4.802  0.00  0.00    +0.013 A 
ATOM     17  C   UNL     1      12.788  -2.960   5.588  0.00  0.00    +0.013 A 
ATOM     18  C   UNL     1      13.929  -3.599   5.137  0.00  0.00    +0.055 A 
ATOM     19  C   UNL     1      13.943  -4.208   3.895  0.00  0.00    +0.013 A 
ATOM     20  C   UNL     1      12.815  -4.189   3.101  0.00  0.00    +0.013 A 
BRANCH  18  21
ATOM     21  C   UNL     1      15.163  -3.630   6.002  0.00  0.00    +0.417 C 
ATOM     22  F   UNL     1      15.132  -4.766   6.818  0.00  0.00    -0.166 F 
ATOM     23  F   UNL     1      16.301  -3.670   5.189  0.00  0.00    -0.166 F 
ATOM     24  F   UNL     1      15.201  -2.482   6.801  0.00  0.00    -0.166 F 
ENDBRANCH  18  21
ENDBRANCH  11  15
BRANCH   1  26
ATOM     25  N   UNL     1       5.982   0.446   1.590  0.00  0.00    -0.312 N 
ATOM     26  C   UNL     1       6.528  -0.581   2.271  0.00  0.00    +0.218 C 
ATOM     27  O   UNL     1       5.862  -1.199   3.074  0.00  0.00    -0.275 OA
ATOM     28  H   UNL     1       6.515   0.940   0.948  0.00  0.00    +0.149 HD
BRANCH  25  29
ATOM     29  C   UNL     1       4.583   0.815   1.819  0.00  0.00    +0.140 C 
BRANCH  29  39
ATOM     30  C   UNL     1       0.267   3.300   1.926  0.00  0.00    +0.000 A 
ATOM     31  C   UNL     1       1.171   2.976   2.921  0.00  0.00    +0.000 A 
ATOM     32  C   UNL     1       2.442   2.557   2.584  0.00  0.00    +0.006 A 
ATOM     33  C   UNL     1       2.817   2.458   1.254  0.00  0.00    -0.014 A 
ATOM     34  C   UNL     1       1.914   2.778   0.262  0.00  0.00    -0.040 A 
ATOM     35  C   UNL     1       0.638   3.201   0.600  0.00  0.00    +0.004 A 
ATOM     36  C   UNL     1       2.280   2.671  -1.197  0.00  0.00    +0.063 C 
ATOM     37  C   UNL     1       3.801   2.602  -1.345  0.00  0.00    +0.165 C 
ATOM     38  O   UNL     1       4.301   1.609  -0.442  0.00  0.00    -0.370 OA
ATOM     39  C   UNL     1       4.216   2.002   0.927  0.00  0.00    +0.165 C 
ENDBRANCH  29  39
ENDBRANCH  25  29
ENDBRANCH   1  26
TORSDOF 5
