REMARK  Name = ZINC20759469
REMARK  2 active torsions:
REMARK  status: ('A' for Active; 'I' for Inactive)
REMARK    1  A    between atoms: C_1  and  N_2
REMARK    2  A    between atoms: C_5  and  C_11
REMARK                            x       y       z     vdW  Elec       q    Type
REMARK                         _______ _______ _______ _____ _____    ______ ____
ROOT
ATOM      1  C   UNL     1       3.597   4.905  -0.013  0.00  0.00    +0.018 C 
ATOM      2  C   UNL     1       2.835   3.599  -0.007  0.00  0.00    +0.011 A 
ATOM      3  C   UNL     1       3.444   2.396  -0.018  0.00  0.00    -0.022 A 
ATOM      4  C   UNL     1       2.400   1.379  -0.014  0.00  0.00    +0.004 A 
ATOM      5  C   UNL     1       2.395  -0.018  -0.021  0.00  0.00    +0.030 A 
ATOM      6  C   UNL     1       1.207  -0.695  -0.013  0.00  0.00    +0.042 A 
ATOM      7  C   UNL     1       0.002  -0.004   0.002  0.00  0.00    +0.022 A 
ATOM      8  C   UNL     1      -0.017   1.373   0.010  0.00  0.00    +0.027 A 
ATOM      9  C   UNL     1       1.180   2.082   0.002  0.00  0.00    +0.047 A 
ATOM     10  N   UNL     1       1.482   3.428   0.006  0.00  0.00    -0.359 N 
ATOM     11  H   UNL     1       0.817   4.303   0.019  0.00  0.00    +0.166 HD
ATOM     12 CL   UNL     1       1.205  -2.431  -0.022  0.00  0.00    -0.084 Cl
ATOM     13  C   UNL     1       4.940   2.213  -0.031  0.00  0.00    +0.018 C 
ATOM     14  C   UNL     1       5.582   3.552   0.361  0.00  0.00    -0.076 C 
ATOM     15  N   UNL     1       4.981   4.634  -0.433  0.00  0.00    +0.388 N 
ATOM     16  H   UNL     1       4.991   4.336  -1.492  0.00  0.00    -0.084 HD
ATOM     17  H   UNL     1       5.589   5.541  -0.301  0.00  0.00    -0.084 HD
ENDROOT
BRANCH   1  22
ATOM     18  C   UNL     1       2.337   6.173  -4.643  0.00  0.00    +0.154 C 
ATOM     19  N   UNL     1       2.355   6.457  -3.206  0.00  0.00    -0.291 N 
ATOM     20  C   UNL     1       2.937   5.586  -2.358  0.00  0.00    +0.260 A 
ATOM     21  O   UNL     1       3.448   4.565  -2.783  0.00  0.00    -0.267 OA
ATOM     22  C   UNL     1       2.951   5.864  -0.980  0.00  0.00    +0.073 A 
ATOM     23  C   UNL     1       2.368   7.012  -0.529  0.00  0.00    +0.258 A 
ATOM     24  N   UNL     1       1.791   7.873  -1.427  0.00  0.00    -0.302 N 
ATOM     25  C   UNL     1       1.789   7.587  -2.742  0.00  0.00    +0.163 A 
ATOM     26  S   UNL     1       1.057   8.676  -3.841  0.00  0.00    -0.013 S 
ATOM     27  O   UNL     1       2.363   7.300   0.790  0.00  0.00    -0.267 OA
ATOM     28  H   UNL     1       1.327   8.806  -1.074  0.00  0.00    +0.171 HD
ENDBRANCH   1  22
TORSDOF 1
