REMARK  Name = ZINC19339126
REMARK  4 active torsions:
REMARK  status: ('A' for Active; 'I' for Inactive)
REMARK    1  A    between atoms: C_1  and  C_2
REMARK    2  A    between atoms: C_7  and  C_12
REMARK    3  A    between atoms: C_9  and  C_11
REMARK    4  A    between atoms: C_12  and  N_13
REMARK                            x       y       z     vdW  Elec       q    Type
REMARK                         _______ _______ _______ _____ _____    ______ ____
ROOT
ATOM      1  N   UNL     1       0.210  -0.036   5.009  0.00  0.00    -0.268 NA
ATOM      2  C   UNL     1       1.123  -0.324   6.131  0.00  0.00    +0.193 C 
ATOM      3  N   UNL     1       0.541   0.281   7.339  0.00  0.00    -0.304 N 
ATOM      4  C   UNL     1      -0.817   0.165   7.536  0.00  0.00    +0.185 C 
ATOM      5  N   UNL     1      -1.598  -0.244   6.588  0.00  0.00    -0.240 NA
ATOM      6  C   UNL     1      -1.111  -0.624   5.266  0.00  0.00    +0.232 C 
ATOM      7  N   UNL     1      -1.354   0.488   8.764  0.00  0.00    -0.242 N 
ATOM      8  C   UNL     1      -2.714   0.376   8.975  0.00  0.00    +0.295 A 
ATOM      9  N   UNL     1      -3.579  -0.032   8.082  0.00  0.00    -0.195 NA
ATOM     10  C   UNL     1      -4.821  -0.015   8.639  0.00  0.00    +0.111 A 
ATOM     11  C   UNL     1      -6.093  -0.340   8.166  0.00  0.00    +0.031 A 
ATOM     12  C   UNL     1      -7.184  -0.213   8.997  0.00  0.00    +0.002 A 
ATOM     13  C   UNL     1      -7.025   0.235  10.300  0.00  0.00    +0.004 A 
ATOM     14  C   UNL     1      -5.772   0.559  10.780  0.00  0.00    +0.048 A 
ATOM     15  C   UNL     1      -4.664   0.437   9.957  0.00  0.00    +0.157 A 
ATOM     16  O   UNL     1      -3.341   0.664  10.128  0.00  0.00    -0.424 OA
ATOM     17  H   UNL     1       1.099   0.750   7.980  0.00  0.00    +0.150 HD
ATOM     18  H   UNL     1      -0.776   0.795   9.481  0.00  0.00    +0.159 HD
ENDROOT
BRANCH   1  19
ATOM     19  C   UNL     1       0.766  -0.524   3.740  0.00  0.00    +0.091 C 
BRANCH  19  25
ATOM     20  C   UNL     1       4.764   0.771   2.709  0.00  0.00    +0.008 C 
ATOM     21  C   UNL     1       3.712   0.728   1.600  0.00  0.00    -0.011 C 
ATOM     22  C   UNL     1       3.187   2.141   1.339  0.00  0.00    +0.003 C 
ATOM     23  C   UNL     1       2.557   2.695   2.619  0.00  0.00    +0.001 C 
ATOM     24  C   UNL     1       1.399   1.792   3.050  0.00  0.00    +0.005 C 
ATOM     25  C   UNL     1       1.924   0.379   3.310  0.00  0.00    +0.006 C 
ATOM     26  C   UNL     1       2.554  -0.175   2.030  0.00  0.00    -0.007 C 
ATOM     27  C   UNL     1       3.079  -1.589   2.290  0.00  0.00    +0.008 C 
ENDBRANCH  19  25
ENDBRANCH   1  19
TORSDOF 2
