REMARK  Name = ZINC08819458
REMARK  12 active torsions:
REMARK  status: ('A' for Active; 'I' for Inactive)
REMARK    1  A    between atoms: C_1  and  O_2
REMARK    2  A    between atoms: O_2  and  C_3
REMARK    3  A    between atoms: C_6  and  C_11
REMARK    4  A    between atoms: C_8  and  O_9
REMARK    5  A    between atoms: O_9  and  C_10
REMARK    6  A    between atoms: N_15  and  C_19
REMARK    7  A    between atoms: C_19  and  C_20
REMARK    8  A    between atoms: C_20  and  C_21
REMARK    9  A    between atoms: C_21  and  C_22
REMARK   10  A    between atoms: N_24  and  C_25
REMARK   11  A    between atoms: C_27  and  N_32
REMARK   12  A    between atoms: C_30  and  O_31
REMARK                            x       y       z     vdW  Elec       q    Type
REMARK                         _______ _______ _______ _____ _____    ______ ____
ROOT
ATOM      1  C   UNL     1      -4.973  -2.548   0.005  0.00  0.00    +0.028 C 
ATOM      2  C   UNL     1      -6.117  -1.828   0.132  0.00  0.00    +0.077 C 
ATOM      3  C   UNL     1      -7.512  -2.294   0.268  0.00  0.00    +0.258 C 
ATOM      4  O   UNL     1      -7.792  -3.478   0.281  0.00  0.00    -0.269 OA
ATOM      5  N   UNL     1      -8.441  -1.359   0.376  0.00  0.00    -0.255 N 
ATOM      6  C   UNL     1      -8.126  -0.048   0.361  0.00  0.00    +0.121 C 
ATOM      7  S   UNL     1      -9.175   1.299   0.487  0.00  0.00    -0.027 S 
ATOM      8  S   UNL     1      -6.349  -0.057   0.187  0.00  0.00    -0.061 S 
ENDROOT
BRANCH   1  12
ATOM      9  C   UNL     1      -1.216  -0.576   0.046  0.00  0.00    +0.162 A 
ATOM     10  C   UNL     1      -2.316   0.015   0.654  0.00  0.00    +0.050 A 
ATOM     11  C   UNL     1      -3.538  -0.622   0.643  0.00  0.00    +0.012 A 
ATOM     12  C   UNL     1      -3.672  -1.867   0.018  0.00  0.00    -0.020 A 
ATOM     13  C   UNL     1      -2.562  -2.462  -0.595  0.00  0.00    +0.057 A 
ATOM     14  C   UNL     1      -1.343  -1.814  -0.583  0.00  0.00    +0.162 A 
BRANCH   9  16
ATOM     15  C   UNL     1       0.046   1.321   0.722  0.00  0.00    +0.277 C 
ATOM     16  O   UNL     1      -0.013   0.056   0.060  0.00  0.00    -0.491 OA
ENDBRANCH   9  16
BRANCH  14  17
ATOM     17  O   UNL     1      -0.264  -2.386  -1.181  0.00  0.00    -0.491 OA
ATOM     18  C   UNL     1      -0.465  -3.655  -1.807  0.00  0.00    +0.277 C 
ENDBRANCH  14  17
ENDBRANCH   1  12
BRANCH   5  19
ATOM     19  C   UNL     1      -9.844  -1.756   0.513  0.00  0.00    +0.115 C 
BRANCH  19  20
ATOM     20  C   UNL     1     -10.186  -1.915   1.996  0.00  0.00    +0.029 C 
BRANCH  20  21
ATOM     21  C   UNL     1     -11.652  -2.330   2.140  0.00  0.00    +0.097 C 
BRANCH  21  22
ATOM     22  C   UNL     1     -11.989  -2.486   3.600  0.00  0.00    +0.217 C 
ATOM     23  O   UNL     1     -11.140  -2.284   4.444  0.00  0.00    -0.275 OA
ATOM     24  N   UNL     1     -13.233  -2.849   3.970  0.00  0.00    -0.283 N 
ATOM     25  H   UNL     1     -13.887  -3.093   3.297  0.00  0.00    +0.155 HD
BRANCH  24  26
ATOM     26  C   UNL     1     -13.582  -2.874   5.327  0.00  0.00    +0.078 A 
ATOM     27  C   UNL     1     -12.897  -2.080   6.236  0.00  0.00    +0.059 A 
ATOM     28  C   UNL     1     -13.242  -2.107   7.574  0.00  0.00    +0.128 A 
ATOM     29  C   UNL     1     -14.270  -2.922   8.010  0.00  0.00    +0.036 A 
ATOM     30  C   UNL     1     -14.957  -3.716   7.110  0.00  0.00    +0.049 A 
ATOM     31  C   UNL     1     -14.621  -3.691   5.766  0.00  0.00    +0.138 A 
BRANCH  28  32
ATOM     32  N   UNL     1     -12.510  -1.260   8.542  0.00  0.00    +0.056 N 
ATOM     33  O   UNL     1     -11.611  -0.546   8.162  0.00  0.00    -0.126 OA
ATOM     34  O   UNL     1     -12.811  -1.282   9.713  0.00  0.00    -0.126 OA
ENDBRANCH  28  32
BRANCH  31  35
ATOM     35  O   UNL     1     -15.299  -4.466   4.879  0.00  0.00    -0.505 OA
ATOM     36  H   UNL     1     -14.921  -5.348   4.758  0.00  0.00    +0.292 HD
ENDBRANCH  31  35
ENDBRANCH  24  26
ENDBRANCH  21  22
ENDBRANCH  20  21
ENDBRANCH  19  20
ENDBRANCH   5  19
TORSDOF 10
