REMARK  Name = ZINC39664479
REMARK  7 active torsions:
REMARK  status: ('A' for Active; 'I' for Inactive)
REMARK    1  A    between atoms: C_1  and  C_2
REMARK    2  A    between atoms: C_6  and  C_7
REMARK    3  A    between atoms: C_11  and  C_20
REMARK    4  A    between atoms: N_22  and  C_23
REMARK    5  A    between atoms: C_23  and  C_24
REMARK    6  A    between atoms: C_24  and  C_26
REMARK    7  A    between atoms: C_24  and  N_32
REMARK                            x       y       z     vdW  Elec       q    Type
REMARK                         _______ _______ _______ _____ _____    ______ ____
ROOT
ATOM      1  C   UNL     1       0.502  -0.337   2.354  0.00  0.00    +0.254 C 
ATOM      2  O   UNL     1       0.677   0.849   2.561  0.00  0.00    -0.269 OA
ATOM      3  N   UNL     1       0.361  -1.189   3.389  0.00  0.00    -0.296 N 
ATOM      4  C   UNL     1       0.271  -2.667   3.342  0.00  0.00    +0.121 C 
ATOM      5  C   UNL     1       1.091  -3.147   4.561  0.00  0.00    +0.100 C 
ATOM      6  C   UNL     1       1.081  -1.957   5.534  0.00  0.00    -0.004 C 
ATOM      7  C   UNL     1       0.269  -0.859   4.831  0.00  0.00    +0.115 C 
ATOM      8  C   UNL     1       2.504  -1.470   5.789  0.00  0.00    -0.010 C 
ATOM      9  C   UNL     1       2.472  -0.324   6.804  0.00  0.00    -0.082 C 
ATOM     10  N   UNL     1       1.862  -0.791   8.054  0.00  0.00    +0.379 N 
ATOM     11  C   UNL     1       0.464  -1.170   7.818  0.00  0.00    -0.082 C 
ATOM     12  C   UNL     1       0.410  -2.352   6.846  0.00  0.00    -0.010 C 
ATOM     13  H   UNL     1       2.372  -1.591   8.398  0.00  0.00    -0.086 HD
ATOM     14  H   UNL     1       1.897  -0.053   8.741  0.00  0.00    -0.086 HD
ENDROOT
BRANCH   1  20
ATOM     15  C   UNL     1       0.580   1.372  -0.249  0.00  0.00    +0.045 C 
ATOM     16  C   UNL     1       0.474  -0.131  -0.213  0.00  0.00    -0.031 A 
ATOM     17  C   UNL     1       0.407  -0.886  -1.359  0.00  0.00    +0.011 A 
ATOM     18  C   UNL     1       0.314  -2.235  -1.255  0.00  0.00    +0.046 A 
ATOM     19  S   UNL     1       0.313  -2.521   0.400  0.00  0.00    -0.092 S 
ATOM     20  C   UNL     1       0.444  -0.839   0.978  0.00  0.00    +0.077 A 
ENDBRANCH   1  20
BRANCH   5  21
ATOM     21  C   UNL     1       0.438  -4.350   5.192  0.00  0.00    +0.218 C 
ATOM     22  O   UNL     1      -0.753  -4.533   5.059  0.00  0.00    -0.275 OA
ATOM     23  N   UNL     1       1.179  -5.222   5.904  0.00  0.00    -0.313 N 
ATOM     24  H   UNL     1       2.132  -5.076   6.010  0.00  0.00    +0.149 HD
BRANCH  23  25
ATOM     25  C   UNL     1       0.544  -6.391   6.518  0.00  0.00    +0.127 C 
BRANCH  25  26
ATOM     26  C   UNL     1       1.599  -7.212   7.262  0.00  0.00    +0.104 C 
BRANCH  26  27
ATOM     27  C   UNL     1       0.972  -8.477   7.789  0.00  0.00    -0.029 A 
ATOM     28  C   UNL     1       1.510  -9.106   8.896  0.00  0.00    +0.005 A 
ATOM     29  C   UNL     1       0.935 -10.266   9.380  0.00  0.00    +0.000 A 
ATOM     30  C   UNL     1      -0.179 -10.797   8.756  0.00  0.00    +0.000 A 
ATOM     31  C   UNL     1      -0.717 -10.168   7.649  0.00  0.00    +0.000 A 
ATOM     32  C   UNL     1      -0.144  -9.005   7.168  0.00  0.00    +0.005 A 
ENDBRANCH  26  27
BRANCH  26  33
ATOM     33  N   UNL     1       2.693  -7.554   6.342  0.00  0.00    -0.290 NA
ATOM     34  C   UNL     1       2.187  -8.287   5.172  0.00  0.00    +0.113 C 
ATOM     35  C   UNL     1       3.347  -8.570   4.214  0.00  0.00    +0.175 C 
ATOM     36  O   UNL     1       4.366  -9.295   4.908  0.00  0.00    -0.377 OA
ATOM     37  C   UNL     1       4.881  -8.610   6.053  0.00  0.00    +0.175 C 
ATOM     38  C   UNL     1       3.737  -8.328   7.030  0.00  0.00    +0.113 C 
ENDBRANCH  26  33
ENDBRANCH  25  26
ENDBRANCH  23  25
ENDBRANCH   5  21
TORSDOF 6
