REMARK  Name = ZINC12820829
REMARK  8 active torsions:
REMARK  status: ('A' for Active; 'I' for Inactive)
REMARK    1  A    between atoms: C_1  and  C_2
REMARK    2  A    between atoms: C_4  and  C_26
REMARK    3  A    between atoms: C_5  and  C_9
REMARK    4  A    between atoms: C_6  and  C_8
REMARK    5  A    between atoms: C_9  and  C_11
REMARK    6  A    between atoms: C_11  and  S_12
REMARK    7  A    between atoms: S_12  and  C_13
REMARK    8  A    between atoms: C_17  and  C_19
REMARK                            x       y       z     vdW  Elec       q    Type
REMARK                         _______ _______ _______ _____ _____    ______ ____
ROOT
ATOM      1  S   UNL     1       1.028  -6.011   2.729  0.00  0.00    -0.079 S 
ENDROOT
BRANCH   1   2
ATOM      2  C   UNL     1       0.983  -6.175   4.483  0.00  0.00    +0.185 A 
ATOM      3  N   UNL     1       1.181  -7.317   5.178  0.00  0.00    -0.253 N 
ATOM      4  H   UNL     1       1.374  -8.194   4.812  0.00  0.00    +0.191 HD
ATOM      5  N   UNL     1       1.054  -6.984   6.536  0.00  0.00    -0.152 NA
ATOM      6  C   UNL     1       0.794  -5.697   6.592  0.00  0.00    +0.183 A 
ATOM      7  N   UNL     1       0.757  -5.208   5.344  0.00  0.00    -0.201 NA
BRANCH   6   8
ATOM      8  C   UNL     1       0.582  -4.912   7.833  0.00  0.00    +0.035 A 
ATOM      9  C   UNL     1       0.305  -3.549   7.760  0.00  0.00    +0.013 A 
ATOM     10  C   UNL     1       0.108  -2.824   8.917  0.00  0.00    +0.001 A 
ATOM     11  C   UNL     1       0.184  -3.448  10.150  0.00  0.00    +0.001 A 
ATOM     12  C   UNL     1       0.459  -4.801  10.229  0.00  0.00    +0.016 A 
ATOM     13  C   UNL     1       0.653  -5.538   9.077  0.00  0.00    +0.029 A 
ATOM     14 BR   UNL     1       1.020  -7.390   9.187  0.00  0.00    -0.050 Br
ENDBRANCH   6   8
ENDBRANCH   1   2
BRANCH   1  15
ATOM     15  C   UNL     1       0.697  -4.250   2.445  0.00  0.00    +0.157 C 
BRANCH  15  16
ATOM     16  C   UNL     1       0.707  -3.969   0.964  0.00  0.00    +0.174 C 
ATOM     17  O   UNL     1       1.009  -4.846   0.183  0.00  0.00    -0.291 OA
BRANCH  16  22
ATOM     18  C   UNL     1      -0.690   1.256  -0.983  0.00  0.00    +0.044 C 
ATOM     19  C   UNL     1      -0.324  -0.113  -0.472  0.00  0.00    -0.050 A 
ATOM     20  C   UNL     1       0.973  -0.372  -0.063  0.00  0.00    +0.007 A 
ATOM     21  C   UNL     1       1.316  -1.623   0.405  0.00  0.00    -0.039 A 
ATOM     22  C   UNL     1       0.349  -2.631   0.466  0.00  0.00    +0.024 A 
ATOM     23  C   UNL     1      -0.959  -2.362   0.052  0.00  0.00    -0.039 A 
ATOM     24  C   UNL     1      -1.288  -1.105  -0.409  0.00  0.00    +0.007 A 
ATOM     25  C   UNL     1      -2.009  -3.442   0.113  0.00  0.00    +0.044 C 
ATOM     26  C   UNL     1       2.729  -1.902   0.849  0.00  0.00    +0.044 C 
ENDBRANCH  16  22
ENDBRANCH  15  16
ENDBRANCH   1  15
TORSDOF 5
