REMARK  Name = ZINC17372586
REMARK  10 active torsions:
REMARK  status: ('A' for Active; 'I' for Inactive)
REMARK    1  A    between atoms: C_1  and  C_2
REMARK    2  A    between atoms: C_2  and  C_3
REMARK    3  A    between atoms: C_3  and  O_4
REMARK    4  A    between atoms: O_4  and  C_5
REMARK    5  A    between atoms: C_6  and  O_26
REMARK    6  A    between atoms: C_8  and  C_12
REMARK    7  A    between atoms: N_13  and  N_14
REMARK    8  A    between atoms: C_16  and  C_20
REMARK    9  A    between atoms: O_26  and  C_27
REMARK   10  A    between atoms: C_27  and  C_28
REMARK                            x       y       z     vdW  Elec       q    Type
REMARK                         _______ _______ _______ _____ _____    ______ ____
ROOT
ATOM      1  C   UNL     1       3.232  -4.415  -5.628  0.00  0.00    +0.141 C 
ATOM      2  N   UNL     1       4.498  -4.696  -5.576  0.00  0.00    -0.172 NA
ENDROOT
BRANCH   2   3
ATOM      3  N   UNL     1       5.123  -5.318  -6.665  0.00  0.00    -0.209 N 
ATOM      4  C   UNL     1       4.526  -5.681  -7.848  0.00  0.00    +0.142 A 
ATOM      5  C   UNL     1       5.489  -6.249  -8.618  0.00  0.00    +0.067 A 
ATOM      6  N   UNL     1       6.650  -6.231  -7.916  0.00  0.00    -0.326 N 
ATOM      7  C   UNL     1       6.439  -5.671  -6.749  0.00  0.00    +0.192 A 
ATOM      8  N   UNL     1       7.392  -5.472  -5.765  0.00  0.00    -0.329 N 
ATOM      9  H   UNL     1       7.145  -5.049  -4.928  0.00  0.00    +0.145 HD
ATOM     10  H   UNL     1       8.308  -5.756  -5.913  0.00  0.00    +0.145 HD
ATOM     11  H   UNL     1       7.501  -6.575  -8.228  0.00  0.00    +0.169 HD
BRANCH   5  12
ATOM     12  C   UNL     1       5.305  -6.793  -9.985  0.00  0.00    -0.000 A 
ATOM     13  C   UNL     1       4.053  -6.743 -10.595  0.00  0.00    +0.010 A 
ATOM     14  C   UNL     1       3.887  -7.251 -11.867  0.00  0.00    +0.001 A 
ATOM     15  C   UNL     1       4.961  -7.809 -12.537  0.00  0.00    +0.000 A 
ATOM     16  C   UNL     1       6.206  -7.862 -11.937  0.00  0.00    +0.001 A 
ATOM     17  C   UNL     1       6.385  -7.352 -10.667  0.00  0.00    +0.010 A 
ENDBRANCH   5  12
ENDBRANCH   2   3
BRANCH   1  21
ATOM     18  C   UNL     1       1.341  -2.530  -2.323  0.00  0.00    +0.180 A 
ATOM     19  C   UNL     1       0.600  -2.844  -3.460  0.00  0.00    +0.164 A 
ATOM     20  C   UNL     1       1.212  -3.457  -4.537  0.00  0.00    +0.059 A 
ATOM     21  C   UNL     1       2.575  -3.760  -4.482  0.00  0.00    -0.000 A 
ATOM     22  C   UNL     1       3.313  -3.443  -3.340  0.00  0.00    +0.033 A 
ATOM     23  C   UNL     1       2.697  -2.826  -2.270  0.00  0.00    +0.087 A 
ATOM     24 CL   UNL     1       3.616  -2.426  -0.853  0.00  0.00    -0.080 Cl
BRANCH  18  25
ATOM     25  O   UNL     1       0.738  -1.926  -1.265  0.00  0.00    -0.487 OA
BRANCH  25  26
ATOM     26  C   UNL     1       0.718  -0.497  -1.257  0.00  0.00    +0.229 C 
BRANCH  26  28
ATOM     27  C   UNL     1      -0.019   1.526   0.010  0.00  0.00    +0.007 C 
ATOM     28  C   UNL     1       0.002  -0.004   0.002  0.00  0.00    +0.038 C 
ENDBRANCH  26  28
ENDBRANCH  25  26
ENDBRANCH  18  25
BRANCH  19  29
ATOM     29  O   UNL     1      -0.726  -2.547  -3.510  0.00  0.00    -0.489 OA
BRANCH  29  30
ATOM     30  C   UNL     1      -1.425  -2.897  -4.706  0.00  0.00    +0.226 C 
ATOM     31  C   UNL     1      -2.894  -2.489  -4.577  0.00  0.00    +0.048 C 
ENDBRANCH  29  30
ENDBRANCH  19  29
ENDBRANCH   1  21
TORSDOF 8
