REMARK  Name = ZINC15874785
REMARK  5 active torsions:
REMARK  status: ('A' for Active; 'I' for Inactive)
REMARK    1  A    between atoms: C_2  and  C_9
REMARK    2  A    between atoms: N_11  and  N_12
REMARK    3  A    between atoms: N_12  and  C_13
REMARK    4  A    between atoms: C_13  and  N_15
REMARK    5  A    between atoms: N_15  and  C_16
REMARK                            x       y       z     vdW  Elec       q    Type
REMARK                         _______ _______ _______ _____ _____    ______ ____
ROOT
ATOM      1  C   UNL     1       1.245   3.538   0.009  0.00  0.00    +0.262 C 
ATOM      2  O   UNL     1       0.209   4.172   0.022  0.00  0.00    -0.269 OA
ATOM      3  N   UNL     1       2.429   4.181   0.001  0.00  0.00    -0.231 N 
ATOM      4  H   UNL     1       3.257   3.675  -0.009  0.00  0.00    +0.173 HD
ENDROOT
BRANCH   1   6
ATOM      5  C   UNL     1      -0.017   1.379   0.010  0.00  0.00    +0.037 A 
ATOM      6  C   UNL     1       1.208   2.060   0.002  0.00  0.00    +0.058 A 
ATOM      7  C   UNL     1       2.391   1.321  -0.014  0.00  0.00    +0.125 A 
ATOM      8  N   UNL     1       2.358   0.004  -0.020  0.00  0.00    -0.241 NA
ATOM      9  C   UNL     1       1.221  -0.665  -0.013  0.00  0.00    +0.147 A 
ATOM     10  C   UNL     1       0.002  -0.004   0.002  0.00  0.00    +0.078 A 
ATOM     11 CL   UNL     1      -1.484  -0.902   0.012  0.00  0.00    -0.080 Cl
ATOM     12 CL   UNL     1       1.251  -2.401  -0.023  0.00  0.00    -0.060 Cl
ENDBRANCH   1   6
BRANCH   3  13
ATOM     13  N   UNL     1       2.465   5.582   0.008  0.00  0.00    -0.246 N 
ATOM     14  H   UNL     1       1.638   6.088   0.018  0.00  0.00    +0.172 HD
BRANCH  13  15
ATOM     15  C   UNL     1       3.649   6.226  -0.000  0.00  0.00    +0.147 C 
ATOM     16  S   UNL     1       3.693   7.937   0.008  0.00  0.00    -0.017 S 
BRANCH  15  17
ATOM     17  N   UNL     1       4.799   5.522  -0.015  0.00  0.00    -0.323 N 
ATOM     18  H   UNL     1       4.774   4.553  -0.019  0.00  0.00    +0.148 HD
BRANCH  17  19
ATOM     19  C   UNL     1       6.086   6.222  -0.023  0.00  0.00    +0.072 C 
ATOM     20  C   UNL     1       6.487   6.569   1.412  0.00  0.00    +0.022 C 
ATOM     21  C   UNL     1       7.831   7.300   1.403  0.00  0.00    +0.002 C 
ATOM     22  C   UNL     1       8.898   6.398   0.779  0.00  0.00    +0.000 C 
ATOM     23  C   UNL     1       8.497   6.051  -0.656  0.00  0.00    +0.002 C 
ATOM     24  C   UNL     1       7.153   5.320  -0.647  0.00  0.00    +0.022 C 
ENDBRANCH  17  19
ENDBRANCH  15  17
ENDBRANCH  13  15
ENDBRANCH   3  13
TORSDOF 5
