REMARK  Name = ZINC00703625
REMARK  4 active torsions:
REMARK  status: ('A' for Active; 'I' for Inactive)
REMARK    1  A    between atoms: C_1  and  C_2
REMARK    2  A    between atoms: C_9  and  C_11
REMARK    3  A    between atoms: C_11  and  S_12
REMARK    4  A    between atoms: S_12  and  C_13
REMARK                            x       y       z     vdW  Elec       q    Type
REMARK                         _______ _______ _______ _____ _____    ______ ____
ROOT
ATOM      1  C   UNL     1       4.311   1.762  -0.030  0.00  0.00    +0.064 C 
ATOM      2  C   UNL     1       3.432   0.539  -0.028  0.00  0.00    +0.023 A 
ATOM      3  C   UNL     1       3.993  -0.688  -0.040  0.00  0.00    +0.021 A 
ATOM      4  C   UNL     1       3.186  -1.838  -0.039  0.00  0.00    +0.005 A 
ATOM      5  C   UNL     1       1.832  -1.710  -0.025  0.00  0.00    +0.047 A 
ATOM      6  C   UNL     1       1.260  -0.422  -0.012  0.00  0.00    +0.139 A 
ATOM      7  N   UNL     1       2.074   0.681  -0.014  0.00  0.00    -0.291 N 
ATOM      8  C   UNL     1       1.259   1.780  -0.000  0.00  0.00    +0.114 A 
ATOM      9  C   UNL     1      -0.016   1.331   0.009  0.00  0.00    +0.085 A 
ATOM     10  N   UNL     1       0.002  -0.004   0.002  0.00  0.00    -0.231 NA
ATOM     11 BR   UNL     1       1.812   3.588   0.004  0.00  0.00    -0.028 Br
ENDROOT
BRANCH   9  12
ATOM     12  C   UNL     1      -1.252   2.194   0.020  0.00  0.00    +0.134 C 
BRANCH  12  13
ATOM     13  S   UNL     1      -1.738   2.530   1.731  0.00  0.00    -0.092 S 
BRANCH  13  14
ATOM     14  C   UNL     1      -3.164   3.527   1.454  0.00  0.00    +0.136 A 
ATOM     15  N   UNL     1      -3.965   4.084   2.335  0.00  0.00    -0.233 NA
ATOM     16  C   UNL     1      -5.032   4.830   1.975  0.00  0.00    +0.079 A 
ATOM     17  C   UNL     1      -5.965   5.481   2.815  0.00  0.00    +0.029 A 
ATOM     18  C   UNL     1      -7.000   6.206   2.283  0.00  0.00    +0.002 A 
ATOM     19  C   UNL     1      -7.170   6.327   0.911  0.00  0.00    +0.001 A 
ATOM     20  C   UNL     1      -6.276   5.703   0.060  0.00  0.00    +0.017 A 
ATOM     21  C   UNL     1      -5.236   4.976   0.584  0.00  0.00    +0.040 A 
ATOM     22  S   UNL     1      -3.887   4.043  -0.098  0.00  0.00    -0.061 S 
ENDBRANCH  13  14
ENDBRANCH  12  13
ENDBRANCH   9  12
TORSDOF 3
