REMARK  Name = ZINC35917208
REMARK  6 active torsions:
REMARK  status: ('A' for Active; 'I' for Inactive)
REMARK    1  A    between atoms: C_1  and  N_2
REMARK    2  A    between atoms: C_3  and  C_20
REMARK    3  A    between atoms: C_5  and  S_9
REMARK    4  A    between atoms: S_9  and  N_12
REMARK    5  A    between atoms: N_12  and  C_13
REMARK    6  A    between atoms: C_13  and  C_14
REMARK                            x       y       z     vdW  Elec       q    Type
REMARK                         _______ _______ _______ _____ _____    ______ ____
ROOT
ATOM      1  C   UNL     1      -0.018   1.465   0.010  0.00  0.00    +0.138 C 
ATOM      2  N   UNL     1       0.002  -0.004   0.002  0.00  0.00    -0.182 NA
ATOM      3  C   UNL     1       0.757  -0.519  -1.165  0.00  0.00    +0.143 C 
ATOM      4  C   UNL     1       1.469  -1.789  -0.654  0.00  0.00    +0.199 C 
ATOM      5  C   UNL     1       1.058  -1.888   0.833  0.00  0.00    +0.215 C 
ATOM      6  O   UNL     1       0.708  -0.530   1.189  0.00  0.00    -0.295 OA
ENDROOT
BRANCH   3   7
ATOM      7  C   UNL     1      -0.186  -0.861  -2.289  0.00  0.00    -0.016 A 
ATOM      8  C   UNL     1      -1.519  -1.044  -2.056  0.00  0.00    +0.023 A 
ATOM      9  C   UNL     1      -2.373  -1.360  -3.110  0.00  0.00    +0.083 A 
ATOM     10  N   UNL     1      -1.933  -1.490  -4.338  0.00  0.00    -0.361 N 
ATOM     11  C   UNL     1      -0.640  -1.324  -4.635  0.00  0.00    +0.047 A 
ATOM     12  C   UNL     1       0.281  -0.995  -3.610  0.00  0.00    +0.003 A 
ATOM     13  C   UNL     1       1.638  -0.817  -3.928  0.00  0.00    +0.010 A 
ATOM     14  C   UNL     1       2.050  -0.956  -5.217  0.00  0.00    +0.001 A 
ATOM     15  C   UNL     1       1.145  -1.273  -6.228  0.00  0.00    +0.002 A 
ATOM     16  C   UNL     1      -0.174  -1.466  -5.954  0.00  0.00    +0.026 A 
ATOM     17  H   UNL     1      -2.558  -1.712  -5.046  0.00  0.00    +0.165 HD
ENDBRANCH   3   7
BRANCH   4  18
ATOM     18  S   UNL     1       0.898  -3.247  -1.570  0.00  0.00    +0.037 S 
ATOM     19  O   UNL     1      -0.491  -3.450  -1.352  0.00  0.00    -0.158 OA
ATOM     20  O   UNL     1       1.431  -3.236  -2.887  0.00  0.00    -0.158 OA
BRANCH  18  21
ATOM     21  N   UNL     1       1.635  -4.531  -0.827  0.00  0.00    -0.190 NA
ATOM     22  H   UNL     1       2.285  -5.063  -1.311  0.00  0.00    +0.148 HD
BRANCH  21  23
ATOM     23  C   UNL     1       1.303  -4.863   0.561  0.00  0.00    +0.140 C 
BRANCH  23  24
ATOM     24  C   UNL     1       1.804  -6.248   0.879  0.00  0.00    -0.032 A 
ATOM     25  C   UNL     1       0.991  -7.345   0.660  0.00  0.00    +0.005 A 
ATOM     26  C   UNL     1       1.451  -8.615   0.953  0.00  0.00    +0.000 A 
ATOM     27  C   UNL     1       2.724  -8.789   1.464  0.00  0.00    +0.000 A 
ATOM     28  C   UNL     1       3.537  -7.692   1.682  0.00  0.00    +0.000 A 
ATOM     29  C   UNL     1       3.079  -6.422   1.385  0.00  0.00    +0.005 A 
ENDBRANCH  23  24
ENDBRANCH  21  23
ENDBRANCH  18  21
ENDBRANCH   4  18
TORSDOF 5
