REMARK  Name = ZINC39352842
REMARK  4 active torsions:
REMARK  status: ('A' for Active; 'I' for Inactive)
REMARK    1  A    between atoms: C_3  and  C_6
REMARK    2  A    between atoms: C_8  and  C_12
REMARK    3  A    between atoms: N_14  and  N_15
REMARK    4  A    between atoms: C_16  and  C_18
REMARK                            x       y       z     vdW  Elec       q    Type
REMARK                         _______ _______ _______ _____ _____    ______ ____
ROOT
ATOM      1  C   UNL     1       6.463  -0.443  -1.308  0.00  0.00    +0.259 C 
ATOM      2  O   UNL     1       6.591   0.324  -2.239  0.00  0.00    -0.272 OA
ATOM      3  N   UNL     1       6.959  -1.694  -1.391  0.00  0.00    -0.232 N 
ATOM      4  H   UNL     1       6.856  -2.307  -0.647  0.00  0.00    +0.173 HD
ENDROOT
BRANCH   1   7
ATOM      5  C   UNL     1       3.574   0.619  -0.029  0.00  0.00    +0.126 C 
ATOM      6  C   UNL     1       4.318  -0.508  -0.048  0.00  0.00    +0.044 C 
ATOM      7  C   UNL     1       5.748   0.002  -0.058  0.00  0.00    +0.240 C 
ATOM      8  N   UNL     1       5.584   1.465  -0.043  0.00  0.00    -0.170 NA
ATOM      9  N   UNL     1       4.377   1.716  -0.033  0.00  0.00    -0.150 NA
BRANCH   5  12
ATOM     10  C   UNL     1      -0.016   1.343   0.009  0.00  0.00    +0.042 A 
ATOM     11  C   UNL     1       1.325   1.774  -0.001  0.00  0.00    +0.051 A 
ATOM     12  C   UNL     1       2.097   0.654  -0.014  0.00  0.00    +0.154 A 
ATOM     13  O   UNL     1       1.280  -0.417  -0.012  0.00  0.00    -0.461 OA
ATOM     14  C   UNL     1       0.002  -0.004   0.002  0.00  0.00    +0.196 A 
ENDBRANCH   5  12
ENDBRANCH   1   7
BRANCH   3  15
ATOM     15  N   UNL     1       7.623  -2.108  -2.553  0.00  0.00    -0.234 N 
ATOM     16  C   UNL     1       8.119  -3.358  -2.636  0.00  0.00    +0.235 C 
ATOM     17  O   UNL     1       7.991  -4.125  -1.706  0.00  0.00    -0.274 OA
ATOM     18  H   UNL     1       7.726  -1.494  -3.298  0.00  0.00    +0.173 HD
BRANCH  16  19
ATOM     19  C   UNL     1       8.834  -3.803  -3.886  0.00  0.00    +0.049 C 
ATOM     20  C   UNL     1      10.050  -2.906  -4.125  0.00  0.00    +0.019 C 
ATOM     21  C   UNL     1      10.776  -3.358  -5.394  0.00  0.00    -0.009 C 
ATOM     22  C   UNL     1      11.236  -4.808  -5.230  0.00  0.00    +0.007 C 
ATOM     23  C   UNL     1      10.020  -5.705  -4.990  0.00  0.00    -0.009 C 
ATOM     24  C   UNL     1       9.294  -5.253  -3.721  0.00  0.00    +0.019 C 
ATOM     25  C   UNL     1       9.069  -5.605  -6.185  0.00  0.00    +0.007 C 
ATOM     26  C   UNL     1       8.609  -4.155  -6.350  0.00  0.00    -0.009 C 
ATOM     27  C   UNL     1       9.825  -3.258  -6.589  0.00  0.00    +0.007 C 
ATOM     28  C   UNL     1       7.883  -3.703  -5.081  0.00  0.00    +0.019 C 
ENDBRANCH  16  19
ENDBRANCH   3  15
TORSDOF 4
