REMARK  Name = ZINC01126727
REMARK  10 active torsions:
REMARK  status: ('A' for Active; 'I' for Inactive)
REMARK    1  A    between atoms: C_1  and  C_2
REMARK    2  A    between atoms: C_2  and  C_3
REMARK    3  A    between atoms: C_2  and  O_4
REMARK    4  A    between atoms: O_4  and  C_5
REMARK    5  A    between atoms: C_6  and  C_14
REMARK    6  A    between atoms: C_10  and  O_11
REMARK    7  A    between atoms: O_11  and  C_12
REMARK    8  A    between atoms: C_16  and  C_28
REMARK    9  A    between atoms: C_17  and  C_22
REMARK   10  A    between atoms: C_28  and  C_30
REMARK                            x       y       z     vdW  Elec       q    Type
REMARK                         _______ _______ _______ _____ _____    ______ ____
ROOT
ATOM      1  C   UNL     1      -5.934   0.873   0.216  0.00  0.00    +0.141 C 
ATOM      2  C   UNL     1      -4.821   1.858  -0.079  0.00  0.00    +0.041 C 
ATOM      3  C   UNL     1      -3.735   1.397  -0.797  0.00  0.00    +0.048 C 
ATOM      4  N   UNL     1      -3.686   0.095  -1.226  0.00  0.00    -0.296 N 
ATOM      5  C   UNL     1      -4.647  -0.803  -0.979  0.00  0.00    +0.135 C 
ATOM      6  S   UNL     1      -4.453  -2.399  -1.566  0.00  0.00    -0.019 S 
ATOM      7  N   UNL     1      -5.764  -0.498  -0.291  0.00  0.00    -0.315 N 
ATOM      8  H   UNL     1      -2.909  -0.193  -1.732  0.00  0.00    +0.154 HD
ATOM      9  H   UNL     1      -6.445  -1.171  -0.133  0.00  0.00    +0.149 HD
ENDROOT
BRANCH   1  11
ATOM     10  C   UNL     1      -8.336   1.553   0.433  0.00  0.00    +0.168 A 
ATOM     11  C   UNL     1      -7.210   1.427  -0.364  0.00  0.00    +0.024 A 
ATOM     12  C   UNL     1      -7.255   1.814  -1.691  0.00  0.00    +0.029 A 
ATOM     13  C   UNL     1      -8.426   2.318  -2.228  0.00  0.00    +0.045 A 
ATOM     14  C   UNL     1      -9.554   2.446  -1.437  0.00  0.00    +0.069 A 
ATOM     15  C   UNL     1      -9.513   2.064  -0.105  0.00  0.00    +0.163 A 
ATOM     16 CL   UNL     1      -8.479   2.796  -3.896  0.00  0.00    -0.083 Cl
BRANCH  15  17
ATOM     17  O   UNL     1     -10.620   2.189   0.673  0.00  0.00    -0.491 OA
ATOM     18  C   UNL     1     -11.793   2.722   0.054  0.00  0.00    +0.277 C 
ENDBRANCH  15  17
BRANCH  10  19
ATOM     19  O   UNL     1      -8.291   1.177   1.739  0.00  0.00    -0.485 OA
BRANCH  19  21
ATOM     20  C   UNL     1      -8.937   1.925   3.945  0.00  0.00    +0.051 C 
ATOM     21  C   UNL     1      -8.088   2.211   2.705  0.00  0.00    +0.168 C 
ATOM     22  C   UNL     1      -6.611   2.259   3.098  0.00  0.00    +0.051 C 
ENDBRANCH  19  21
ENDBRANCH  10  19
ENDBRANCH   1  11
BRANCH   3  23
ATOM     23  C   UNL     1      -2.623   2.314  -1.112  0.00  0.00    -0.003 A 
ATOM     24  C   UNL     1      -2.881   3.557  -1.695  0.00  0.00    +0.010 A 
ATOM     25  C   UNL     1      -1.837   4.411  -1.982  0.00  0.00    +0.001 A 
ATOM     26  C   UNL     1      -0.535   4.037  -1.699  0.00  0.00    +0.000 A 
ATOM     27  C   UNL     1      -0.271   2.804  -1.127  0.00  0.00    +0.001 A 
ATOM     28  C   UNL     1      -1.305   1.940  -0.834  0.00  0.00    +0.010 A 
ENDBRANCH   3  23
BRANCH   2  29
ATOM     29  C   UNL     1      -4.890   3.184   0.360  0.00  0.00    +0.160 C 
ATOM     30  O   UNL     1      -4.133   3.578   1.226  0.00  0.00    -0.293 OA
ATOM     31  C   UNL     1      -5.903   4.125  -0.240  0.00  0.00    +0.091 C 
ENDBRANCH   2  29
TORSDOF 6
