REMARK  Name = ZINC53517903
REMARK  7 active torsions:
REMARK  status: ('A' for Active; 'I' for Inactive)
REMARK    1  A    between atoms: C_1  and  C_2
REMARK    2  A    between atoms: C_2  and  C_3
REMARK    3  A    between atoms: C_2  and  N_4
REMARK    4  A    between atoms: C_5  and  C_7
REMARK    5  A    between atoms: C_7  and  N_8
REMARK    6  A    between atoms: N_16  and  C_17
REMARK    7  A    between atoms: C_17  and  C_18
REMARK                            x       y       z     vdW  Elec       q    Type
REMARK                         _______ _______ _______ _____ _____    ______ ____
ROOT
ATOM      1  N   UNL     1      -3.089  -3.599  -1.062  0.00  0.00    -0.291 NA
ATOM      2  C   UNL     1      -2.348  -4.559  -0.232  0.00  0.00    +0.104 C 
ATOM      3  C   UNL     1      -2.249  -5.898  -0.970  0.00  0.00    +0.124 C 
ATOM      4  N   UNL     1      -3.604  -6.322  -1.352  0.00  0.00    -0.283 N 
ATOM      5  C   UNL     1      -4.458  -5.362  -2.068  0.00  0.00    +0.124 C 
ATOM      6  C   UNL     1      -4.470  -4.045  -1.286  0.00  0.00    +0.104 C 
ATOM      7  C   UNL     1      -4.052  -7.558  -1.054  0.00  0.00    +0.303 C 
ATOM      8  O   UNL     1      -3.303  -8.370  -0.544  0.00  0.00    -0.253 OA
ATOM      9  N   UNL     1      -5.329  -7.895  -1.322  0.00  0.00    -0.295 N 
ATOM     10  H   UNL     1      -5.905  -7.275  -1.795  0.00  0.00    +0.151 HD
ENDROOT
BRANCH   1  11
ATOM     11  C   UNL     1      -3.058  -2.256  -0.467  0.00  0.00    +0.180 C 
BRANCH  11  13
ATOM     12  N   UNL     1      -1.374  -0.512   0.021  0.00  0.00    -0.312 N 
ATOM     13  C   UNL     1      -1.645  -1.734  -0.478  0.00  0.00    +0.227 C 
ATOM     14  O   UNL     1      -0.750  -2.414  -0.935  0.00  0.00    -0.274 OA
ATOM     15  H   UNL     1      -2.089   0.032   0.387  0.00  0.00    +0.149 HD
BRANCH  12  17
ATOM     16  C   UNL     1      -0.021   1.525   0.021  0.00  0.00    +0.027 C 
ATOM     17  C   UNL     1       0.001  -0.004   0.011  0.00  0.00    +0.067 C 
ATOM     18  C   UNL     1       0.741  -0.513   1.249  0.00  0.00    +0.027 C 
ENDBRANCH  12  17
ENDBRANCH  11  13
ENDBRANCH   1  11
BRANCH   9  19
ATOM     19  C   UNL     1      -5.847  -9.198  -0.898  0.00  0.00    +0.142 C 
BRANCH  19  20
ATOM     20  C   UNL     1      -7.289  -9.326  -1.316  0.00  0.00    -0.012 A 
ATOM     21  C   UNL     1      -8.297  -9.100  -0.397  0.00  0.00    +0.008 A 
ATOM     22  C   UNL     1      -9.620  -9.216  -0.780  0.00  0.00    +0.020 A 
ATOM     23  C   UNL     1      -9.937  -9.559  -2.083  0.00  0.00    +0.042 A 
ATOM     24  C   UNL     1      -8.929  -9.785  -3.002  0.00  0.00    +0.040 A 
ATOM     25  C   UNL     1      -7.604  -9.663  -2.620  0.00  0.00    +0.047 A 
ATOM     26 CL   UNL     1      -6.338  -9.941  -3.775  0.00  0.00    -0.083 Cl
ATOM     27 CL   UNL     1     -11.598  -9.706  -2.563  0.00  0.00    -0.083 Cl
ENDBRANCH  19  20
ENDBRANCH   9  19
TORSDOF 5
