REMARK  Name = ZINC16767652
REMARK  5 active torsions:
REMARK  status: ('A' for Active; 'I' for Inactive)
REMARK    1  A    between atoms: C_3  and  C_21
REMARK    2  A    between atoms: C_6  and  C_7
REMARK    3  A    between atoms: C_7  and  O_8
REMARK    4  A    between atoms: O_8  and  C_9
REMARK    5  A    between atoms: C_9  and  C_11
REMARK                            x       y       z     vdW  Elec       q    Type
REMARK                         _______ _______ _______ _____ _____    ______ ____
ROOT
ATOM      1  O   UNL     1      -1.717  -1.007  -1.334  0.00  0.00    -0.456 OA
ENDROOT
BRANCH   1   2
ATOM      2  C   UNL     1      -2.870  -1.688  -1.504  0.00  0.00    +0.346 C 
ATOM      3  O   UNL     1      -3.498  -2.071  -0.535  0.00  0.00    -0.244 OA
BRANCH   2   4
ATOM      4  C   UNL     1      -3.364  -1.966  -2.853  0.00  0.00    +0.097 A 
ATOM      5  C   UNL     1      -4.510  -2.633  -3.242  0.00  0.00    +0.026 A 
ATOM      6  C   UNL     1      -4.736  -2.756  -4.610  0.00  0.00    -0.036 A 
ATOM      7  C   UNL     1      -3.803  -2.205  -5.430  0.00  0.00    -0.006 A 
ATOM      8  S   UNL     1      -2.650  -1.525  -4.426  0.00  0.00    -0.086 S 
ATOM      9  C   UNL     1      -3.789  -2.195  -6.930  0.00  0.00    +0.043 C 
ATOM     10  C   UNL     1      -5.229  -2.239  -7.455  0.00  0.00    +0.005 C 
ATOM     11  C   UNL     1      -5.645  -3.698  -7.612  0.00  0.00    +0.001 C 
ATOM     12  C   UNL     1      -5.592  -4.420  -6.269  0.00  0.00    +0.005 C 
ATOM     13  C   UNL     1      -5.975  -3.471  -5.138  0.00  0.00    +0.036 C 
ENDBRANCH   2   4
ENDBRANCH   1   2
BRANCH   1  14
ATOM     14  C   UNL     1      -1.295  -0.772   0.010  0.00  0.00    +0.268 C 
BRANCH  14  20
ATOM     15  C   UNL     1      -0.017   1.379   0.010  0.00  0.00    +0.008 A 
ATOM     16  C   UNL     1       1.167   2.088   0.002  0.00  0.00    +0.013 A 
ATOM     17  C   UNL     1       2.385   1.407  -0.013  0.00  0.00    +0.037 A 
ATOM     18  C   UNL     1       2.397   0.011  -0.021  0.00  0.00    +0.013 A 
ATOM     19  C   UNL     1       1.206  -0.686  -0.013  0.00  0.00    +0.008 A 
ATOM     20  C   UNL     1       0.002  -0.004   0.002  0.00  0.00    -0.010 A 
BRANCH  17  21
ATOM     21  C   UNL     1       3.657   2.160  -0.022  0.00  0.00    +0.242 C 
ATOM     22  O   UNL     1       3.643   3.376  -0.015  0.00  0.00    -0.270 OA
ATOM     23  N   UNL     1       4.831   1.499  -0.037  0.00  0.00    -0.325 N 
ATOM     24  H   UNL     1       4.842   0.529  -0.042  0.00  0.00    +0.145 HD
ATOM     25  H   UNL     1       5.666   1.994  -0.042  0.00  0.00    +0.145 HD
ENDBRANCH  17  21
ENDBRANCH  14  20
ENDBRANCH   1  14
TORSDOF 5
