REMARK  Name = ZINC66087953
REMARK  7 active torsions:
REMARK  status: ('A' for Active; 'I' for Inactive)
REMARK    1  A    between atoms: C_1  and  O_2
REMARK    2  A    between atoms: O_2  and  C_3
REMARK    3  A    between atoms: C_6  and  C_10
REMARK    4  A    between atoms: C_8  and  O_9
REMARK    5  A    between atoms: C_13  and  C_16
REMARK    6  A    between atoms: C_20  and  O_22
REMARK    7  A    between atoms: O_22  and  C_23
REMARK                            x       y       z     vdW  Elec       q    Type
REMARK                         _______ _______ _______ _____ _____    ______ ____
ROOT
ATOM      1  C   UNL     1       2.498  -2.492  -4.371  0.00  0.00    +0.182 A 
ATOM      2  N   UNL     1       3.077  -1.858  -5.398  0.00  0.00    -0.207 NA
ATOM      3  H   UNL     1       3.533  -4.822  -6.174  0.00  0.00    +0.191 HD
ATOM      4  C   UNL     1       3.563  -2.739  -6.246  0.00  0.00    +0.157 A 
ATOM      5  N   UNL     1       3.296  -3.976  -5.764  0.00  0.00    -0.258 N 
ATOM      6  N   UNL     1       2.614  -3.790  -4.551  0.00  0.00    -0.152 NA
ENDROOT
BRANCH   4   7
ATOM      7  C   UNL     1       4.275  -2.432  -7.506  0.00  0.00    +0.026 A 
ATOM      8  C   UNL     1       4.488  -1.106  -7.883  0.00  0.00    +0.061 A 
ATOM      9  C   UNL     1       5.153  -0.820  -9.062  0.00  0.00    +0.171 A 
ATOM     10  C   UNL     1       5.612  -1.856  -9.872  0.00  0.00    +0.208 A 
ATOM     11  C   UNL     1       5.400  -3.179  -9.497  0.00  0.00    +0.166 A 
ATOM     12  C   UNL     1       4.739  -3.469  -8.316  0.00  0.00    +0.061 A 
ATOM     13  O   UNL     1       6.228  -1.315 -10.964  0.00  0.00    -0.449 OA
ATOM     14  C   UNL     1       5.784   0.053 -11.018  0.00  0.00    +0.467 C 
ATOM     15  O   UNL     1       5.483   0.369  -9.646  0.00  0.00    -0.452 OA
BRANCH  11  16
ATOM     16  O   UNL     1       5.848  -4.189 -10.290  0.00  0.00    -0.491 OA
ATOM     17  C   UNL     1       5.597  -5.523  -9.845  0.00  0.00    +0.277 C 
ENDBRANCH  11  16
ENDBRANCH   4   7
BRANCH   1  21
ATOM     18  C   UNL     1       0.606  -0.607  -1.056  0.00  0.00    +0.161 A 
ATOM     19  C   UNL     1       1.172   0.162  -2.061  0.00  0.00    +0.050 A 
ATOM     20  C   UNL     1       1.787  -0.447  -3.137  0.00  0.00    +0.015 A 
ATOM     21  C   UNL     1       1.839  -1.837  -3.215  0.00  0.00    +0.025 A 
ATOM     22  C   UNL     1       1.270  -2.611  -2.205  0.00  0.00    +0.060 A 
ATOM     23  C   UNL     1       0.660  -1.997  -1.126  0.00  0.00    +0.159 A 
BRANCH  18  25
ATOM     24  C   UNL     1      -0.017   1.425   0.010  0.00  0.00    +0.277 C 
ATOM     25  O   UNL     1       0.002  -0.004   0.002  0.00  0.00    -0.491 OA
ENDBRANCH  18  25
BRANCH  23  26
ATOM     26  O   UNL     1       0.109  -2.750  -0.137  0.00  0.00    -0.503 OA
ATOM     27  H   UNL     1      -0.819  -2.976  -0.285  0.00  0.00    +0.292 HD
ENDBRANCH  23  26
ENDBRANCH   1  21
TORSDOF 5
