REMARK  Name = ZINC08985619
REMARK  7 active torsions:
REMARK  status: ('A' for Active; 'I' for Inactive)
REMARK    1  A    between atoms: C_3  and  C_6
REMARK    2  A    between atoms: C_6  and  C_7
REMARK    3  A    between atoms: C_10  and  S_15
REMARK    4  A    between atoms: N_11  and  C_12
REMARK    5  A    between atoms: S_15  and  C_16
REMARK    6  A    between atoms: C_16  and  C_17
REMARK    7  A    between atoms: N_19  and  N_20
REMARK                            x       y       z     vdW  Elec       q    Type
REMARK                         _______ _______ _______ _____ _____    ______ ____
ROOT
ATOM      1  C   UNL     1      -1.321   0.583   1.131  0.00  0.00    +0.240 C 
ATOM      2  O   UNL     1      -2.374   1.174   1.022  0.00  0.00    -0.273 OA
ATOM      3  N   UNL     1      -0.941   0.099   2.330  0.00  0.00    -0.223 N 
ATOM      4  H   UNL     1      -0.099  -0.374   2.417  0.00  0.00    +0.174 HD
ENDROOT
BRANCH   3   5
ATOM      5  N   UNL     1      -1.762   0.280   3.451  0.00  0.00    -0.137 N 
ATOM      6  C   UNL     1      -2.515  -0.693   4.004  0.00  0.00    +0.263 C 
ATOM      7  O   UNL     1      -2.606  -1.846   3.642  0.00  0.00    -0.271 OA
ATOM      8  C   UNL     1      -3.220  -0.043   5.173  0.00  0.00    +0.114 C 
ATOM      9  C   UNL     1      -2.820  -0.721   6.479  0.00  0.00    +0.035 C 
ATOM     10  C   UNL     1      -3.521  -0.030   7.651  0.00  0.00    +0.003 C 
ATOM     11  C   UNL     1      -5.037  -0.114   7.457  0.00  0.00    +0.000 C 
ATOM     12  C   UNL     1      -5.425   0.591   6.156  0.00  0.00    +0.003 C 
ATOM     13  C   UNL     1      -4.731  -0.096   4.978  0.00  0.00    +0.035 C 
ATOM     14  N   UNL     1      -2.746   1.347   5.147  0.00  0.00    -0.284 N 
ATOM     15  C   UNL     1      -1.893   1.439   4.109  0.00  0.00    +0.326 C 
ATOM     16  O   UNL     1      -1.309   2.460   3.802  0.00  0.00    -0.251 OA
ATOM     17  H   UNL     1      -2.994   2.057   5.759  0.00  0.00    +0.151 HD
ENDBRANCH   3   5
BRANCH   1  18
ATOM     18  C   UNL     1      -0.438   0.388  -0.075  0.00  0.00    +0.174 C 
BRANCH  18  19
ATOM     19  S   UNL     1      -1.218   1.144  -1.522  0.00  0.00    -0.077 S 
BRANCH  19  23
ATOM     20  C   UNL     1       1.088   0.627  -4.626  0.00  0.00    +0.139 A 
ATOM     21  N   UNL     1       1.761   0.044  -3.675  0.00  0.00    -0.133 NA
ATOM     22  N   UNL     1       1.122   0.134  -2.563  0.00  0.00    -0.122 NA
ATOM     23  C   UNL     1      -0.007   0.778  -2.749  0.00  0.00    +0.192 A 
ATOM     24  N   UNL     1      -0.063   1.115  -4.071  0.00  0.00    -0.303 N 
BRANCH  24  25
ATOM     25  C   UNL     1      -1.132   1.848  -4.752  0.00  0.00    +0.091 C 
ATOM     26  C   UNL     1      -2.118   2.631  -3.882  0.00  0.00    +0.027 C 
ATOM     27  C   UNL     1      -2.564   1.339  -4.572  0.00  0.00    +0.027 C 
ENDBRANCH  24  25
BRANCH  20  28
ATOM     28  C   UNL     1       1.500   0.741  -6.071  0.00  0.00    +0.118 C 
BRANCH  28  31
ATOM     29  C   UNL     1       4.151   3.458  -6.393  0.00  0.00    +0.008 A 
ATOM     30  C   UNL     1       3.635   2.196  -6.167  0.00  0.00    +0.011 A 
ATOM     31  C   UNL     1       2.296   2.006  -6.267  0.00  0.00    -0.003 A 
ATOM     32  S   UNL     1       1.723   3.640  -6.700  0.00  0.00    -0.101 S 
ATOM     33  C   UNL     1       3.304   4.468  -6.709  0.00  0.00    +0.045 A 
ENDBRANCH  28  31
ENDBRANCH  20  28
ENDBRANCH  19  23
ENDBRANCH  18  19
ENDBRANCH   1  18
TORSDOF 7
