REMARK  Name = ZINC12537421
REMARK  3 active torsions:
REMARK  status: ('A' for Active; 'I' for Inactive)
REMARK    1  A    between atoms: C_5  and  N_7
REMARK    2  A    between atoms: C_13  and  C_15
REMARK    3  A    between atoms: C_15  and  C_16
REMARK                            x       y       z     vdW  Elec       q    Type
REMARK                         _______ _______ _______ _____ _____    ______ ____
ROOT
ATOM      1  N   UNL     1      -3.402  -2.021  -0.969  0.00  0.00    -0.325 N 
ATOM      2  C   UNL     1      -2.081  -2.644  -1.125  0.00  0.00    +0.124 C 
ATOM      3  C   UNL     1      -1.159  -2.164   0.002  0.00  0.00    +0.126 C 
ATOM      4  N   UNL     1      -1.156  -0.694   0.009  0.00  0.00    -0.298 N 
ATOM      5  C   UNL     1      -2.450   0.004   0.032  0.00  0.00    +0.126 C 
ATOM      6  C   UNL     1      -3.322  -0.560  -1.101  0.00  0.00    +0.124 C 
ATOM      7  C   UNL     1       0.002  -0.004   0.002  0.00  0.00    +0.216 C 
ATOM      8  O   UNL     1       1.060  -0.596  -0.011  0.00  0.00    -0.276 OA
ENDROOT
BRANCH   1  13
ATOM      9  C   UNL     1      -5.516  -4.441  -2.756  0.00  0.00    +0.002 A 
ATOM     10  C   UNL     1      -6.133  -3.618  -3.680  0.00  0.00    +0.003 A 
ATOM     11  C   UNL     1      -5.848  -2.265  -3.707  0.00  0.00    +0.040 A 
ATOM     12  C   UNL     1      -4.942  -1.731  -2.809  0.00  0.00    +0.144 A 
ATOM     13  C   UNL     1      -4.319  -2.557  -1.879  0.00  0.00    +0.065 A 
ATOM     14  C   UNL     1      -4.606  -3.915  -1.860  0.00  0.00    +0.026 A 
ATOM     15  F   UNL     1      -4.662  -0.410  -2.835  0.00  0.00    -0.204 F 
ENDBRANCH   1  13
BRANCH   7  16
ATOM     16  C   UNL     1      -0.018   1.503   0.010  0.00  0.00    +0.103 C 
BRANCH  16  17
ATOM     17  C   UNL     1       1.417   2.032  -0.001  0.00  0.00    +0.020 C 
ATOM     18  C   UNL     1       1.421   3.577  -0.079  0.00  0.00    +0.012 C 
ATOM     19  C   UNL     1       2.630   3.924   0.824  0.00  0.00    +0.027 C 
ATOM     20  C   UNL     1       2.768   2.741   1.754  0.00  0.00    -0.031 C 
ATOM     21  C   UNL     1       2.107   1.710   1.304  0.00  0.00    -0.027 C 
ENDBRANCH  16  17
ENDBRANCH   7  16
TORSDOF 3
