REMARK  Name = ZINC08843128
REMARK  7 active torsions:
REMARK  status: ('A' for Active; 'I' for Inactive)
REMARK    1  A    between atoms: C_3  and  C_8
REMARK    2  A    between atoms: C_8  and  S_9
REMARK    3  A    between atoms: S_9  and  C_10
REMARK    4  A    between atoms: C_10  and  C_11
REMARK    5  A    between atoms: N_13  and  N_14
REMARK    6  A    between atoms: C_15  and  C_16
REMARK    7  A    between atoms: C_19  and  C_21
REMARK                            x       y       z     vdW  Elec       q    Type
REMARK                         _______ _______ _______ _____ _____    ______ ____
ROOT
ATOM      1  N   UNL     1      -2.367  -0.365   0.022  0.00  0.00    -0.185 NA
ATOM      2  C   UNL     1      -1.171  -0.880   0.008  0.00  0.00    +0.176 C 
ENDROOT
BRANCH   2   3
ATOM      3  C   UNL     1       0.002  -0.004   0.002  0.00  0.00    +0.148 A 
ATOM      4  C   UNL     1       1.317  -0.414  -0.013  0.00  0.00    +0.051 A 
ATOM      5  C   UNL     1       2.103   0.746  -0.014  0.00  0.00    +0.050 A 
ATOM      6  C   UNL     1       1.248   1.808  -0.000  0.00  0.00    +0.137 A 
ATOM      7  O   UNL     1      -0.016   1.345   0.009  0.00  0.00    -0.454 OA
BRANCH   6   8
ATOM      8  C   UNL     1       1.643   3.231   0.004  0.00  0.00    +0.036 A 
ATOM      9  C   UNL     1       2.583   3.695   0.926  0.00  0.00    +0.014 A 
ATOM     10  C   UNL     1       2.951   5.024   0.922  0.00  0.00    +0.021 A 
ATOM     11  C   UNL     1       2.383   5.901   0.012  0.00  0.00    +0.042 A 
ATOM     12  C   UNL     1       1.446   5.449  -0.902  0.00  0.00    +0.040 A 
ATOM     13  C   UNL     1       1.073   4.120  -0.912  0.00  0.00    +0.053 A 
ATOM     14 CL   UNL     1      -0.103   3.555  -2.058  0.00  0.00    -0.083 Cl
ATOM     15 CL   UNL     1       2.848   7.573   0.018  0.00  0.00    -0.083 Cl
ENDBRANCH   6   8
ENDBRANCH   2   3
BRANCH   1  18
ATOM     16  C   UNL     1      -4.728  -0.670   0.043  0.00  0.00    +0.242 C 
ATOM     17  O   UNL     1      -4.870   0.534   0.051  0.00  0.00    -0.273 OA
ATOM     18  N   UNL     1      -3.490  -1.203   0.028  0.00  0.00    -0.206 N 
ATOM     19  H   UNL     1      -3.377  -2.166   0.021  0.00  0.00    +0.177 HD
BRANCH  16  20
ATOM     20  C   UNL     1      -5.936  -1.572   0.049  0.00  0.00    +0.166 C 
BRANCH  20  21
ATOM     21  S   UNL     1      -7.443  -0.562   0.069  0.00  0.00    -0.147 S 
BRANCH  21  22
ATOM     22  C   UNL     1      -8.787  -1.781   0.075  0.00  0.00    +0.104 C 
BRANCH  22  25
ATOM     23  C   UNL     1     -11.928  -0.089   1.312  0.00  0.00    +0.001 A 
ATOM     24  C   UNL     1     -10.713  -0.750   1.296  0.00  0.00    +0.004 A 
ATOM     25  C   UNL     1     -10.114  -1.066   0.091  0.00  0.00    -0.037 A 
ATOM     26  C   UNL     1     -10.733  -0.731  -1.098  0.00  0.00    +0.019 A 
ATOM     27  C   UNL     1     -11.951  -0.075  -1.083  0.00  0.00    +0.018 A 
ATOM     28  C   UNL     1     -12.548   0.246   0.123  0.00  0.00    +0.015 A 
ATOM     29 BR   UNL     1     -12.799   0.383  -2.710  0.00  0.00    -0.050 Br
ENDBRANCH  22  25
ENDBRANCH  21  22
ENDBRANCH  20  21
ENDBRANCH  16  20
ENDBRANCH   1  18
TORSDOF 7
