REMARK  Name = ZINC38077732
REMARK  7 active torsions:
REMARK  status: ('A' for Active; 'I' for Inactive)
REMARK    1  A    between atoms: C_1  and  C_2
REMARK    2  A    between atoms: C_2  and  C_3
REMARK    3  A    between atoms: C_3  and  C_5
REMARK    4  A    between atoms: C_3  and  O_10
REMARK    5  A    between atoms: C_5  and  C_6
REMARK    6  A    between atoms: N_7  and  O_8
REMARK    7  A    between atoms: O_10  and  C_11
REMARK                            x       y       z     vdW  Elec       q    Type
REMARK                         _______ _______ _______ _____ _____    ______ ____
ROOT
ATOM      1  O   UNL     1       0.010  -0.149   2.414  0.00  0.00    -0.487 OA
ENDROOT
BRANCH   1   2
ATOM      2  C   UNL     1       0.378   0.999   3.041  0.00  0.00    +0.135 A 
ATOM      3  C   UNL     1       1.359   1.814   2.469  0.00  0.00    +0.047 A 
ATOM      4  C   UNL     1       1.748   2.970   3.072  0.00  0.00    +0.012 A 
ATOM      5  C   UNL     1       1.158   3.354   4.289  0.00  0.00    -0.017 A 
ATOM      6  C   UNL     1       1.536   4.541   4.939  0.00  0.00    +0.008 A 
ATOM      7  C   UNL     1       0.943   4.883   6.115  0.00  0.00    +0.001 A 
ATOM      8  C   UNL     1      -0.035   4.073   6.689  0.00  0.00    +0.001 A 
ATOM      9  C   UNL     1      -0.426   2.916   6.088  0.00  0.00    +0.010 A 
ATOM     10  C   UNL     1       0.163   2.530   4.872  0.00  0.00    -0.000 A 
ATOM     11  C   UNL     1      -0.221   1.345   4.220  0.00  0.00    +0.067 A 
ATOM     12 BR   UNL     1      -1.552   0.233   4.973  0.00  0.00    -0.046 Br
ENDBRANCH   1   2
BRANCH   1  13
ATOM     13  C   UNL     1       0.752  -0.519   1.250  0.00  0.00    +0.180 C 
BRANCH  13  15
ATOM     14  C   UNL     1      -0.116   1.430  -0.050  0.00  0.00    +0.007 C 
ATOM     15  C   UNL     1      -0.020  -0.096  -0.002  0.00  0.00    +0.041 C 
ENDBRANCH  13  15
BRANCH  13  16
ATOM     16  C   UNL     1       0.956  -2.035   1.235  0.00  0.00    +0.119 C 
BRANCH  16  17
ATOM     17  C   UNL     1       1.821  -2.436   2.403  0.00  0.00    +0.135 C 
ATOM     18  N   UNL     1       2.259  -1.538   3.221  0.00  0.00    -0.077 NA
ATOM     19  N   UNL     1       2.143  -3.761   2.597  0.00  0.00    -0.344 N 
ATOM     20  H   UNL     1       1.813  -4.436   1.983  0.00  0.00    +0.144 HD
ATOM     21  H   UNL     1       2.699  -4.020   3.349  0.00  0.00    +0.144 HD
BRANCH  18  22
ATOM     22  O   UNL     1       3.072  -1.915   4.318  0.00  0.00    -0.408 OA
ATOM     23  H   UNL     1       3.351  -1.175   4.873  0.00  0.00    +0.328 HD
ENDBRANCH  18  22
ENDBRANCH  16  17
ENDBRANCH  13  16
ENDBRANCH   1  13
TORSDOF 6
