REMARK  Name = ZINC39533816
REMARK  8 active torsions:
REMARK  status: ('A' for Active; 'I' for Inactive)
REMARK    1  A    between atoms: C_1  and  C_2
REMARK    2  A    between atoms: C_2  and  O_3
REMARK    3  A    between atoms: O_3  and  N_4
REMARK    4  A    between atoms: N_4  and  C_5
REMARK    5  A    between atoms: C_5  and  C_6
REMARK    6  A    between atoms: C_6  and  C_8
REMARK    7  A    between atoms: C_6  and  N_20
REMARK    8  A    between atoms: C_11  and  C_14
REMARK                            x       y       z     vdW  Elec       q    Type
REMARK                         _______ _______ _______ _____ _____    ______ ____
ROOT
ATOM      1  C   UNL     1      -2.786  -3.922   0.069  0.00  0.00    +0.103 C 
ENDROOT
BRANCH   1   2
ATOM      2  N   UNL     1      -1.922  -4.421  -1.009  0.00  0.00    -0.291 NA
ATOM      3  C   UNL     1      -2.011  -5.883  -1.123  0.00  0.00    +0.100 C 
ATOM      4  C   UNL     1      -1.161  -6.354  -2.305  0.00  0.00    +0.097 C 
ATOM      5  N   UNL     1       0.232  -5.929  -2.103  0.00  0.00    -0.302 NA
ATOM      6  C   UNL     1       0.321  -4.466  -1.989  0.00  0.00    +0.136 C 
ATOM      7  C   UNL     1      -0.529  -3.996  -0.807  0.00  0.00    +0.115 C 
ATOM      8 BR   UNL     1       2.195  -3.945  -1.698  0.00  0.00    -0.070 Br
ATOM      9  H   UNL     1       0.634  -6.380  -1.295  0.00  0.00    +0.123 HD
ENDBRANCH   1   2
BRANCH   1  10
ATOM     10  C   UNL     1      -4.215  -4.311  -0.212  0.00  0.00    -0.029 A 
ATOM     11  C   UNL     1      -4.704  -4.250  -1.505  0.00  0.00    +0.006 A 
ATOM     12  C   UNL     1      -6.011  -4.605  -1.768  0.00  0.00    +0.009 A 
ATOM     13  C   UNL     1      -6.839  -5.026  -0.729  0.00  0.00    -0.018 A 
ATOM     14  C   UNL     1      -6.341  -5.085   0.571  0.00  0.00    +0.009 A 
ATOM     15  C   UNL     1      -5.030  -4.733   0.822  0.00  0.00    +0.006 A 
BRANCH  13  16
ATOM     16  C   UNL     1      -8.246  -5.408  -1.005  0.00  0.00    -0.018 A 
ATOM     17  C   UNL     1      -8.742  -5.353  -2.306  0.00  0.00    +0.008 A 
ATOM     18  C   UNL     1     -10.051  -5.711  -2.558  0.00  0.00    +0.001 A 
ATOM     19  C   UNL     1     -10.870  -6.122  -1.522  0.00  0.00    +0.000 A 
ATOM     20  C   UNL     1     -10.383  -6.177  -0.229  0.00  0.00    +0.001 A 
ATOM     21  C   UNL     1      -9.073  -5.828   0.034  0.00  0.00    +0.008 A 
ENDBRANCH  13  16
ENDBRANCH   1  10
BRANCH   1  22
ATOM     22  C   UNL     1      -2.678  -2.398   0.146  0.00  0.00    +0.134 C 
BRANCH  22  23
ATOM     23  N   UNL     1      -3.482  -1.907   1.273  0.00  0.00    -0.199 NA
ATOM     24  H   UNL     1      -3.146  -2.281   2.147  0.00  0.00    +0.154 HD
BRANCH  23  25
ATOM     25  O   UNL     1      -3.503  -0.444   1.303  0.00  0.00    -0.300 OA
BRANCH  25  27
ATOM     26  C   UNL     1      -4.221   1.632   2.311  0.00  0.00    +0.036 C 
ATOM     27  C   UNL     1      -4.269   0.104   2.377  0.00  0.00    +0.182 C 
ENDBRANCH  25  27
ENDBRANCH  23  25
ENDBRANCH  22  23
ENDBRANCH   1  22
TORSDOF 7
