REMARK  Name = ZINC39211252
REMARK  7 active torsions:
REMARK  status: ('A' for Active; 'I' for Inactive)
REMARK    1  A    between atoms: C_1  and  C_2
REMARK    2  A    between atoms: C_6  and  N_9
REMARK    3  A    between atoms: C_7  and  C_8
REMARK    4  A    between atoms: C_19  and  C_22
REMARK    5  A    between atoms: N_23  and  N_24
REMARK    6  A    between atoms: C_25  and  C_26
REMARK    7  A    between atoms: C_31  and  C_32
REMARK                            x       y       z     vdW  Elec       q    Type
REMARK                         _______ _______ _______ _____ _____    ______ ____
ROOT
ATOM      1  N   UNL     1       0.050  -2.797   2.392  0.00  0.00    -0.283 N 
ATOM      2  C   UNL     1      -0.037  -4.176   2.384  0.00  0.00    +0.225 A 
ATOM      3  N   UNL     1      -0.028  -4.836   1.230  0.00  0.00    -0.179 NA
ATOM      4  C   UNL     1      -0.111  -6.163   1.223  0.00  0.00    +0.241 A 
ATOM      5  N   UNL     1      -0.202  -6.830   2.370  0.00  0.00    -0.180 NA
ATOM      6  C   UNL     1      -0.211  -6.169   3.524  0.00  0.00    +0.224 A 
ATOM      7  N   UNL     1      -0.123  -4.843   3.531  0.00  0.00    -0.181 NA
ATOM      8  N   UNL     1      -0.306  -6.861   4.714  0.00  0.00    -0.299 N 
ATOM      9  C   UNL     1      -0.324  -6.145   5.997  0.00  0.00    +0.108 C 
ATOM     10  C   UNL     1       0.771  -6.723   6.899  0.00  0.00    +0.022 C 
ATOM     11  C   UNL     1       0.580  -8.236   7.021  0.00  0.00    -0.011 C 
ATOM     12  C   UNL     1       0.703  -8.881   5.639  0.00  0.00    +0.022 C 
ATOM     13  C   UNL     1      -0.399  -8.328   4.723  0.00  0.00    +0.108 C 
ATOM     14  C   UNL     1       1.652  -8.812   7.949  0.00  0.00    +0.007 C 
ATOM     15  N   UNL     1      -0.102  -6.849   0.024  0.00  0.00    -0.205 N 
ATOM     16  H   UNL     1       0.133  -2.321   3.233  0.00  0.00    +0.155 HD
ATOM     17  H   UNL     1      -0.162  -7.817   0.019  0.00  0.00    +0.177 HD
ENDROOT
BRANCH   1  23
ATOM     18  C   UNL     1       1.190   1.236  -0.176  0.00  0.00    +0.044 C 
ATOM     19  C   UNL     1       0.562  -0.130  -0.086  0.00  0.00    -0.046 A 
ATOM     20  C   UNL     1      -0.049  -0.684  -1.196  0.00  0.00    +0.004 A 
ATOM     21  C   UNL     1      -0.627  -1.938  -1.118  0.00  0.00    +0.002 A 
ATOM     22  C   UNL     1      -0.596  -2.641   0.070  0.00  0.00    +0.023 A 
ATOM     23  C   UNL     1       0.017  -2.088   1.187  0.00  0.00    +0.037 A 
ATOM     24  C   UNL     1       0.602  -0.831   1.103  0.00  0.00    -0.026 A 
ATOM     25  C   UNL     1       1.274  -0.229   2.311  0.00  0.00    +0.046 C 
ENDBRANCH   1  23
BRANCH  15  26
ATOM     26  N   UNL     1      -0.006  -6.147  -1.184  0.00  0.00    -0.191 NA
ATOM     27  C   UNL     1       0.002  -6.783  -2.295  0.00  0.00    +0.118 C 
BRANCH  27  28
ATOM     28  C   UNL     1       0.106  -6.027  -3.595  0.00  0.00    +0.125 C 
ATOM     29  C   UNL     1      -1.060  -6.364  -4.502  0.00  0.00    +0.123 C 
ATOM     30  N   UNL     1      -0.548  -6.899  -5.562  0.00  0.00    -0.161 NA
ATOM     31  N   UNL     1       0.840  -6.976  -5.502  0.00  0.00    -0.153 NA
ATOM     32  C   UNL     1       1.315  -6.487  -4.385  0.00  0.00    +0.084 C 
BRANCH  32  33
ATOM     33  C   UNL     1       2.726  -6.401  -3.979  0.00  0.00    -0.001 A 
ATOM     34  C   UNL     1       3.068  -5.852  -2.739  0.00  0.00    +0.012 A 
ATOM     35  C   UNL     1       4.391  -5.775  -2.364  0.00  0.00    +0.039 A 
ATOM     36  C   UNL     1       5.384  -6.240  -3.214  0.00  0.00    +0.123 A 
ATOM     37  C   UNL     1       5.052  -6.786  -4.445  0.00  0.00    +0.039 A 
ATOM     38  C   UNL     1       3.732  -6.874  -4.829  0.00  0.00    +0.012 A 
ATOM     39  F   UNL     1       6.680  -6.160  -2.841  0.00  0.00    -0.205 F 
ENDBRANCH  32  33
ENDBRANCH  27  28
ENDBRANCH  15  26
TORSDOF 4
