REMARK  Name = ZINC21604915
REMARK  16 active torsions:
REMARK  status: ('A' for Active; 'I' for Inactive)
REMARK    1  A    between atoms: C_1  and  C_2
REMARK    2  A    between atoms: C_2  and  N_3
REMARK    3  A    between atoms: N_3  and  C_4
REMARK    4  A    between atoms: N_3  and  C_6
REMARK    5  A    between atoms: C_4  and  C_5
REMARK    6  A    between atoms: C_6  and  C_7
REMARK    7  A    between atoms: C_7  and  C_8
REMARK    8  A    between atoms: C_8  and  N_9
REMARK    9  A    between atoms: C_19  and  S_20
REMARK   10  A    between atoms: S_20  and  C_21
REMARK   11  A    between atoms: C_21  and  C_23
REMARK   12  A    between atoms: C_21  and  C_24
REMARK   13  A    between atoms: N_26  and  C_27
REMARK   14  A    between atoms: C_32  and  C_33
REMARK   15  A    between atoms: C_33  and  C_34
REMARK   16  A    between atoms: C_33  and  C_35
REMARK                            x       y       z     vdW  Elec       q    Type
REMARK                         _______ _______ _______ _____ _____    ______ ____
ROOT
ATOM      1  N   UNL     1       5.233   1.630  -1.273  0.00  0.00    -0.287 N 
ATOM      2  C   UNL     1       6.323   2.429  -1.347  0.00  0.00    +0.262 A 
ATOM      3  O   UNL     1       7.365   2.031  -1.833  0.00  0.00    -0.267 OA
ATOM      4  C   UNL     1       6.202   3.792  -0.813  0.00  0.00    +0.065 A 
ATOM      5  C   UNL     1       7.268   4.690  -0.838  0.00  0.00    +0.015 A 
ATOM      6  C   UNL     1       7.101   5.948  -0.328  0.00  0.00    +0.001 A 
ATOM      7  C   UNL     1       5.883   6.339   0.213  0.00  0.00    +0.002 A 
ATOM      8  C   UNL     1       4.822   5.479   0.249  0.00  0.00    +0.028 A 
ATOM      9  C   UNL     1       4.960   4.186  -0.264  0.00  0.00    +0.079 A 
ATOM     10  N   UNL     1       3.939   3.307  -0.248  0.00  0.00    -0.223 NA
ATOM     11  C   UNL     1       4.069   2.095  -0.730  0.00  0.00    +0.173 A 
ENDROOT
BRANCH   1  12
ATOM     12  C   UNL     1       5.299   0.259  -1.786  0.00  0.00    +0.125 C 
BRANCH  12  13
ATOM     13  C   UNL     1       4.902   0.247  -3.263  0.00  0.00    +0.003 C 
BRANCH  13  14
ATOM     14  C   UNL     1       4.971  -1.185  -3.798  0.00  0.00    -0.077 C 
BRANCH  14  15
ATOM     15  N   UNL     1       4.590  -1.197  -5.216  0.00  0.00    +0.379 N 
ATOM     16  H   UNL     1       3.624  -0.680  -5.311  0.00  0.00    -0.082 HD
BRANCH  15  18
ATOM     17  C   UNL     1       6.916  -1.200  -5.981  0.00  0.00    -0.017 C 
ATOM     18  C   UNL     1       5.572  -0.471  -6.032  0.00  0.00    -0.082 C 
ENDBRANCH  15  18
BRANCH  15  19
ATOM     19  C   UNL     1       4.415  -2.572  -5.703  0.00  0.00    -0.082 C 
ATOM     20  C   UNL     1       3.892  -2.542  -7.140  0.00  0.00    -0.017 C 
ENDBRANCH  15  19
ENDBRANCH  14  15
ENDBRANCH  13  14
ENDBRANCH  12  13
ENDBRANCH   1  12
BRANCH  11  21
ATOM     21  S   UNL     1       2.680   1.013  -0.667  0.00  0.00    -0.075 S 
BRANCH  21  22
ATOM     22  C   UNL     1       1.469   2.101   0.124  0.00  0.00    +0.137 C 
ATOM     23  C   UNL     1       1.929   2.427   1.546  0.00  0.00    +0.029 C 
BRANCH  22  24
ATOM     24  C   UNL     1       0.131   1.411   0.174  0.00  0.00    +0.230 C 
ATOM     25  O   UNL     1       0.072   0.199   0.160  0.00  0.00    -0.274 OA
ATOM     26  N   UNL     1      -1.002   2.139   0.229  0.00  0.00    -0.284 N 
ATOM     27  H   UNL     1      -0.947   3.235   0.314  0.00  0.00    +0.155 HD
BRANCH  26  28
ATOM     28  C   UNL     1      -2.247   1.503   0.178  0.00  0.00    +0.037 A 
ATOM     29  C   UNL     1      -2.416   0.257   0.768  0.00  0.00    +0.023 A 
ATOM     30  C   UNL     1      -3.647  -0.367   0.719  0.00  0.00    +0.002 A 
ATOM     31  C   UNL     1      -4.708   0.243   0.076  0.00  0.00    +0.000 A 
ATOM     32  C   UNL     1      -4.542   1.481  -0.517  0.00  0.00    +0.006 A 
ATOM     33  C   UNL     1      -3.314   2.112  -0.468  0.00  0.00    -0.024 A 
BRANCH  33  34
ATOM     34  C   UNL     1      -3.134   3.462  -1.114  0.00  0.00    +0.015 C 
ATOM     35  C   UNL     1      -3.553   3.383  -2.583  0.00  0.00    +0.012 C 
ATOM     36  C   UNL     1      -4.000   4.494  -0.390  0.00  0.00    +0.012 C 
ENDBRANCH  33  34
ENDBRANCH  26  28
ENDBRANCH  22  24
ENDBRANCH  21  22
ENDBRANCH  11  21
TORSDOF 11
