REMARK  Name = ZINC14459585
REMARK  4 active torsions:
REMARK  status: ('A' for Active; 'I' for Inactive)
REMARK    1  A    between atoms: C_1  and  O_2
REMARK    2  A    between atoms: O_2  and  C_3
REMARK    3  A    between atoms: C_7  and  C_10
REMARK    4  A    between atoms: C_8  and  O_9
REMARK                            x       y       z     vdW  Elec       q    Type
REMARK                         _______ _______ _______ _____ _____    ______ ____
ROOT
ATOM      1  C   UNL     1       2.460   3.930  -0.000  0.00  0.00    +0.109 C 
ATOM      2  C   UNL     1       2.910   4.215   1.421  0.00  0.00    +0.029 C 
ATOM      3  C   UNL     1       1.901   4.904   2.350  0.00  0.00    +0.033 C 
ATOM      4  C   UNL     1       2.324   4.364   3.718  0.00  0.00    -0.030 C 
ATOM      5  C   UNL     1       2.928   3.190   3.576  0.00  0.00    -0.023 C 
ATOM      6  C   UNL     1       2.932   2.830   2.135  0.00  0.00    +0.049 C 
ATOM      7  C   UNL     1       4.017   2.025   1.533  0.00  0.00    -0.018 A 
ATOM      8  C   UNL     1       4.764   1.127   2.264  0.00  0.00    +0.020 A 
ATOM      9  C   UNL     1       5.744   0.370   1.647  0.00  0.00    +0.014 A 
ATOM     10  C   UNL     1       5.978   0.515   0.291  0.00  0.00    +0.016 A 
ATOM     11  C   UNL     1       5.241   1.419  -0.447  0.00  0.00    +0.024 A 
ATOM     12  C   UNL     1       4.258   2.188   0.165  0.00  0.00    +0.031 A 
ATOM     13  N   UNL     1       3.534   3.110  -0.602  0.00  0.00    -0.336 N 
ATOM     14  I   UNL     1       6.873  -0.995   2.765  0.00  0.00    -0.044 I 
ATOM     15  H   UNL     1       3.741   3.212  -1.544  0.00  0.00    +0.147 HD
ENDROOT
BRANCH   1  20
ATOM     16  C   UNL     1      -1.240   3.135   0.030  0.00  0.00    +0.162 A 
ATOM     17  C   UNL     1      -1.220   1.749   0.017  0.00  0.00    +0.049 A 
ATOM     18  C   UNL     1      -0.013   1.076   0.008  0.00  0.00    +0.004 A 
ATOM     19  C   UNL     1       1.176   1.782   0.000  0.00  0.00    +0.009 A 
ATOM     20  C   UNL     1       1.163   3.164   0.008  0.00  0.00    +0.018 A 
ATOM     21  C   UNL     1      -0.044   3.845   0.023  0.00  0.00    +0.163 A 
BRANCH  16  23
ATOM     22  C   UNL     1      -3.615   3.004   0.051  0.00  0.00    +0.277 C 
ATOM     23  O   UNL     1      -2.427   3.799   0.044  0.00  0.00    -0.491 OA
ENDBRANCH  16  23
BRANCH  21  24
ATOM     24  O   UNL     1      -0.059   5.205   0.030  0.00  0.00    -0.503 OA
ATOM     25  H   UNL     1      -0.072   5.603  -0.852  0.00  0.00    +0.292 HD
ENDBRANCH  21  24
ENDBRANCH   1  20
TORSDOF 3
