REMARK  Name = ZINC10521613
REMARK  6 active torsions:
REMARK  status: ('A' for Active; 'I' for Inactive)
REMARK    1  A    between atoms: C_4  and  C_7
REMARK    2  A    between atoms: C_16  and  C_19
REMARK    3  A    between atoms: C_19  and  O_21
REMARK    4  A    between atoms: O_21  and  C_22
REMARK    5  A    between atoms: C_22  and  C_23
REMARK    6  A    between atoms: C_27  and  C_36
REMARK                            x       y       z     vdW  Elec       q    Type
REMARK                         _______ _______ _______ _____ _____    ______ ____
ROOT
ATOM      1  O   UNL     1       1.371   7.379   0.674  0.00  0.00    -0.455 OA
ENDROOT
BRANCH   1   2
ATOM      2  C   UNL     1       0.321   8.191   0.877  0.00  0.00    +0.314 C 
ATOM      3  O   UNL     1      -0.797   7.734   0.911  0.00  0.00    -0.250 OA
BRANCH   2  11
ATOM      4  C   UNL     1       1.433  11.749   0.005  0.00  0.00    -0.003 C 
ATOM      5  C   UNL     1       2.324  11.986   1.226  0.00  0.00    +0.015 C 
ATOM      6  C   UNL     1       1.647  11.410   2.471  0.00  0.00    -0.009 C 
ATOM      7  C   UNL     1       0.298  12.099   2.683  0.00  0.00    +0.007 C 
ATOM      8  C   UNL     1      -0.593  11.863   1.462  0.00  0.00    -0.009 C 
ATOM      9  C   UNL     1       0.084  12.439   0.217  0.00  0.00    +0.015 C 
ATOM     10  C   UNL     1      -0.812  10.360   1.274  0.00  0.00    +0.021 C 
ATOM     11  C   UNL     1       0.537   9.671   1.062  0.00  0.00    +0.069 C 
ATOM     12  C   UNL     1       1.428   9.907   2.283  0.00  0.00    +0.021 C 
ATOM     13  C   UNL     1       1.214  10.247  -0.183  0.00  0.00    +0.029 C 
BRANCH   4  17
ATOM     14  C   UNL     1       3.324  13.358  -3.472  0.00  0.00    +0.000 A 
ATOM     15  C   UNL     1       3.012  14.185  -2.409  0.00  0.00    +0.000 A 
ATOM     16  C   UNL     1       2.401  13.665  -1.284  0.00  0.00    +0.004 A 
ATOM     17  C   UNL     1       2.100  12.317  -1.222  0.00  0.00    -0.041 A 
ATOM     18  C   UNL     1       2.417  11.488  -2.282  0.00  0.00    +0.004 A 
ATOM     19  C   UNL     1       3.024  12.010  -3.409  0.00  0.00    +0.000 A 
ENDBRANCH   4  17
ENDBRANCH   2  11
ENDBRANCH   1   2
BRANCH   1  20
ATOM     20  C   UNL     1       1.088   5.965   0.504  0.00  0.00    +0.328 C 
BRANCH  20  21
ATOM     21  C   UNL     1       2.379   5.217   0.289  0.00  0.00    +0.258 C 
ATOM     22  O   UNL     1       3.439   5.801   0.370  0.00  0.00    -0.272 OA
ATOM     23  N   UNL     1       2.355   3.900   0.007  0.00  0.00    -0.261 N 
ATOM     24  C   UNL     1       1.090   3.146  -0.006  0.00  0.00    +0.168 C 
ATOM     25  C   UNL     1       1.122   2.207  -1.220  0.00  0.00    +0.276 C 
ATOM     26  O   UNL     1       2.261   1.350  -1.110  0.00  0.00    -0.476 OA
ATOM     27  C   UNL     1       3.463   1.925  -0.846  0.00  0.00    +0.143 A 
ATOM     28  C   UNL     1       3.537   3.197  -0.284  0.00  0.00    +0.078 A 
ATOM     29  C   UNL     1       4.770   3.769  -0.015  0.00  0.00    +0.027 A 
ATOM     30  C   UNL     1       5.930   3.075  -0.307  0.00  0.00    +0.002 A 
ATOM     31  C   UNL     1       5.859   1.811  -0.862  0.00  0.00    +0.004 A 
ATOM     32  C   UNL     1       4.632   1.237  -1.137  0.00  0.00    +0.047 A 
BRANCH  25  33
ATOM     33  C   UNL     1      -0.135   1.376  -1.253  0.00  0.00    +0.253 C 
ATOM     34  O   UNL     1      -0.071   0.175  -1.098  0.00  0.00    -0.272 OA
ATOM     35  N   UNL     1      -1.329   1.967  -1.456  0.00  0.00    -0.326 N 
ATOM     36  H   UNL     1      -1.379   2.928  -1.580  0.00  0.00    +0.145 HD
ATOM     37  H   UNL     1      -2.138   1.432  -1.477  0.00  0.00    +0.145 HD
ENDBRANCH  25  33
ENDBRANCH  20  21
ENDBRANCH   1  20
TORSDOF 6
