REMARK  Name = ZINC08820646
REMARK  8 active torsions:
REMARK  status: ('A' for Active; 'I' for Inactive)
REMARK    1  A    between atoms: C_1  and  C_2
REMARK    2  A    between atoms: C_5  and  C_8
REMARK    3  A    between atoms: C_8  and  C_9
REMARK    4  A    between atoms: C_15  and  C_17
REMARK    5  A    between atoms: C_17  and  N_18
REMARK    6  A    between atoms: C_22  and  C_23
REMARK    7  A    between atoms: C_23  and  C_31
REMARK    8  A    between atoms: C_24  and  C_25
REMARK                            x       y       z     vdW  Elec       q    Type
REMARK                         _______ _______ _______ _____ _____    ______ ____
ROOT
ATOM      1  C   UNL     1      -3.006   3.578  -5.740  0.00  0.00    +0.211 C 
ENDROOT
BRANCH   1   8
ATOM      2  C   UNL     1       1.211   2.903  -0.991  0.00  0.00    +0.015 A 
ATOM      3  C   UNL     1       1.133   3.973  -1.819  0.00  0.00    +0.124 A 
ATOM      4  N   UNL     1       0.212   3.973  -2.762  0.00  0.00    -0.233 NA
ATOM      5  C   UNL     1      -0.628   2.965  -2.897  0.00  0.00    +0.165 A 
ATOM      6  S   UNL     1      -0.122   1.895  -1.626  0.00  0.00    -0.057 S 
ATOM      7  N   UNL     1      -1.654   2.800  -3.820  0.00  0.00    -0.263 N 
ATOM      8  C   UNL     1      -1.893   3.756  -4.740  0.00  0.00    +0.236 C 
ATOM      9  O   UNL     1      -1.212   4.760  -4.762  0.00  0.00    -0.274 OA
ATOM     10  H   UNL     1      -2.199   1.998  -3.801  0.00  0.00    +0.157 HD
BRANCH   2  11
ATOM     11  C   UNL     1       2.155   2.638   0.153  0.00  0.00    +0.079 C 
BRANCH  11  16
ATOM     12  C   UNL     1      -0.110   4.729   5.042  0.00  0.00    +0.044 C 
ATOM     13  C   UNL     1       0.482   4.184   3.767  0.00  0.00    -0.050 A 
ATOM     14  C   UNL     1       0.215   2.883   3.383  0.00  0.00    +0.003 A 
ATOM     15  C   UNL     1       0.756   2.383   2.213  0.00  0.00    +0.004 A 
ATOM     16  C   UNL     1       1.565   3.183   1.428  0.00  0.00    -0.042 A 
ATOM     17  C   UNL     1       1.836   4.483   1.815  0.00  0.00    +0.004 A 
ATOM     18  C   UNL     1       1.290   4.984   2.982  0.00  0.00    +0.003 A 
ENDBRANCH  11  16
ENDBRANCH   2  11
ENDBRANCH   1   8
BRANCH   1  19
ATOM     19  N   UNL     1      -3.060   4.745  -6.623  0.00  0.00    -0.246 N 
ATOM     20  C   UNL     1      -2.349   4.746  -7.739  0.00  0.00    +0.259 C 
ATOM     21  O   UNL     1      -1.650   3.799  -8.051  0.00  0.00    -0.269 OA
ATOM     22  C   UNL     1      -2.446   5.949  -8.585  0.00  0.00    +0.077 C 
ATOM     23  C   UNL     1      -1.836   6.229  -9.773  0.00  0.00    +0.023 C 
ATOM     24  S   UNL     1      -3.582   6.943  -7.626  0.00  0.00    -0.061 S 
ATOM     25  C   UNL     1      -3.837   5.794  -6.284  0.00  0.00    +0.121 C 
ATOM     26  S   UNL     1      -4.828   5.979  -4.899  0.00  0.00    -0.027 S 
BRANCH  23  27
ATOM     27  C   UNL     1      -1.955   7.512 -10.342  0.00  0.00    -0.049 C 
ATOM     28  C   UNL     1      -1.454   7.755 -11.576  0.00  0.00    +0.011 C 
ATOM     29  C   UNL     1      -2.640   8.615  -9.576  0.00  0.00    +0.044 C 
BRANCH  28  30
ATOM     30  C   UNL     1      -1.681   9.058 -12.218  0.00  0.00    -0.025 A 
ATOM     31  C   UNL     1      -2.898   9.726 -12.043  0.00  0.00    +0.008 A 
ATOM     32  C   UNL     1      -3.101  10.950 -12.644  0.00  0.00    +0.001 A 
ATOM     33  C   UNL     1      -2.109  11.512 -13.429  0.00  0.00    +0.000 A 
ATOM     34  C   UNL     1      -0.905  10.855 -13.612  0.00  0.00    +0.001 A 
ATOM     35  C   UNL     1      -0.684   9.634 -13.013  0.00  0.00    +0.008 A 
ENDBRANCH  28  30
ENDBRANCH  23  27
ENDBRANCH   1  19
TORSDOF 6
