REMARK  Name = ZINC54580305
REMARK  8 active torsions:
REMARK  status: ('A' for Active; 'I' for Inactive)
REMARK    1  A    between atoms: C_1  and  C_2
REMARK    2  A    between atoms: C_2  and  C_4
REMARK    3  A    between atoms: C_2  and  N_15
REMARK    4  A    between atoms: C_7  and  S_10
REMARK    5  A    between atoms: S_10  and  N_13
REMARK    6  A    between atoms: N_13  and  C_14
REMARK    7  A    between atoms: N_18  and  C_19
REMARK    8  A    between atoms: N_22  and  C_25
REMARK                            x       y       z     vdW  Elec       q    Type
REMARK                         _______ _______ _______ _____ _____    ______ ____
ROOT
ATOM      1  N   UNL     1       0.711  -0.489   1.189  0.00  0.00    -0.293 N 
ATOM      2  C   UNL     1       0.051  -0.633   2.355  0.00  0.00    +0.300 C 
ATOM      3  O   UNL     1      -1.132  -0.361   2.423  0.00  0.00    -0.253 OA
ATOM      4  N   UNL     1       0.703  -1.080   3.447  0.00  0.00    -0.297 N 
ATOM      5  H   UNL     1       1.654  -0.707   1.135  0.00  0.00    +0.151 HD
ATOM      6  H   UNL     1       1.647  -1.298   3.394  0.00  0.00    +0.151 HD
ENDROOT
BRANCH   4   7
ATOM      7  C   UNL     1      -0.014  -1.237   4.715  0.00  0.00    +0.071 C 
ATOM      8  C   UNL     1      -0.694  -2.608   4.753  0.00  0.00    +0.004 C 
ATOM      9  C   UNL     1      -1.374  -2.797   6.111  0.00  0.00    -0.077 C 
ATOM     10  N   UNL     1      -0.371  -2.717   7.179  0.00  0.00    +0.382 N 
ATOM     11  C   UNL     1       0.235  -1.380   7.195  0.00  0.00    -0.077 C 
ATOM     12  C   UNL     1       0.977  -1.137   5.879  0.00  0.00    +0.004 C 
ATOM     13  H   UNL     1       0.346  -3.409   7.019  0.00  0.00    -0.081 HD
BRANCH  10  14
ATOM     14  C   UNL     1      -1.015  -2.976   8.474  0.00  0.00    -0.069 C 
ATOM     15  C   UNL     1      -0.382  -4.035   9.379  0.00  0.00    -0.017 C 
ATOM     16  C   UNL     1      -1.702  -4.331   8.663  0.00  0.00    -0.017 C 
ENDBRANCH  10  14
ENDBRANCH   4   7
BRANCH   1  18
ATOM     17  C   UNL     1      -0.019   1.526   0.010  0.00  0.00    +0.033 C 
ATOM     18  C   UNL     1       0.002  -0.004   0.002  0.00  0.00    +0.102 C 
BRANCH  18  19
ATOM     19  C   UNL     1       0.707  -0.490  -1.238  0.00  0.00    -0.027 A 
ATOM     20  C   UNL     1       2.089  -0.511  -1.284  0.00  0.00    +0.007 A 
ATOM     21  C   UNL     1       2.736  -0.957  -2.421  0.00  0.00    +0.029 A 
ATOM     22  C   UNL     1       2.002  -1.382  -3.512  0.00  0.00    +0.105 A 
ATOM     23  C   UNL     1       0.620  -1.362  -3.466  0.00  0.00    +0.029 A 
ATOM     24  C   UNL     1      -0.027  -0.920  -2.327  0.00  0.00    +0.007 A 
BRANCH  22  25
ATOM     25  S   UNL     1       2.826  -1.949  -4.962  0.00  0.00    +0.058 S 
ATOM     26  O   UNL     1       1.916  -1.778  -6.040  0.00  0.00    -0.153 OA
ATOM     27  O   UNL     1       4.117  -1.356  -4.954  0.00  0.00    -0.153 OA
BRANCH  25  28
ATOM     28  N   UNL     1       3.054  -3.580  -4.790  0.00  0.00    -0.193 NA
ATOM     29  C   UNL     1       1.899  -4.480  -4.736  0.00  0.00    +0.127 C 
ATOM     30  H   UNL     1       3.953  -3.940  -4.724  0.00  0.00    +0.148 HD
ENDBRANCH  25  28
ENDBRANCH  22  25
ENDBRANCH  18  19
ENDBRANCH   1  18
TORSDOF 6
