REMARK  Name = ZINC05770940
REMARK  5 active torsions:
REMARK  status: ('A' for Active; 'I' for Inactive)
REMARK    1  A    between atoms: C_4  and  O_21
REMARK    2  A    between atoms: C_5  and  C_7
REMARK    3  A    between atoms: N_9  and  N_10
REMARK    4  A    between atoms: N_10  and  S_11
REMARK    5  A    between atoms: S_11  and  C_14
REMARK                            x       y       z     vdW  Elec       q    Type
REMARK                         _______ _______ _______ _____ _____    ______ ____
ROOT
ATOM      1  C   UNL     1       1.250  -2.159  -0.022  0.00  0.00    +0.262 C 
ATOM      2  O   UNL     1       2.314  -2.748  -0.036  0.00  0.00    -0.269 OA
ATOM      3  N   UNL     1       0.095  -2.855  -0.014  0.00  0.00    -0.228 N 
ATOM      4  H   UNL     1      -0.754  -2.385  -0.003  0.00  0.00    +0.171 HD
ENDROOT
BRANCH   1   9
ATOM      5  C   UNL     1      -0.017   1.374   0.010  0.00  0.00    +0.001 A 
ATOM      6  C   UNL     1       1.170   2.089   0.002  0.00  0.00    +0.004 A 
ATOM      7  C   UNL     1       2.383   1.429  -0.013  0.00  0.00    +0.046 A 
ATOM      8  C   UNL     1       2.420   0.043  -0.021  0.00  0.00    +0.129 A 
ATOM      9  C   UNL     1       1.222  -0.684  -0.013  0.00  0.00    +0.079 A 
ATOM     10  C   UNL     1       0.002  -0.004   0.002  0.00  0.00    +0.017 A 
BRANCH   8  11
ATOM     11  O   UNL     1       3.611  -0.606  -0.037  0.00  0.00    -0.506 OA
ATOM     12  H   UNL     1       3.966  -0.799   0.842  0.00  0.00    +0.292 HD
ENDBRANCH   8  11
ENDBRANCH   1   9
BRANCH   3  13
ATOM     13  N   UNL     1       0.121  -4.255  -0.022  0.00  0.00    -0.108 NA
ATOM     14  H   UNL     1       0.605  -4.727  -0.718  0.00  0.00    +0.172 HD
BRANCH  13  15
ATOM     15  S   UNL     1      -0.674  -5.105   1.155  0.00  0.00    +0.074 S 
ATOM     16  O   UNL     1      -0.585  -6.477   0.797  0.00  0.00    -0.152 OA
ATOM     17  O   UNL     1      -0.202  -4.611   2.401  0.00  0.00    -0.152 OA
BRANCH  15  18
ATOM     18  C   UNL     1      -2.378  -4.668   1.054  0.00  0.00    +0.107 A 
ATOM     19  C   UNL     1      -2.861  -3.595   1.780  0.00  0.00    +0.029 A 
ATOM     20  C   UNL     1      -4.197  -3.252   1.700  0.00  0.00    +0.017 A 
ATOM     21  C   UNL     1      -5.051  -3.981   0.893  0.00  0.00    +0.018 A 
ATOM     22  C   UNL     1      -4.568  -5.053   0.165  0.00  0.00    +0.017 A 
ATOM     23  C   UNL     1      -3.230  -5.393   0.242  0.00  0.00    +0.029 A 
ATOM     24 BR   UNL     1      -6.880  -3.511   0.783  0.00  0.00    -0.050 Br
ENDBRANCH  15  18
ENDBRANCH  13  15
ENDBRANCH   3  13
TORSDOF 5
