REMARK  Name = ZINC10585042
REMARK  5 active torsions:
REMARK  status: ('A' for Active; 'I' for Inactive)
REMARK    1  A    between atoms: C_4  and  C_7
REMARK    2  A    between atoms: C_7  and  C_8
REMARK    3  A    between atoms: C_7  and  N_64
REMARK    4  A    between atoms: N_21  and  C_22
REMARK    5  A    between atoms: N_27  and  C_29
REMARK                            x       y       z     vdW  Elec       q    Type
REMARK                         _______ _______ _______ _____ _____    ______ ____
ROOT
ATOM      1  C   UNL     1       2.833   5.144   0.363  0.00  0.00    -0.058 C 
ATOM      2  C   UNL     1       2.996   6.349   1.296  0.00  0.00    +0.091 C 
ATOM      3  N   UNL     1       4.409   6.755   1.291  0.00  0.00    -0.289 N 
ATOM      4  C   UNL     1       5.431   5.726   1.539  0.00  0.00    +0.091 C 
ATOM      5  C   UNL     1       5.171   4.546   0.597  0.00  0.00    -0.058 C 
ATOM      6  C   UNL     1       4.760   8.037   1.066  0.00  0.00    +0.302 C 
ATOM      7  O   UNL     1       5.924   8.374   1.156  0.00  0.00    -0.253 OA
ATOM      8  N   UNL     1       3.819   8.945   0.741  0.00  0.00    -0.294 N 
ATOM      9  H   UNL     1       2.881   8.695   0.744  0.00  0.00    +0.151 HD
ATOM     10  N   UNL     1       3.778   4.087   0.783  0.00  0.00    +0.389 N 
ATOM     11  H   UNL     1       3.626   3.880   1.777  0.00  0.00    -0.080 HD
ENDROOT
BRANCH   8  12
ATOM     12  C   UNL     1       4.211  10.310   0.382  0.00  0.00    +0.101 C 
ATOM     13  C   UNL     1       4.396  10.450  -1.147  0.00  0.00    +0.120 C 
ATOM     14  C   UNL     1       3.051  10.934  -1.641  0.00  0.00    +0.222 C 
ATOM     15  O   UNL     1       2.682  10.904  -2.796  0.00  0.00    -0.275 OA
ATOM     16  N   UNL     1       2.323  11.403  -0.613  0.00  0.00    -0.270 N 
ATOM     17  C   UNL     1       3.061  11.306   0.652  0.00  0.00    +0.136 C 
BRANCH  16  18
ATOM     18  C   UNL     1       1.026  11.918  -0.733  0.00  0.00    +0.036 A 
ATOM     19  C   UNL     1       0.372  11.875  -1.956  0.00  0.00    +0.025 A 
ATOM     20  C   UNL     1      -0.909  12.378  -2.071  0.00  0.00    +0.022 A 
ATOM     21  C   UNL     1      -1.536  12.934  -0.970  0.00  0.00    +0.041 A 
ATOM     22  C   UNL     1      -0.884  12.983   0.250  0.00  0.00    +0.022 A 
ATOM     23  C   UNL     1       0.395  12.476   0.371  0.00  0.00    +0.025 A 
ATOM     24 CL   UNL     1      -3.144  13.572  -1.118  0.00  0.00    -0.084 Cl
ENDBRANCH  16  18
ENDBRANCH   8  12
BRANCH  10  25
ATOM     25  C   UNL     1       3.542   2.858  -0.004  0.00  0.00    -0.007 C 
BRANCH  25  29
ATOM     26  C   UNL     1       6.202  -0.191   1.365  0.00  0.00    +0.000 A 
ATOM     27  C   UNL     1       5.634   0.688   2.269  0.00  0.00    +0.000 A 
ATOM     28  C   UNL     1       4.774   1.675   1.826  0.00  0.00    +0.002 A 
ATOM     29  C   UNL     1       4.480   1.782   0.479  0.00  0.00    -0.057 A 
ATOM     30  C   UNL     1       5.049   0.904  -0.424  0.00  0.00    +0.002 A 
ATOM     31  C   UNL     1       5.910  -0.082   0.019  0.00  0.00    +0.000 A 
ENDBRANCH  25  29
BRANCH  25  32
ATOM     32  C   UNL     1       2.118   2.412   0.201  0.00  0.00    -0.057 A 
ATOM     33  C   UNL     1       1.547   2.477   1.459  0.00  0.00    +0.002 A 
ATOM     34  C   UNL     1       0.239   2.072   1.646  0.00  0.00    +0.000 A 
ATOM     35  C   UNL     1      -0.496   1.593   0.578  0.00  0.00    +0.000 A 
ATOM     36  C   UNL     1       0.076   1.523  -0.678  0.00  0.00    +0.000 A 
ATOM     37  C   UNL     1       1.383   1.933  -0.867  0.00  0.00    +0.002 A 
ENDBRANCH  25  32
ENDBRANCH  10  25
TORSDOF 5
