REMARK  Name = ZINC05365270
REMARK  11 active torsions:
REMARK  status: ('A' for Active; 'I' for Inactive)
REMARK    1  A    between atoms: C_1  and  C_2
REMARK    2  A    between atoms: C_5  and  N_9
REMARK    3  A    between atoms: C_6  and  C_8
REMARK    4  A    between atoms: C_10  and  C_12
REMARK    5  A    between atoms: C_12  and  O_13
REMARK    6  A    between atoms: O_13  and  C_14
REMARK    7  A    between atoms: C_14  and  C_16
REMARK    8  A    between atoms: C_16  and  N_17
REMARK    9  A    between atoms: C_22  and  C_29
REMARK   10  A    between atoms: C_25  and  C_27
REMARK   11  A    between atoms: C_25  and  C_28
REMARK                            x       y       z     vdW  Elec       q    Type
REMARK                         _______ _______ _______ _____ _____    ______ ____
ROOT
ATOM      1  C   UNL     1      -4.277  -4.793  -0.527  0.00  0.00    +0.238 C 
ENDROOT
BRANCH   1   2
ATOM      2  N   UNL     1      -5.574  -5.464  -0.632  0.00  0.00    -0.213 N 
ATOM      3  C   UNL     1      -6.281  -5.921   0.424  0.00  0.00    +0.247 C 
ATOM      4  O   UNL     1      -5.903  -5.967   1.575  0.00  0.00    -0.273 OA
ATOM      5  C   UNL     1      -7.605  -6.377  -0.141  0.00  0.00    +0.113 C 
ATOM      6  C   UNL     1      -7.926  -7.795   0.307  0.00  0.00    +0.038 C 
ATOM      7  C   UNL     1      -8.336  -7.798   1.780  0.00  0.00    -0.011 C 
ATOM      8  C   UNL     1      -9.600  -6.956   1.938  0.00  0.00    +0.009 C 
ATOM      9  C   UNL     1      -9.345  -5.509   1.532  0.00  0.00    -0.032 C 
ATOM     10  C   UNL     1      -8.719  -5.393   0.153  0.00  0.00    +0.041 C 
ATOM     11  C   UNL     1      -8.474  -4.814   2.583  0.00  0.00    +0.011 C 
ATOM     12  C   UNL     1     -10.706  -4.781   1.502  0.00  0.00    +0.011 C 
ATOM     13  C   UNL     1      -8.626  -9.237   2.221  0.00  0.00    +0.007 C 
ATOM     14  N   UNL     1      -7.354  -6.385  -1.601  0.00  0.00    -0.285 N 
ATOM     15  C   UNL     1      -6.200  -5.720  -1.786  0.00  0.00    +0.310 C 
ATOM     16  O   UNL     1      -5.774  -5.391  -2.876  0.00  0.00    -0.252 OA
ATOM     17  H   UNL     1      -7.925  -6.782  -2.274  0.00  0.00    +0.151 HD
ENDBRANCH   1   2
BRANCH   1  18
ATOM     18  C   UNL     1      -4.488  -3.305  -0.414  0.00  0.00    +0.326 C 
ATOM     19  O   UNL     1      -5.609  -2.852  -0.420  0.00  0.00    -0.249 OA
BRANCH  18  20
ATOM     20  O   UNL     1      -3.433  -2.483  -0.307  0.00  0.00    -0.454 OA
BRANCH  20  21
ATOM     21  C   UNL     1      -3.712  -1.062  -0.201  0.00  0.00    +0.328 C 
BRANCH  21  23
ATOM     22  N   UNL     1      -2.428   1.041   0.019  0.00  0.00    -0.282 N 
ATOM     23  C   UNL     1      -2.415  -0.302  -0.090  0.00  0.00    +0.255 C 
ATOM     24  O   UNL     1      -1.359  -0.900  -0.098  0.00  0.00    -0.272 OA
ATOM     25  H   UNL     1      -3.271   1.512   0.107  0.00  0.00    +0.155 HD
BRANCH  22  30
ATOM     26  C   UNL     1       2.446   3.944  -0.044  0.00  0.00    +0.044 C 
ATOM     27  C   UNL     1       1.152   3.172  -0.025  0.00  0.00    -0.050 A 
ATOM     28  C   UNL     1       1.082   1.928  -0.626  0.00  0.00    +0.005 A 
ATOM     29  C   UNL     1      -0.102   1.218  -0.610  0.00  0.00    +0.024 A 
ATOM     30  C   UNL     1      -1.225   1.756   0.006  0.00  0.00    +0.036 A 
ATOM     31  C   UNL     1      -1.150   3.002   0.613  0.00  0.00    -0.029 A 
ATOM     32  C   UNL     1       0.038   3.708   0.594  0.00  0.00    +0.008 A 
ATOM     33  C   UNL     1      -2.364   3.587   1.288  0.00  0.00    +0.045 C 
ENDBRANCH  22  30
ENDBRANCH  21  23
ENDBRANCH  20  21
ENDBRANCH  18  20
ENDBRANCH   1  18
TORSDOF 6
