REMARK  Name = ZINC15931999
REMARK  7 active torsions:
REMARK  status: ('A' for Active; 'I' for Inactive)
REMARK    1  A    between atoms: C_1  and  O_2
REMARK    2  A    between atoms: O_2  and  C_3
REMARK    3  A    between atoms: C_5  and  C_14
REMARK    4  A    between atoms: C_8  and  O_9
REMARK    5  A    between atoms: O_9  and  C_10
REMARK    6  A    between atoms: C_10  and  C_11
REMARK    7  A    between atoms: N_20  and  C_21
REMARK                            x       y       z     vdW  Elec       q    Type
REMARK                         _______ _______ _______ _____ _____    ______ ____
ROOT
ATOM      1  C   UNL     1       2.393   0.342  -4.214  0.00  0.00    +0.029 C 
ATOM      2  C   UNL     1       2.259   1.693  -4.200  0.00  0.00    +0.078 C 
ATOM      3  C   UNL     1       2.679   2.685  -5.207  0.00  0.00    +0.256 C 
ATOM      4  O   UNL     1       3.236   2.350  -6.237  0.00  0.00    -0.269 OA
ATOM      5  N   UNL     1       2.424   3.955  -4.941  0.00  0.00    -0.260 N 
ATOM      6  C   UNL     1       1.793   4.314  -3.770  0.00  0.00    +0.166 C 
ATOM      7  N   UNL     1       1.467   5.517  -3.353  0.00  0.00    -0.226 NA
ATOM      8  S   UNL     1       1.519   2.746  -2.961  0.00  0.00    -0.049 S 
ATOM      9  H   UNL     1       2.683   4.641  -5.577  0.00  0.00    +0.157 HD
ENDROOT
BRANCH   1  12
ATOM     10  C   UNL     1       0.072  -0.704  -1.460  0.00  0.00    +0.162 A 
ATOM     11  C   UNL     1       0.687   0.067  -2.427  0.00  0.00    +0.058 A 
ATOM     12  C   UNL     1       1.735  -0.471  -3.184  0.00  0.00    -0.006 A 
ATOM     13  C   UNL     1       2.154  -1.789  -2.955  0.00  0.00    +0.029 A 
ATOM     14  C   UNL     1       1.534  -2.550  -1.987  0.00  0.00    +0.065 A 
ATOM     15  C   UNL     1       0.499  -2.012  -1.234  0.00  0.00    +0.164 A 
ATOM     16 BR   UNL     1       3.568  -2.523  -3.974  0.00  0.00    -0.050 Br
BRANCH  10  18
ATOM     17  C   UNL     1      -1.331   1.162  -1.007  0.00  0.00    +0.277 C 
ATOM     18  O   UNL     1      -0.946  -0.184  -0.723  0.00  0.00    -0.491 OA
ENDBRANCH  10  18
BRANCH  15  19
ATOM     19  O   UNL     1      -0.105  -2.765  -0.278  0.00  0.00    -0.474 OA
BRANCH  19  20
ATOM     20  C   UNL     1       0.381  -4.097  -0.098  0.00  0.00    +0.347 C 
BRANCH  20  21
ATOM     21  C   UNL     1      -0.384  -4.759   0.971  0.00  0.00    +0.104 C 
ATOM     22  N   UNL     1      -0.975  -5.269   1.797  0.00  0.00    -0.193 NA
ENDBRANCH  20  21
ENDBRANCH  19  20
ENDBRANCH  15  19
ENDBRANCH   1  12
BRANCH   7  23
ATOM     23  C   UNL     1       1.757   6.610  -4.123  0.00  0.00    +0.067 A 
ATOM     24  C   UNL     1       3.011   6.730  -4.726  0.00  0.00    +0.029 A 
ATOM     25  C   UNL     1       3.297   7.835  -5.502  0.00  0.00    +0.022 A 
ATOM     26  C   UNL     1       2.344   8.823  -5.682  0.00  0.00    +0.041 A 
ATOM     27  C   UNL     1       1.099   8.710  -5.087  0.00  0.00    +0.022 A 
ATOM     28  C   UNL     1       0.798   7.608  -4.314  0.00  0.00    +0.029 A 
ATOM     29 CL   UNL     1       2.712  10.211  -6.659  0.00  0.00    -0.084 Cl
ENDBRANCH   7  23
TORSDOF 6
