REMARK  Name = ZINC44163331
REMARK  9 active torsions:
REMARK  status: ('A' for Active; 'I' for Inactive)
REMARK    1  A    between atoms: C_1  and  O_2
REMARK    2  A    between atoms: O_2  and  C_3
REMARK    3  A    between atoms: C_6  and  C_9
REMARK    4  A    between atoms: C_9  and  C_10
REMARK    5  A    between atoms: C_10  and  N_11
REMARK    6  A    between atoms: C_12  and  C_14
REMARK    7  A    between atoms: C_19  and  C_22
REMARK    8  A    between atoms: C_25  and  O_28
REMARK    9  A    between atoms: O_28  and  C_29
REMARK                            x       y       z     vdW  Elec       q    Type
REMARK                         _______ _______ _______ _____ _____    ______ ____
ROOT
ATOM      1  C   UNL     1      -8.677  -4.563  -2.550  0.00  0.00    +0.027 C 
ATOM      2  C   UNL     1      -8.513  -5.959  -1.938  0.00  0.00    +0.062 C 
ATOM      3  S   UNL     1      -7.277  -6.870  -2.916  0.00  0.00    -0.163 S 
ATOM      4  C   UNL     1      -7.863  -6.627  -4.622  0.00  0.00    +0.058 C 
ATOM      5  C   UNL     1      -8.124  -5.131  -4.833  0.00  0.00    -0.030 C 
ATOM      6  N   UNL     1      -9.175  -4.679  -3.922  0.00  0.00    +0.392 N 
ATOM      7  H   UNL     1      -9.938  -5.339  -3.942  0.00  0.00    -0.084 HD
ATOM      8  H   UNL     1      -9.511  -3.778  -4.229  0.00  0.00    -0.084 HD
ENDROOT
BRANCH   5   9
ATOM      9  C   UNL     1      -8.559  -4.894  -6.256  0.00  0.00    -0.060 A 
ATOM     10  C   UNL     1      -9.869  -5.136  -6.627  0.00  0.00    +0.005 A 
ATOM     11  C   UNL     1     -10.270  -4.919  -7.931  0.00  0.00    +0.046 A 
ATOM     12  C   UNL     1      -9.358  -4.459  -8.869  0.00  0.00    +0.120 A 
ATOM     13  C   UNL     1      -8.044  -4.218  -8.495  0.00  0.00    +0.046 A 
ATOM     14  C   UNL     1      -7.649  -4.430  -7.188  0.00  0.00    +0.005 A 
BRANCH  12  15
ATOM     15  O   UNL     1      -9.750  -4.247 -10.152  0.00  0.00    -0.495 OA
ATOM     16  C   UNL     1      -8.757  -3.773 -11.064  0.00  0.00    +0.277 C 
ENDBRANCH  12  15
ENDBRANCH   5   9
BRANCH   1  18
ATOM     17  N   UNL     1      -7.098  -2.892  -3.463  0.00  0.00    -0.316 N 
ATOM     18  C   UNL     1      -7.344  -3.861  -2.559  0.00  0.00    +0.200 C 
ATOM     19  O   UNL     1      -6.491  -4.167  -1.752  0.00  0.00    -0.278 OA
ATOM     20  H   UNL     1      -7.780  -2.647  -4.108  0.00  0.00    +0.149 HD
BRANCH  17  21
ATOM     21  C   UNL     1      -5.802  -2.209  -3.472  0.00  0.00    +0.109 C 
BRANCH  21  22
ATOM     22  C   UNL     1      -5.785  -1.162  -4.588  0.00  0.00    +0.054 C 
BRANCH  22  26
ATOM     23  C   UNL     1      -2.004   0.830  -4.613  0.00  0.00    +0.120 A 
ATOM     24  C   UNL     1      -2.191  -0.316  -5.373  0.00  0.00    +0.046 A 
ATOM     25  C   UNL     1      -3.414  -0.958  -5.363  0.00  0.00    +0.007 A 
ATOM     26  C   UNL     1      -4.452  -0.460  -4.596  0.00  0.00    -0.046 A 
ATOM     27  C   UNL     1      -4.268   0.682  -3.838  0.00  0.00    +0.007 A 
ATOM     28  C   UNL     1      -3.045   1.324  -3.841  0.00  0.00    +0.046 A 
BRANCH  23  30
ATOM     29  C   UNL     1       0.224   0.898  -5.440  0.00  0.00    +0.277 C 
ATOM     30  O   UNL     1      -0.802   1.463  -4.621  0.00  0.00    -0.495 OA
ENDBRANCH  23  30
ENDBRANCH  22  26
ENDBRANCH  21  22
ENDBRANCH  17  21
ENDBRANCH   1  18
TORSDOF 7
