REMARK  Name = ZINC36992303
REMARK  10 active torsions:
REMARK  status: ('A' for Active; 'I' for Inactive)
REMARK    1  A    between atoms: C_1  and  C_2
REMARK    2  A    between atoms: C_2  and  C_4
REMARK    3  A    between atoms: C_2  and  N_10
REMARK    4  A    between atoms: N_10  and  C_11
REMARK    5  A    between atoms: C_11  and  C_13
REMARK    6  A    between atoms: C_11  and  C_14
REMARK    7  A    between atoms: C_16  and  O_22
REMARK    8  A    between atoms: C_19  and  O_20
REMARK    9  A    between atoms: O_20  and  C_21
REMARK   10  A    between atoms: O_22  and  C_23
REMARK                            x       y       z     vdW  Elec       q    Type
REMARK                         _______ _______ _______ _____ _____    ______ ____
ROOT
ATOM      1  C   UNL     1      -2.050  -0.126  -1.234  0.00  0.00    -0.040 C 
ATOM      2  C   UNL     1      -1.371  -0.820  -2.417  0.00  0.00    -0.009 C 
ENDROOT
BRANCH   1   3
ATOM      3  C   UNL     1      -3.498  -0.540  -1.172  0.00  0.00    -0.016 A 
ATOM      4  C   UNL     1      -3.901  -1.511  -0.275  0.00  0.00    +0.051 A 
ATOM      5  C   UNL     1      -5.233  -1.892  -0.218  0.00  0.00    +0.121 A 
ATOM      6  C   UNL     1      -6.161  -1.298  -1.060  0.00  0.00    +0.049 A 
ATOM      7  C   UNL     1      -5.758  -0.328  -1.957  0.00  0.00    +0.049 A 
ATOM      8  C   UNL     1      -4.426   0.057  -2.011  0.00  0.00    +0.122 A 
BRANCH   8   9
ATOM      9  O   UNL     1      -4.031   1.017  -2.889  0.00  0.00    -0.495 OA
ATOM     10  C   UNL     1      -5.041   1.589  -3.723  0.00  0.00    +0.277 C 
ENDBRANCH   8   9
BRANCH   5  11
ATOM     11  O   UNL     1      -5.629  -2.848   0.665  0.00  0.00    -0.495 OA
ATOM     12  C   UNL     1      -7.016  -3.191   0.670  0.00  0.00    +0.277 C 
ENDBRANCH   5  11
ENDBRANCH   1   3
BRANCH   1  13
ATOM     13  N   UNL     1      -1.376  -0.512   0.012  0.00  0.00    +0.388 N 
ATOM     14  H   UNL     1      -1.363  -1.518   0.090  0.00  0.00    -0.084 HD
ATOM     15  H   UNL     1      -1.873  -0.121   0.799  0.00  0.00    -0.084 HD
BRANCH  13  17
ATOM     16  C   UNL     1      -0.019   1.526   0.010  0.00  0.00    -0.008 C 
ATOM     17  C   UNL     1       0.002  -0.004   0.002  0.00  0.00    -0.036 C 
BRANCH  17  18
ATOM     18  C   UNL     1       0.731  -0.503   1.223  0.00  0.00    -0.023 A 
ATOM     19  C   UNL     1       2.009  -0.938   1.335  0.00  0.00    +0.011 A 
ATOM     20  C   UNL     1       2.471  -1.355   2.570  0.00  0.00    +0.028 A 
ATOM     21  C   UNL     1       1.629  -1.315   3.633  0.00  0.00    +0.078 A 
ATOM     22  S   UNL     1       0.136  -0.668   2.898  0.00  0.00    -0.083 S 
ATOM     23 CL   UNL     1       1.927  -1.770   5.282  0.00  0.00    -0.076 Cl
ENDBRANCH  17  18
ENDBRANCH  13  17
ENDBRANCH   1  13
TORSDOF 6
