REMARK  Name = ZINC64985423
REMARK  7 active torsions:
REMARK  status: ('A' for Active; 'I' for Inactive)
REMARK    1  A    between atoms: C_2  and  C_3
REMARK    2  A    between atoms: C_3  and  O_4
REMARK    3  A    between atoms: O_4  and  C_5
REMARK    4  A    between atoms: C_9  and  N_11
REMARK    5  A    between atoms: C_12  and  C_14
REMARK    6  A    between atoms: N_17  and  S_25
REMARK    7  A    between atoms: S_25  and  C_28
REMARK                            x       y       z     vdW  Elec       q    Type
REMARK                         _______ _______ _______ _____ _____    ______ ____
ROOT
ATOM      1  C   UNL     1      -4.439  -7.601  -3.960  0.00  0.00    +0.278 C 
ATOM      2  C   UNL     1      -3.337  -8.560  -3.485  0.00  0.00    +0.186 C 
ATOM      3  N   UNL     1      -3.364  -9.740  -4.366  0.00  0.00    -0.195 N 
ATOM      4  C   UNL     1      -4.618 -10.261  -4.721  0.00  0.00    +0.093 A 
ATOM      5  C   UNL     1      -4.710 -11.517  -5.299  0.00  0.00    +0.028 A 
ATOM      6  C   UNL     1      -5.947 -12.026  -5.650  0.00  0.00    +0.002 A 
ATOM      7  C   UNL     1      -7.090 -11.282  -5.424  0.00  0.00    +0.004 A 
ATOM      8  C   UNL     1      -7.005 -10.029  -4.846  0.00  0.00    +0.047 A 
ATOM      9  C   UNL     1      -5.769  -9.512  -4.489  0.00  0.00    +0.144 A 
ATOM     10  O   UNL     1      -5.695  -8.281  -3.917  0.00  0.00    -0.476 OA
ENDROOT
BRANCH   1  12
ATOM     11  N   UNL     1      -3.438  -5.548  -3.010  0.00  0.00    -0.282 N 
ATOM     12  C   UNL     1      -4.484  -6.396  -3.056  0.00  0.00    +0.260 C 
ATOM     13  O   UNL     1      -5.462  -6.191  -2.369  0.00  0.00    -0.271 OA
ATOM     14  H   UNL     1      -2.689  -5.668  -3.615  0.00  0.00    +0.155 HD
BRANCH  11  19
ATOM     15  C   UNL     1      -2.826  -2.244  -1.509  0.00  0.00    +0.123 A 
ATOM     16  C   UNL     1      -3.426  -2.407  -0.268  0.00  0.00    +0.046 A 
ATOM     17  C   UNL     1      -4.028  -3.607   0.058  0.00  0.00    +0.005 A 
ATOM     18  C   UNL     1      -4.033  -4.649  -0.849  0.00  0.00    +0.023 A 
ATOM     19  C   UNL     1      -3.433  -4.492  -2.092  0.00  0.00    +0.037 A 
ATOM     20  C   UNL     1      -2.834  -3.285  -2.424  0.00  0.00    +0.069 A 
BRANCH  15  21
ATOM     21  O   UNL     1      -2.235  -1.063  -1.829  0.00  0.00    -0.488 OA
BRANCH  21  22
ATOM     22  C   UNL     1      -2.264  -0.034  -0.838  0.00  0.00    +0.256 C 
BRANCH  22  24
ATOM     23  C   UNL     1      -2.107   2.375  -1.205  0.00  0.00    +0.007 C 
ATOM     24  C   UNL     1      -1.567   1.193  -1.367  0.00  0.00    +0.006 C 
ENDBRANCH  22  24
ENDBRANCH  21  22
ENDBRANCH  15  21
ENDBRANCH  11  19
ENDBRANCH   1  12
BRANCH   3  25
ATOM     25  S   UNL     1      -1.963 -10.427  -4.920  0.00  0.00    +0.075 S 
ATOM     26  O   UNL     1      -2.295 -11.119  -6.116  0.00  0.00    -0.150 OA
ATOM     27  O   UNL     1      -0.969  -9.412  -4.878  0.00  0.00    -0.150 OA
BRANCH  25  28
ATOM     28  C   UNL     1      -1.483 -11.650  -3.747  0.00  0.00    +0.109 A 
ATOM     29  C   UNL     1      -0.662 -11.309  -2.688  0.00  0.00    +0.029 A 
ATOM     30  C   UNL     1      -0.286 -12.269  -1.767  0.00  0.00    +0.002 A 
ATOM     31  C   UNL     1      -0.731 -13.570  -1.905  0.00  0.00    +0.000 A 
ATOM     32  C   UNL     1      -1.553 -13.912  -2.962  0.00  0.00    +0.002 A 
ATOM     33  C   UNL     1      -1.932 -12.951  -3.881  0.00  0.00    +0.029 A 
ENDBRANCH  25  28
ENDBRANCH   3  25
TORSDOF 7
