REMARK  Name = ZINC43686733
REMARK  9 active torsions:
REMARK  status: ('A' for Active; 'I' for Inactive)
REMARK    1  A    between atoms: C_1  and  C_2
REMARK    2  A    between atoms: C_2  and  N_3
REMARK    3  A    between atoms: N_3  and  C_4
REMARK    4  A    between atoms: C_4  and  C_5
REMARK    5  A    between atoms: C_7  and  O_20
REMARK    6  A    between atoms: C_8  and  O_12
REMARK    7  A    between atoms: O_12  and  C_13
REMARK    8  A    between atoms: C_13  and  C_14
REMARK    9  A    between atoms: O_20  and  C_21
REMARK                            x       y       z     vdW  Elec       q    Type
REMARK                         _______ _______ _______ _____ _____    ______ ____
ROOT
ATOM      1  C   UNL     1       1.415  -2.433  -2.455  0.00  0.00    -0.059 A 
ATOM      2  C   UNL     1       0.695  -2.661  -3.613  0.00  0.00    +0.051 A 
ATOM      3  C   UNL     1       1.342  -3.108  -4.754  0.00  0.00    +0.163 A 
ATOM      4  C   UNL     1       2.716  -3.326  -4.731  0.00  0.00    +0.181 A 
ATOM      5  C   UNL     1       3.432  -3.096  -3.567  0.00  0.00    +0.086 A 
ATOM      6  C   UNL     1       2.781  -2.644  -2.433  0.00  0.00    +0.025 A 
ATOM      7 CL   UNL     1       5.146  -3.368  -3.534  0.00  0.00    -0.080 Cl
ENDROOT
BRANCH   3   8
ATOM      8  O   UNL     1       0.635  -3.333  -5.894  0.00  0.00    -0.491 OA
ATOM      9  C   UNL     1      -0.772  -3.088  -5.843  0.00  0.00    +0.277 C 
ENDBRANCH   3   8
BRANCH   1  10
ATOM     10  C   UNL     1       0.710  -1.947  -1.215  0.00  0.00    -0.047 C 
BRANCH  10  11
ATOM     11  N   UNL     1       0.690  -0.478  -1.207  0.00  0.00    +0.382 N 
ATOM     12  H   UNL     1       0.202  -0.144  -2.024  0.00  0.00    -0.085 HD
ATOM     13  H   UNL     1       1.636  -0.129  -1.214  0.00  0.00    -0.085 HD
BRANCH  11  15
ATOM     14  C   UNL     1      -0.019   1.526   0.010  0.00  0.00    -0.017 C 
ATOM     15  C   UNL     1       0.002  -0.004   0.002  0.00  0.00    -0.086 C 
ENDBRANCH  11  15
ENDBRANCH  10  11
ENDBRANCH   1  10
BRANCH   4  16
ATOM     16  O   UNL     1       3.354  -3.766  -5.849  0.00  0.00    -0.482 OA
BRANCH  16  17
ATOM     17  C   UNL     1       3.857  -2.771  -6.743  0.00  0.00    +0.272 C 
BRANCH  17  18
ATOM     18  C   UNL     1       4.528  -3.440  -7.914  0.00  0.00    +0.028 A 
ATOM     19  C   UNL     1       3.994  -3.820  -9.101  0.00  0.00    +0.029 A 
ATOM     20  C   UNL     1       4.809  -4.425 -10.040  0.00  0.00    +0.025 A 
ATOM     21  C   UNL     1       6.118  -4.620  -9.745  0.00  0.00    +0.060 A 
ATOM     22  S   UNL     1       6.234  -3.931  -8.102  0.00  0.00    -0.097 S 
ATOM     23 BR   UNL     1       4.109  -4.973 -11.709  0.00  0.00    -0.050 Br
ENDBRANCH  17  18
ENDBRANCH  16  17
ENDBRANCH   4  16
TORSDOF 7
