REMARK  Name = ZINC58878352
REMARK  7 active torsions:
REMARK  status: ('A' for Active; 'I' for Inactive)
REMARK    1  A    between atoms: C_4  and  S_24
REMARK    2  A    between atoms: C_5  and  N_7
REMARK    3  A    between atoms: N_10  and  C_11
REMARK    4  A    between atoms: C_11  and  C_12
REMARK    5  A    between atoms: C_12  and  C_14
REMARK    6  A    between atoms: C_12  and  N_19
REMARK    7  A    between atoms: S_24  and  C_25
REMARK                            x       y       z     vdW  Elec       q    Type
REMARK                         _______ _______ _______ _____ _____    ______ ____
ROOT
ATOM      1  N   UNL     1      -3.252  -3.003  -2.354  0.00  0.00    -0.268 N 
ATOM      2  C   UNL     1      -2.371  -3.279  -1.372  0.00  0.00    +0.304 C 
ATOM      3  O   UNL     1      -2.023  -2.403  -0.603  0.00  0.00    -0.253 OA
ATOM      4  N   UNL     1      -1.875  -4.525  -1.242  0.00  0.00    -0.300 N 
ATOM      5  H   UNL     1      -3.590  -3.716  -2.917  0.00  0.00    +0.156 HD
ATOM      6  H   UNL     1      -2.152  -5.224  -1.856  0.00  0.00    +0.150 HD
ENDROOT
BRANCH   1  11
ATOM      7  C   UNL     1      -3.313   0.677  -2.355  0.00  0.00    +0.002 A 
ATOM      8  C   UNL     1      -4.528   0.923  -2.969  0.00  0.00    +0.001 A 
ATOM      9  C   UNL     1      -5.324  -0.128  -3.381  0.00  0.00    +0.017 A 
ATOM     10  C   UNL     1      -4.906  -1.436  -3.180  0.00  0.00    +0.034 A 
ATOM     11  C   UNL     1      -3.681  -1.684  -2.561  0.00  0.00    +0.048 A 
ATOM     12  C   UNL     1      -2.889  -0.623  -2.150  0.00  0.00    +0.024 A 
BRANCH  10  13
ATOM     13  S   UNL     1      -5.919  -2.779  -3.704  0.00  0.00    -0.054 S 
BRANCH  13  14
ATOM     14  C   UNL     1      -7.372  -1.973  -4.434  0.00  0.00    +0.404 C 
ATOM     15  F   UNL     1      -8.002  -1.184  -3.466  0.00  0.00    -0.197 F 
ATOM     16  F   UNL     1      -6.970  -1.167  -5.504  0.00  0.00    -0.197 F 
ENDBRANCH  13  14
ENDBRANCH  10  13
ENDBRANCH   1  11
BRANCH   4  17
ATOM     17  C   UNL     1      -0.917  -4.825  -0.175  0.00  0.00    +0.095 C 
BRANCH  17  18
ATOM     18  C   UNL     1      -0.421  -6.265  -0.325  0.00  0.00    -0.013 C 
BRANCH  18  19
ATOM     19  N   UNL     1       0.637  -6.523   0.661  0.00  0.00    +0.386 N 
ATOM     20  C   UNL     1       1.260  -7.847   0.408  0.00  0.00    -0.078 C 
ATOM     21  C   UNL     1       2.642  -7.726   1.099  0.00  0.00    -0.020 C 
ATOM     22  C   UNL     1       3.046  -6.263   0.810  0.00  0.00    -0.020 C 
ATOM     23  C   UNL     1       1.724  -5.531   0.514  0.00  0.00    -0.078 C 
ATOM     24  H   UNL     1       0.258  -6.489   1.596  0.00  0.00    -0.081 HD
ENDBRANCH  18  19
BRANCH  18  25
ATOM     25  C   UNL     1      -1.566  -7.217  -0.094  0.00  0.00    -0.022 A 
ATOM     26  C   UNL     1      -2.326  -7.875  -1.003  0.00  0.00    +0.009 A 
ATOM     27  C   UNL     1      -3.334  -8.708  -0.557  0.00  0.00    +0.008 A 
ATOM     28  C   UNL     1      -3.534  -8.843   0.777  0.00  0.00    +0.045 A 
ATOM     29  S   UNL     1      -2.269  -7.777   1.449  0.00  0.00    -0.103 S 
ENDBRANCH  18  25
ENDBRANCH  17  18
ENDBRANCH   4  17
TORSDOF 7
