REMARK  Name = ZINC00836898
REMARK  6 active torsions:
REMARK  status: ('A' for Active; 'I' for Inactive)
REMARK    1  A    between atoms: C_1  and  C_2
REMARK    2  A    between atoms: C_2  and  C_26
REMARK    3  A    between atoms: C_12  and  C_14
REMARK    4  A    between atoms: C_12  and  C_22
REMARK    5  A    between atoms: C_17  and  O_20
REMARK    6  A    between atoms: O_20  and  C_21
REMARK                            x       y       z     vdW  Elec       q    Type
REMARK                         _______ _______ _______ _____ _____    ______ ____
ROOT
ATOM      1  C   UNL     1       7.119   7.534   3.301  0.00  0.00    +0.012 C 
ATOM      2  C   UNL     1       7.254   7.934   1.831  0.00  0.00    -0.021 C 
ATOM      3  C   UNL     1       6.046   7.419   1.050  0.00  0.00    +0.081 C 
ATOM      4  C   UNL     1       6.029   5.918   1.006  0.00  0.00    +0.117 C 
ATOM      5  C   UNL     1       7.171   5.171   1.198  0.00  0.00    +0.116 C 
ATOM      6  C   UNL     1       8.454   5.822   1.456  0.00  0.00    +0.172 C 
ATOM      7  O   UNL     1       9.419   5.185   1.823  0.00  0.00    -0.292 OA
ATOM      8  C   UNL     1       8.535   7.321   1.249  0.00  0.00    +0.086 C 
ATOM      9  C   UNL     1       7.071   3.700   1.147  0.00  0.00    +0.254 C 
ATOM     10  O   UNL     1       7.933   2.994   1.635  0.00  0.00    -0.270 OA
ATOM     11  N   UNL     1       5.987   3.163   0.541  0.00  0.00    -0.263 N 
ATOM     12  C   UNL     1       4.966   4.050  -0.024  0.00  0.00    +0.300 C 
ATOM     13  O   UNL     1       4.875   5.266   0.765  0.00  0.00    -0.459 OA
ATOM     14  C   UNL     1       7.321   9.458   1.720  0.00  0.00    +0.012 C 
ATOM     15  H   UNL     1       5.888   2.200   0.481  0.00  0.00    +0.153 HD
ENDROOT
BRANCH  12  16
ATOM     16  C   UNL     1       3.633   3.348  -0.015  0.00  0.00    +0.024 A 
ATOM     17  C   UNL     1       2.464   4.086   0.000  0.00  0.00    +0.013 A 
ATOM     18  C   UNL     1       1.240   3.444   0.009  0.00  0.00    +0.046 A 
ATOM     19  C   UNL     1       1.185   2.058   0.002  0.00  0.00    +0.120 A 
ATOM     20  C   UNL     1       2.359   1.320  -0.008  0.00  0.00    +0.046 A 
ATOM     21  C   UNL     1       3.580   1.966  -0.022  0.00  0.00    +0.013 A 
BRANCH  19  22
ATOM     22  O   UNL     1      -0.017   1.425   0.010  0.00  0.00    -0.495 OA
ATOM     23  C   UNL     1       0.002  -0.004   0.002  0.00  0.00    +0.277 C 
ENDBRANCH  19  22
ENDBRANCH  12  16
BRANCH  12  24
ATOM     24  C   UNL     1       5.343   4.406  -1.463  0.00  0.00    +0.452 C 
ATOM     25  F   UNL     1       4.367   5.248  -2.006  0.00  0.00    -0.165 F 
ATOM     26  F   UNL     1       6.580   5.058  -1.474  0.00  0.00    -0.165 F 
ATOM     27  F   UNL     1       5.426   3.236  -2.226  0.00  0.00    -0.165 F 
ENDBRANCH  12  24
TORSDOF 3
