REMARK  Name = ZINC63573345
REMARK  6 active torsions:
REMARK  status: ('A' for Active; 'I' for Inactive)
REMARK    1  A    between atoms: C_1  and  C_2
REMARK    2  A    between atoms: C_5  and  C_8
REMARK    3  A    between atoms: C_15  and  O_20
REMARK    4  A    between atoms: O_20  and  C_21
REMARK    5  A    between atoms: N_27  and  C_28
REMARK    6  A    between atoms: C_31  and  C_35
REMARK                            x       y       z     vdW  Elec       q    Type
REMARK                         _______ _______ _______ _____ _____    ______ ____
ROOT
ATOM      1  C   UNL     1       0.614  -3.500   0.168  0.00  0.00    +0.134 C 
ATOM      2  C   UNL     1      -0.857  -3.925   0.101  0.00  0.00    +0.131 C 
ATOM      3  C   UNL     1      -1.331  -4.081   1.540  0.00  0.00    -0.035 C 
ATOM      4  C   UNL     1      -2.388  -3.290   1.675  0.00  0.00    +0.003 A 
ATOM      5  C   UNL     1      -3.308  -3.063   2.800  0.00  0.00    +0.055 A 
ATOM      6  C   UNL     1      -4.303  -2.155   2.602  0.00  0.00    +0.121 A 
ATOM      7  C   UNL     1      -4.487  -1.442   1.409  0.00  0.00    +0.047 A 
ATOM      8  C   UNL     1      -3.702  -1.577   0.309  0.00  0.00    +0.029 A 
ATOM      9  C   UNL     1      -2.593  -2.536   0.400  0.00  0.00    +0.043 A 
ATOM     10  N   UNL     1      -1.696  -2.888  -0.503  0.00  0.00    -0.375 N 
ATOM     11  C   UNL     1      -0.601  -4.939   2.545  0.00  0.00    +0.052 C 
ATOM     12  C   UNL     1       0.879  -4.520   2.492  0.00  0.00    +0.114 C 
ATOM     13  N   UNL     1       1.306  -4.411   1.092  0.00  0.00    -0.276 N 
ATOM     14  C   UNL     1       2.340  -5.153   0.649  0.00  0.00    +0.307 C 
ATOM     15  O   UNL     1       2.757  -4.999  -0.483  0.00  0.00    -0.252 OA
ATOM     16  N   UNL     1       2.912  -6.065   1.459  0.00  0.00    -0.268 N 
ATOM     17  H   UNL     1       2.539  -6.234   2.339  0.00  0.00    +0.156 HD
ATOM     18  H   UNL     1      -1.599  -2.529  -1.399  0.00  0.00    +0.160 HD
ENDROOT
BRANCH  16  19
ATOM     19  C   UNL     1       4.044  -6.770   1.032  0.00  0.00    +0.053 A 
ATOM     20  C   UNL     1       4.249  -7.002  -0.322  0.00  0.00    +0.025 A 
ATOM     21  C   UNL     1       5.367  -7.697  -0.740  0.00  0.00    +0.005 A 
ATOM     22  C   UNL     1       6.281  -8.163   0.187  0.00  0.00    -0.049 A 
ATOM     23  C   UNL     1       6.080  -7.935   1.536  0.00  0.00    +0.025 A 
ATOM     24  C   UNL     1       4.967  -7.234   1.961  0.00  0.00    +0.062 A 
ATOM     25 CL   UNL     1       4.719  -6.941   3.654  0.00  0.00    -0.082 Cl
ATOM     26  C   UNL     1       7.499  -8.921  -0.274  0.00  0.00    +0.044 C 
ENDBRANCH  16  19
BRANCH   1  31
ATOM     27  C   UNL     1       0.991   1.927   2.118  0.00  0.00    +0.044 C 
ATOM     28  C   UNL     1       0.893   0.512   1.610  0.00  0.00    -0.050 A 
ATOM     29  C   UNL     1       1.391   0.190   0.361  0.00  0.00    +0.004 A 
ATOM     30  C   UNL     1       1.300  -1.108  -0.105  0.00  0.00    +0.006 A 
ATOM     31  C   UNL     1       0.713  -2.085   0.677  0.00  0.00    -0.025 A 
ATOM     32  C   UNL     1       0.216  -1.763   1.926  0.00  0.00    +0.006 A 
ATOM     33  C   UNL     1       0.310  -0.466   2.394  0.00  0.00    +0.004 A 
ENDBRANCH   1  31
BRANCH   6  34
ATOM     34  O   UNL     1      -5.169  -1.924   3.624  0.00  0.00    -0.495 OA
ATOM     35  C   UNL     1      -6.204  -0.966   3.393  0.00  0.00    +0.277 C 
ENDBRANCH   6  34
TORSDOF 3
