REMARK  Name = ZINC66978521
REMARK  9 active torsions:
REMARK  status: ('A' for Active; 'I' for Inactive)
REMARK    1  A    between atoms: C_1  and  C_2
REMARK    2  A    between atoms: C_2  and  C_3
REMARK    3  A    between atoms: C_2  and  C_4
REMARK    4  A    between atoms: C_4  and  C_6
REMARK    5  A    between atoms: C_4  and  N_22
REMARK    6  A    between atoms: C_6  and  N_7
REMARK    7  A    between atoms: N_10  and  N_11
REMARK    8  A    between atoms: C_12  and  C_14
REMARK    9  A    between atoms: C_14  and  C_15
REMARK                            x       y       z     vdW  Elec       q    Type
REMARK                         _______ _______ _______ _____ _____    ______ ____
ROOT
ATOM      1  N   UNL     1       1.729  -2.567   2.105  0.00  0.00    -0.300 N 
ATOM      2  C   UNL     1       2.015  -3.884   2.131  0.00  0.00    +0.316 C 
ATOM      3  O   UNL     1       1.591  -4.615   1.256  0.00  0.00    -0.251 OA
ATOM      4  N   UNL     1       2.769  -4.390   3.126  0.00  0.00    -0.218 N 
ATOM      5  H   UNL     1       2.066  -1.983   2.803  0.00  0.00    +0.150 HD
ATOM      6  H   UNL     1       2.975  -5.338   3.145  0.00  0.00    +0.174 HD
ENDROOT
BRANCH   4   7
ATOM      7  N   UNL     1       3.257  -3.547   4.134  0.00  0.00    -0.233 N 
ATOM      8  C   UNL     1       4.012  -4.054   5.129  0.00  0.00    +0.234 C 
ATOM      9  O   UNL     1       4.269  -5.239   5.152  0.00  0.00    -0.274 OA
ATOM     10  H   UNL     1       3.051  -2.600   4.115  0.00  0.00    +0.173 HD
BRANCH   8  11
ATOM     11  C   UNL     1       4.536  -3.147   6.213  0.00  0.00    +0.135 C 
BRANCH  11  12
ATOM     12  C   UNL     1       5.345  -3.955   7.195  0.00  0.00    -0.003 A 
ATOM     13  C   UNL     1       4.749  -4.445   8.342  0.00  0.00    +0.007 A 
ATOM     14  C   UNL     1       5.490  -5.186   9.244  0.00  0.00    +0.000 A 
ATOM     15  C   UNL     1       6.828  -5.437   8.999  0.00  0.00    +0.003 A 
ATOM     16  C   UNL     1       7.425  -4.949   7.853  0.00  0.00    +0.038 A 
ATOM     17  C   UNL     1       6.682  -4.211   6.946  0.00  0.00    +0.127 A 
ATOM     18  F   UNL     1       7.264  -3.737   5.823  0.00  0.00    -0.205 F 
ENDBRANCH  11  12
ENDBRANCH   8  11
ENDBRANCH   4   7
BRANCH   1  19
ATOM     19  C   UNL     1       0.908  -2.016   1.023  0.00  0.00    +0.091 C 
BRANCH  19  20
ATOM     20  C   UNL     1       0.892  -0.489   1.122  0.00  0.00    -0.048 C 
BRANCH  20  21
ATOM     21  N   UNL     1       2.239   0.033   0.854  0.00  0.00    +0.383 N 
ATOM     22  C   UNL     1       2.224   1.518   0.865  0.00  0.00    -0.078 C 
ATOM     23  C   UNL     1       3.704   1.885   1.139  0.00  0.00    -0.020 C 
ATOM     24  C   UNL     1       4.151   0.795   2.140  0.00  0.00    -0.020 C 
ATOM     25  C   UNL     1       3.166  -0.370   1.933  0.00  0.00    -0.078 C 
ATOM     26  H   UNL     1       2.573  -0.306  -0.036  0.00  0.00    -0.081 HD
ENDBRANCH  20  21
BRANCH  20  28
ATOM     27  C   UNL     1      -0.378   1.544   0.419  0.00  0.00    +0.005 C 
ATOM     28  C   UNL     1      -0.089   0.077   0.093  0.00  0.00    -0.029 C 
ATOM     29  C   UNL     1       0.524  -0.023  -1.305  0.00  0.00    +0.005 C 
ENDBRANCH  20  28
ENDBRANCH  19  20
ENDBRANCH   1  19
TORSDOF 7
