REMARK  Name = ZINC51547273
REMARK  8 active torsions:
REMARK  status: ('A' for Active; 'I' for Inactive)
REMARK    1  A    between atoms: C_1  and  C_2
REMARK    2  A    between atoms: C_2  and  C_3
REMARK    3  A    between atoms: C_2  and  C_4
REMARK    4  A    between atoms: C_4  and  N_5
REMARK    5  A    between atoms: N_5  and  C_6
REMARK    6  A    between atoms: C_6  and  C_7
REMARK    7  A    between atoms: C_11  and  O_13
REMARK    8  A    between atoms: O_13  and  C_14
REMARK                            x       y       z     vdW  Elec       q    Type
REMARK                         _______ _______ _______ _____ _____    ______ ____
ROOT
ATOM      1  C   UNL     1      -4.213  -0.283  -2.488  0.00  0.00    +0.046 A 
ATOM      2  C   UNL     1      -5.062   0.807  -2.483  0.00  0.00    +0.061 A 
ATOM      3  C   UNL     1      -5.802   1.097  -3.622  0.00  0.00    +0.027 A 
ATOM      4  C   UNL     1      -5.659   0.277  -4.728  0.00  0.00    +0.069 A 
ATOM      5  C   UNL     1      -4.786  -0.802  -4.661  0.00  0.00    +0.221 A 
ATOM      6  N   UNL     1      -4.095  -1.043  -3.560  0.00  0.00    -0.218 NA
ATOM      7 CL   UNL     1      -5.204   1.803  -1.068  0.00  0.00    -0.082 Cl
ENDROOT
BRANCH   1   8
ATOM      8  C   UNL     1      -3.406  -0.604  -1.256  0.00  0.00    -0.025 C 
BRANCH   8   9
ATOM      9  N   UNL     1      -2.119   0.101  -1.316  0.00  0.00    +0.383 N 
ATOM     10  H   UNL     1      -2.282   1.096  -1.361  0.00  0.00    -0.085 HD
ATOM     11  H   UNL     1      -1.611  -0.195  -2.136  0.00  0.00    -0.085 HD
BRANCH   9  12
ATOM     12  C   UNL     1      -1.333  -0.212  -0.115  0.00  0.00    -0.079 C 
BRANCH  12  14
ATOM     13  C   UNL     1      -0.234   2.032  -0.121  0.00  0.00    +0.005 C 
ATOM     14  C   UNL     1       0.008   0.522  -0.177  0.00  0.00    -0.034 C 
ATOM     15  C   UNL     1       0.876   0.100   1.010  0.00  0.00    +0.005 C 
ENDBRANCH  12  14
ENDBRANCH   9  12
ENDBRANCH   8   9
ENDBRANCH   1   8
BRANCH   5  16
ATOM     16  O   UNL     1      -4.638  -1.613  -5.739  0.00  0.00    -0.437 OA
BRANCH  16  17
ATOM     17  C   UNL     1      -3.858  -2.718  -5.603  0.00  0.00    +0.149 A 
ATOM     18  C   UNL     1      -2.519  -2.672  -5.962  0.00  0.00    +0.048 A 
ATOM     19  C   UNL     1      -1.728  -3.796  -5.823  0.00  0.00    +0.004 A 
ATOM     20  C   UNL     1      -2.271  -4.968  -5.327  0.00  0.00    +0.002 A 
ATOM     21  C   UNL     1      -3.605  -5.017  -4.968  0.00  0.00    +0.024 A 
ATOM     22  C   UNL     1      -4.399  -3.893  -5.099  0.00  0.00    +0.083 A 
ATOM     23 CL   UNL     1      -6.072  -3.954  -4.641  0.00  0.00    -0.080 Cl
ENDBRANCH  16  17
ENDBRANCH   5  16
TORSDOF 6
