REMARK  Name = ZINC18322544
REMARK  4 active torsions:
REMARK  status: ('A' for Active; 'I' for Inactive)
REMARK    1  A    between atoms: C_1  and  C_2
REMARK    2  A    between atoms: C_9  and  C_11
REMARK    3  A    between atoms: C_12  and  C_30
REMARK    4  A    between atoms: C_16  and  C_18
REMARK                            x       y       z     vdW  Elec       q    Type
REMARK                         _______ _______ _______ _____ _____    ______ ____
ROOT
ATOM      1  C   UNL     1      -0.533   5.848   1.388  0.00  0.00    +0.043 C 
ATOM      2  C   UNL     1      -0.481   5.086   2.493  0.00  0.00    +0.014 C 
ATOM      3  N   UNL     1      -0.810   3.760   2.437  0.00  0.00    -0.321 N 
ATOM      4  C   UNL     1      -0.812   3.091   1.242  0.00  0.00    +0.015 C 
ATOM      5  C   UNL     1      -0.872   3.771   0.077  0.00  0.00    +0.024 C 
ATOM      6  C   UNL     1      -0.957   5.277   0.067  0.00  0.00    +0.090 C 
ATOM      7  C   UNL     1      -0.861   3.098  -1.157  0.00  0.00    +0.162 C 
ATOM      8  O   UNL     1      -0.924   3.739  -2.187  0.00  0.00    -0.292 OA
ATOM      9  C   UNL     1      -0.771   1.598  -1.226  0.00  0.00    +0.080 C 
ATOM     10  C   UNL     1      -0.023   1.085   0.009  0.00  0.00    +0.014 C 
ATOM     11  C   UNL     1      -0.746   1.584   1.262  0.00  0.00    +0.051 C 
ATOM     12  C   UNL     1      -0.058   5.697   3.804  0.00  0.00    +0.061 C 
ATOM     13  H   UNL     1      -1.075   3.219   3.357  0.00  0.00    +0.152 HD
ENDROOT
BRANCH   1  22
ATOM     14  C   UNL     1       0.774  13.502   0.874  0.00  0.00    +0.045 C 
ATOM     15  C   UNL     1       0.497  12.031   0.703  0.00  0.00    -0.032 A 
ATOM     16  C   UNL     1       0.106  11.530  -0.532  0.00  0.00    +0.008 A 
ATOM     17  C   UNL     1      -0.139  10.173  -0.647  0.00  0.00    +0.044 A 
ATOM     18  C   UNL     1       0.015   9.361   0.472  0.00  0.00    +0.125 A 
ATOM     19  N   UNL     1       0.385   9.877   1.633  0.00  0.00    -0.240 NA
ATOM     20  C   UNL     1       0.630  11.167   1.771  0.00  0.00    +0.116 A 
ATOM     21  N   UNL     1      -0.228   7.994   0.371  0.00  0.00    -0.267 N 
ATOM     22  C   UNL     1      -0.181   7.217   1.471  0.00  0.00    +0.248 C 
ATOM     23  O   UNL     1       0.165   7.693   2.537  0.00  0.00    -0.270 OA
ATOM     24  H   UNL     1      -0.459   7.547  -0.608  0.00  0.00    +0.157 HD
ENDBRANCH   1  22
BRANCH   6  25
ATOM     25  C   UNL     1      -2.378   5.690  -0.217  0.00  0.00    -0.035 A 
ATOM     26  C   UNL     1      -3.396   5.294   0.630  0.00  0.00    +0.006 A 
ATOM     27  C   UNL     1      -4.699   5.678   0.373  0.00  0.00    +0.020 A 
ATOM     28  C   UNL     1      -4.986   6.449  -0.740  0.00  0.00    +0.041 A 
ATOM     29  C   UNL     1      -3.967   6.840  -1.591  0.00  0.00    +0.020 A 
ATOM     30  C   UNL     1      -2.664   6.460  -1.329  0.00  0.00    +0.006 A 
ATOM     31 CL   UNL     1      -6.622   6.926  -1.067  0.00  0.00    -0.084 Cl
ENDBRANCH   6  25
TORSDOF 2
