REMARK  Name = ZINC39912314
REMARK  13 active torsions:
REMARK  status: ('A' for Active; 'I' for Inactive)
REMARK    1  A    between atoms: C_1  and  C_2
REMARK    2  A    between atoms: C_2  and  C_3
REMARK    3  A    between atoms: C_3  and  C_4
REMARK    4  A    between atoms: C_4  and  C_5
REMARK    5  A    between atoms: C_5  and  O_6
REMARK    6  A    between atoms: O_6  and  C_7
REMARK    7  A    between atoms: C_11  and  C_13
REMARK    8  A    between atoms: C_16  and  C_31
REMARK    9  A    between atoms: N_23  and  C_24
REMARK   10  A    between atoms: C_24  and  C_25
REMARK   11  A    between atoms: C_33  and  C_39
REMARK   12  A    between atoms: C_35  and  C_38
REMARK   13  A    between atoms: C_36  and  O_37
REMARK                            x       y       z     vdW  Elec       q    Type
REMARK                         _______ _______ _______ _____ _____    ______ ____
ROOT
ATOM      1  C   UNL     1       2.812  -8.019  -4.836  0.00  0.00    +0.142 C 
ATOM      2  C   UNL     1       4.195  -8.522  -4.522  0.00  0.00    +0.035 A 
ATOM      3  C   UNL     1       5.234  -8.610  -3.590  0.00  0.00    +0.102 A 
ATOM      4  N   UNL     1       6.212  -9.293  -4.153  0.00  0.00    -0.173 NA
ATOM      5  N   UNL     1       5.892  -9.645  -5.348  0.00  0.00    -0.272 N 
ATOM      6  H   UNL     1       6.457 -10.156  -5.948  0.00  0.00    +0.189 HD
ATOM      7  C   UNL     1       4.638  -9.194  -5.645  0.00  0.00    +0.126 A 
ATOM      8  C   UNL     1       3.586  -9.139  -6.667  0.00  0.00    +0.266 C 
ATOM      9  O   UNL     1       3.667  -9.637  -7.774  0.00  0.00    -0.268 OA
ATOM     10  N   UNL     1       2.520  -8.458  -6.207  0.00  0.00    -0.281 N 
ENDROOT
BRANCH   3  11
ATOM     11  C   UNL     1       5.237  -8.039  -2.220  0.00  0.00    +0.044 A 
ATOM     12  C   UNL     1       4.086  -7.447  -1.707  0.00  0.00    +0.017 A 
ATOM     13  C   UNL     1       4.094  -6.917  -0.433  0.00  0.00    -0.049 A 
ATOM     14  C   UNL     1       5.241  -6.972   0.338  0.00  0.00    +0.010 A 
ATOM     15  C   UNL     1       6.389  -7.558  -0.162  0.00  0.00    -0.008 A 
ATOM     16  C   UNL     1       6.394  -8.099  -1.438  0.00  0.00    +0.129 A 
ATOM     17  C   UNL     1       7.636  -7.613   0.683  0.00  0.00    +0.047 C 
ATOM     18  C   UNL     1       2.847  -6.276   0.121  0.00  0.00    +0.044 C 
BRANCH  16  19
ATOM     19  O   UNL     1       7.519  -8.680  -1.928  0.00  0.00    -0.506 OA
ATOM     20  H   UNL     1       8.106  -8.070  -2.395  0.00  0.00    +0.292 HD
ENDBRANCH  16  19
ENDBRANCH   3  11
BRANCH   1  25
ATOM     21  C   UNL     1       1.965  -4.509  -3.723  0.00  0.00    +0.121 A 
ATOM     22  C   UNL     1       2.716  -3.751  -4.610  0.00  0.00    +0.045 A 
ATOM     23  C   UNL     1       3.494  -4.377  -5.564  0.00  0.00    +0.004 A 
ATOM     24  C   UNL     1       3.525  -5.757  -5.636  0.00  0.00    +0.006 A 
ATOM     25  C   UNL     1       2.777  -6.515  -4.754  0.00  0.00    -0.019 A 
ATOM     26  C   UNL     1       2.002  -5.894  -3.794  0.00  0.00    +0.051 A 
BRANCH  21  27
ATOM     27  O   UNL     1       1.199  -3.895  -2.783  0.00  0.00    -0.492 OA
BRANCH  27  28
ATOM     28  C   UNL     1       1.210  -2.466  -2.769  0.00  0.00    +0.229 C 
BRANCH  28  29
ATOM     29  C   UNL     1       0.296  -1.961  -1.651  0.00  0.00    +0.041 C 
BRANCH  29  30
ATOM     30  C   UNL     1       0.308  -0.431  -1.635  0.00  0.00    +0.003 C 
BRANCH  30  32
ATOM     31  C   UNL     1      -0.595   1.605  -0.502  0.00  0.00    +0.004 C 
ATOM     32  C   UNL     1      -0.607   0.075  -0.518  0.00  0.00    -0.003 C 
ENDBRANCH  30  32
ENDBRANCH  29  30
ENDBRANCH  28  29
ENDBRANCH  27  28
ENDBRANCH  21  27
ENDBRANCH   1  25
BRANCH  10  33
ATOM     33  C   UNL     1       1.281  -8.199  -6.945  0.00  0.00    +0.144 C 
BRANCH  33  34
ATOM     34  C   UNL     1       1.409  -6.902  -7.702  0.00  0.00    -0.030 A 
ATOM     35  C   UNL     1       1.036  -5.713  -7.105  0.00  0.00    +0.005 A 
ATOM     36  C   UNL     1       1.154  -4.524  -7.800  0.00  0.00    +0.000 A 
ATOM     37  C   UNL     1       1.645  -4.524  -9.092  0.00  0.00    +0.000 A 
ATOM     38  C   UNL     1       2.019  -5.714  -9.689  0.00  0.00    +0.000 A 
ATOM     39  C   UNL     1       1.906  -6.902  -8.993  0.00  0.00    +0.005 A 
ENDBRANCH  33  34
ENDBRANCH  10  33
TORSDOF 10
