REMARK  Name = ZINC06887625
REMARK  5 active torsions:
REMARK  status: ('A' for Active; 'I' for Inactive)
REMARK    1  A    between atoms: C_1  and  O_2
REMARK    2  A    between atoms: O_2  and  C_3
REMARK    3  A    between atoms: C_6  and  N_9
REMARK    4  A    between atoms: N_9  and  S_10
REMARK    5  A    between atoms: S_10  and  C_13
REMARK                            x       y       z     vdW  Elec       q    Type
REMARK                         _______ _______ _______ _____ _____    ______ ____
ROOT
ATOM      1  C   UNL     1      -3.954  -5.142  -0.337  0.00  0.00    +0.109 A 
ATOM      2  C   UNL     1      -2.617  -5.136  -0.711  0.00  0.00    +0.031 A 
ATOM      3  C   UNL     1      -1.751  -6.098  -0.240  0.00  0.00    +0.028 A 
ATOM      4  C   UNL     1      -2.219  -7.087   0.620  0.00  0.00    +0.047 A 
ATOM      5  C   UNL     1      -3.575  -7.088   0.997  0.00  0.00    +0.005 A 
ATOM      6  C   UNL     1      -4.433  -6.100   0.510  0.00  0.00    +0.039 A 
ATOM      7  C   UNL     1      -3.742  -8.234   1.890  0.00  0.00    -0.019 A 
ATOM      8  C   UNL     1      -2.545  -8.831   2.004  0.00  0.00    +0.020 A 
ATOM      9  N   UNL     1      -1.623  -8.159   1.245  0.00  0.00    -0.358 N 
ATOM     10  H   UNL     1      -0.688  -8.402   1.161  0.00  0.00    +0.166 HD
ATOM     11  C   UNL     1      -2.258 -10.050   2.850  0.00  0.00    +0.053 C 
ATOM     12  C   UNL     1      -3.334 -11.109   2.600  0.00  0.00    +0.006 C 
ATOM     13  C   UNL     1      -4.497 -10.898   3.566  0.00  0.00    +0.001 C 
ATOM     14  C   UNL     1      -4.689  -9.412   3.856  0.00  0.00    +0.005 C 
ATOM     15  C   UNL     1      -5.020  -8.676   2.555  0.00  0.00    +0.037 C 
ENDROOT
BRANCH   1  16
ATOM     16  S   UNL     1      -5.039  -3.899  -0.955  0.00  0.00    +0.072 S 
ATOM     17  O   UNL     1      -6.361  -4.389  -0.776  0.00  0.00    -0.150 OA
ATOM     18  O   UNL     1      -4.535  -3.515  -2.227  0.00  0.00    -0.150 OA
BRANCH  16  19
ATOM     19  N   UNL     1      -4.886  -2.579   0.033  0.00  0.00    -0.216 N 
ATOM     20  H   UNL     1      -4.567  -1.737  -0.328  0.00  0.00    +0.174 HD
BRANCH  19  24
ATOM     21  C   UNL     1      -5.871  -2.874   4.072  0.00  0.00    +0.120 A 
ATOM     22  C   UNL     1      -4.689  -2.257   3.691  0.00  0.00    +0.047 A 
ATOM     23  C   UNL     1      -4.362  -2.159   2.352  0.00  0.00    +0.028 A 
ATOM     24  C   UNL     1      -5.216  -2.679   1.389  0.00  0.00    +0.048 A 
ATOM     25  C   UNL     1      -6.399  -3.296   1.772  0.00  0.00    +0.028 A 
ATOM     26  C   UNL     1      -6.722  -3.398   3.111  0.00  0.00    +0.047 A 
BRANCH  21  28
ATOM     27  C   UNL     1      -5.269  -2.409   6.326  0.00  0.00    +0.277 C 
ATOM     28  O   UNL     1      -6.192  -2.970   5.391  0.00  0.00    -0.495 OA
ENDBRANCH  21  28
ENDBRANCH  19  24
ENDBRANCH  16  19
ENDBRANCH   1  16
TORSDOF 4
