REMARK  Name = ZINC19332222
REMARK  6 active torsions:
REMARK  status: ('A' for Active; 'I' for Inactive)
REMARK    1  A    between atoms: C_4  and  C_7
REMARK    2  A    between atoms: C_11  and  C_26
REMARK    3  A    between atoms: C_12  and  O_13
REMARK    4  A    between atoms: C_17  and  C_18
REMARK    5  A    between atoms: C_21  and  O_25
REMARK    6  A    between atoms: C_23  and  O_24
REMARK                            x       y       z     vdW  Elec       q    Type
REMARK                         _______ _______ _______ _____ _____    ______ ____
ROOT
ATOM      1  C   UNL     1       3.482  -0.689   0.037  0.00  0.00    +0.021 C 
ATOM      2  C   UNL     1       4.328  -0.114   1.178  0.00  0.00    -0.061 C 
ATOM      3  N   UNL     1       5.703  -0.612   1.070  0.00  0.00    +0.394 N 
ATOM      4  C   UNL     1       5.727  -2.071   1.213  0.00  0.00    -0.061 C 
ATOM      5  C   UNL     1       4.929  -2.713   0.073  0.00  0.00    +0.021 C 
ATOM      6  C   UNL     1       3.478  -2.219   0.149  0.00  0.00    +0.134 C 
ATOM      7  C   UNL     1       5.533  -2.263  -1.263  0.00  0.00    +0.095 C 
ATOM      8  N   UNL     1       5.508  -0.793  -1.322  0.00  0.00    -0.310 NA
ATOM      9  C   UNL     1       4.108  -0.296  -1.306  0.00  0.00    +0.095 C 
ATOM     10  C   UNL     1       6.286  -0.217  -0.216  0.00  0.00    +0.037 C 
ATOM     11  H   UNL     1       6.255  -0.212   1.814  0.00  0.00    -0.079 HD
ENDROOT
BRANCH   1  15
ATOM     12  C   UNL     1      -0.512   0.806   0.280  0.00  0.00    +0.000 A 
ATOM     13  C   UNL     1       0.545   1.682   0.124  0.00  0.00    +0.000 A 
ATOM     14  C   UNL     1       1.838   1.199   0.046  0.00  0.00    +0.004 A 
ATOM     15  C   UNL     1       2.073  -0.161   0.124  0.00  0.00    -0.039 A 
ATOM     16  C   UNL     1       1.015  -1.038   0.280  0.00  0.00    +0.004 A 
ATOM     17  C   UNL     1      -0.278  -0.554   0.357  0.00  0.00    +0.000 A 
ENDBRANCH   1  15
BRANCH  10  18
ATOM     18  C   UNL     1       6.277   1.285  -0.329  0.00  0.00    -0.006 A 
ATOM     19  C   UNL     1       6.278   2.063   0.814  0.00  0.00    +0.010 A 
ATOM     20  C   UNL     1       6.269   3.441   0.714  0.00  0.00    +0.046 A 
ATOM     21  C   UNL     1       6.261   4.047  -0.535  0.00  0.00    +0.120 A 
ATOM     22  C   UNL     1       6.260   3.269  -1.682  0.00  0.00    +0.091 A 
ATOM     23  C   UNL     1       6.274   1.887  -1.579  0.00  0.00    +0.123 A 
BRANCH  23  24
ATOM     24  O   UNL     1       6.279   1.121  -2.702  0.00  0.00    -0.506 OA
ATOM     25  H   UNL     1       5.397   0.894  -3.027  0.00  0.00    +0.292 HD
ENDBRANCH  23  24
BRANCH  21  26
ATOM     26  O   UNL     1       6.252   5.403  -0.632  0.00  0.00    -0.507 OA
ATOM     27  H   UNL     1       7.133   5.800  -0.664  0.00  0.00    +0.292 HD
ENDBRANCH  21  26
ENDBRANCH  10  18
BRANCH   5  28
ATOM     28  C   UNL     1       4.970  -4.214   0.195  0.00  0.00    -0.039 A 
ATOM     29  C   UNL     1       4.364  -5.003  -0.765  0.00  0.00    +0.004 A 
ATOM     30  C   UNL     1       4.401  -6.380  -0.653  0.00  0.00    +0.000 A 
ATOM     31  C   UNL     1       5.046  -6.969   0.419  0.00  0.00    +0.000 A 
ATOM     32  C   UNL     1       5.653  -6.180   1.379  0.00  0.00    +0.000 A 
ATOM     33  C   UNL     1       5.619  -4.803   1.264  0.00  0.00    +0.004 A 
ENDBRANCH   5  28
BRANCH   6  34
ATOM     34  O   UNL     1       2.916  -2.609   1.404  0.00  0.00    -0.390 OA
ATOM     35  H   UNL     1       2.804  -3.564   1.505  0.00  0.00    +0.210 HD
ENDBRANCH   6  34
TORSDOF 6
