REMARK  Name = ZINC66536601
REMARK  8 active torsions:
REMARK  status: ('A' for Active; 'I' for Inactive)
REMARK    1  A    between atoms: C_4  and  C_7
REMARK    2  A    between atoms: C_7  and  C_8
REMARK    3  A    between atoms: C_7  and  O_14
REMARK    4  A    between atoms: O_14  and  C_15
REMARK    5  A    between atoms: C_15  and  C_16
REMARK    6  A    between atoms: C_16  and  N_17
REMARK    7  A    between atoms: C_21  and  C_23
REMARK    8  A    between atoms: C_23  and  N_24
REMARK                            x       y       z     vdW  Elec       q    Type
REMARK                         _______ _______ _______ _____ _____    ______ ____
ROOT
ATOM      1  O   UNL     1       2.992  -2.272  -0.793  0.00  0.00    -0.366 OA
ENDROOT
BRANCH   1   2
ATOM      2  C   UNL     1       2.866  -1.276   0.224  0.00  0.00    +0.178 C 
BRANCH   2   6
ATOM      3  C   UNL     1      -0.909   0.685  -0.164  0.00  0.00    +0.000 A 
ATOM      4  C   UNL     1       0.221   1.416   0.151  0.00  0.00    +0.000 A 
ATOM      5  C   UNL     1       1.442   0.781   0.277  0.00  0.00    +0.006 A 
ATOM      6  C   UNL     1       1.534  -0.585   0.087  0.00  0.00    -0.015 A 
ATOM      7  C   UNL     1       0.404  -1.316  -0.227  0.00  0.00    +0.006 A 
ATOM      8  C   UNL     1      -0.817  -0.681  -0.354  0.00  0.00    +0.000 A 
ENDBRANCH   2   6
BRANCH   2   9
ATOM      9  C   UNL     1       2.958  -1.928   1.579  0.00  0.00    -0.015 A 
ATOM     10  C   UNL     1       2.436  -3.194   1.774  0.00  0.00    +0.006 A 
ATOM     11  C   UNL     1       2.520  -3.792   3.018  0.00  0.00    +0.000 A 
ATOM     12  C   UNL     1       3.125  -3.125   4.066  0.00  0.00    +0.000 A 
ATOM     13  C   UNL     1       3.648  -1.860   3.871  0.00  0.00    +0.000 A 
ATOM     14  C   UNL     1       3.568  -1.264   2.626  0.00  0.00    +0.006 A 
ENDBRANCH   2   9
ENDBRANCH   1   2
BRANCH   1  15
ATOM     15  C   UNL     1       4.337  -2.508  -1.213  0.00  0.00    +0.176 C 
BRANCH  15  16
ATOM     16  C   UNL     1       4.351  -3.587  -2.298  0.00  0.00    +0.112 C 
BRANCH  16  17
ATOM     17  N   UNL     1       3.654  -3.091  -3.491  0.00  0.00    -0.299 NA
ATOM     18  C   UNL     1       2.201  -2.972  -3.245  0.00  0.00    +0.085 C 
ATOM     19  C   UNL     1       1.540  -3.307  -4.605  0.00  0.00    +0.017 C 
ATOM     20  C   UNL     1       2.469  -4.429  -5.137  0.00  0.00    +0.018 C 
ATOM     21  C   UNL     1       3.863  -3.992  -4.639  0.00  0.00    +0.040 C 
BRANCH  21  22
ATOM     22  C   UNL     1       4.666  -5.218  -4.199  0.00  0.00    -0.060 C 
BRANCH  22  23
ATOM     23  N   UNL     1       4.893  -6.095  -5.355  0.00  0.00    +0.381 N 
ATOM     24  C   UNL     1       5.829  -5.450  -6.312  0.00  0.00    -0.079 C 
ATOM     25  C   UNL     1       6.391  -6.647  -7.119  0.00  0.00    -0.020 C 
ATOM     26  C   UNL     1       6.525  -7.754  -6.048  0.00  0.00    -0.020 C 
ATOM     27  C   UNL     1       5.556  -7.345  -4.923  0.00  0.00    -0.079 C 
ATOM     28  H   UNL     1       4.018  -6.305  -5.810  0.00  0.00    -0.082 HD
ENDBRANCH  22  23
ENDBRANCH  21  22
ENDBRANCH  16  17
ENDBRANCH  15  16
ENDBRANCH   1  15
TORSDOF 8
