REMARK  Name = ZINC35518645
REMARK  4 active torsions:
REMARK  status: ('A' for Active; 'I' for Inactive)
REMARK    1  A    between atoms: N_10  and  N_11
REMARK    2  A    between atoms: C_15  and  C_16
REMARK    3  A    between atoms: N_20  and  C_21
REMARK    4  A    between atoms: C_24  and  N_27
REMARK                            x       y       z     vdW  Elec       q    Type
REMARK                         _______ _______ _______ _____ _____    ______ ____
ROOT
ATOM      1  N   UNL     1       4.262  -2.993  -0.763  0.00  0.00    -0.170 N 
ATOM      2  C   UNL     1       4.799  -3.629  -1.794  0.00  0.00    +0.275 C 
ATOM      3  O   UNL     1       4.295  -3.603  -2.899  0.00  0.00    -0.267 OA
ATOM      4  C   UNL     1       6.059  -4.377  -1.520  0.00  0.00    +0.080 C 
ATOM      5  C   UNL     1       6.850  -5.140  -2.411  0.00  0.00    +0.046 C 
ATOM      6  S   UNL     1       6.302  -4.083   0.119  0.00  0.00    -0.059 S 
ATOM      7  C   UNL     1       4.878  -3.059   0.434  0.00  0.00    +0.138 C 
ATOM      8  S   UNL     1       4.404  -2.331   1.909  0.00  0.00    -0.026 S 
ENDROOT
BRANCH   1  18
ATOM      9  C   UNL     1       1.745   3.626  -1.580  0.00  0.00    +0.002 A 
ATOM     10  C   UNL     1       3.061   4.018  -1.383  0.00  0.00    +0.001 A 
ATOM     11  C   UNL     1       4.026   3.056  -1.146  0.00  0.00    +0.017 A 
ATOM     12  C   UNL     1       3.668   1.732  -1.109  0.00  0.00    +0.041 A 
ATOM     13  C   UNL     1       2.338   1.296  -1.305  0.00  0.00    +0.080 A 
ATOM     14  C   UNL     1       1.379   2.306  -1.544  0.00  0.00    +0.029 A 
ATOM     15  N   UNL     1       2.145  -0.040  -1.240  0.00  0.00    -0.224 NA
ATOM     16  C   UNL     1       3.125  -0.884  -1.009  0.00  0.00    +0.176 A 
ATOM     17  S   UNL     1       4.534   0.203  -0.848  0.00  0.00    -0.051 S 
ATOM     18  N   UNL     1       3.078  -2.260  -0.916  0.00  0.00    -0.234 N 
ATOM     19  H   UNL     1       2.225  -2.720  -0.957  0.00  0.00    +0.173 HD
ENDBRANCH   1  18
BRANCH   5  20
ATOM     20  C   UNL     1       6.413  -5.365  -3.702  0.00  0.00    +0.048 A 
ATOM     21  C   UNL     1       7.092  -4.966  -4.943  0.00  0.00    +0.027 A 
ATOM     22  C   UNL     1       6.300  -5.396  -5.968  0.00  0.00    +0.020 A 
ATOM     23  C   UNL     1       5.183  -6.030  -5.428  0.00  0.00    +0.092 A 
ATOM     24  N   UNL     1       5.249  -6.019  -4.085  0.00  0.00    -0.316 N 
BRANCH  24  25
ATOM     25  C   UNL     1       4.300  -6.572  -3.216  0.00  0.00    +0.047 A 
ATOM     26  C   UNL     1       4.692  -7.488  -2.249  0.00  0.00    +0.028 A 
ATOM     27  C   UNL     1       3.753  -8.031  -1.393  0.00  0.00    +0.035 A 
ATOM     28  C   UNL     1       2.424  -7.663  -1.499  0.00  0.00    +0.126 A 
ATOM     29  C   UNL     1       2.030  -6.752  -2.462  0.00  0.00    +0.035 A 
ATOM     30  C   UNL     1       2.965  -6.201  -3.317  0.00  0.00    +0.028 A 
BRANCH  28  31
ATOM     31  N   UNL     1       1.421  -8.248  -0.581  0.00  0.00    +0.056 N 
ATOM     32  O   UNL     1       1.806  -9.038   0.399  0.00  0.00    -0.126 OA
ATOM     33  O   UNL     1       0.142  -7.977  -0.745  0.00  0.00    -0.126 OA
ENDBRANCH  28  31
ENDBRANCH  24  25
ENDBRANCH   5  20
TORSDOF 4
