REMARK  Name = ZINC20150738
REMARK  13 active torsions:
REMARK  status: ('A' for Active; 'I' for Inactive)
REMARK    1  A    between atoms: C_1  and  C_2
REMARK    2  A    between atoms: C_2  and  C_3
REMARK    3  A    between atoms: C_3  and  C_4
REMARK    4  A    between atoms: C_4  and  C_37
REMARK    5  A    between atoms: C_9  and  C_12
REMARK    6  A    between atoms: C_15  and  O_20
REMARK    7  A    between atoms: C_17  and  O_18
REMARK    8  A    between atoms: O_18  and  C_19
REMARK    9  A    between atoms: O_20  and  C_21
REMARK   10  A    between atoms: N_24  and  C_27
REMARK   11  A    between atoms: C_37  and  O_39
REMARK   12  A    between atoms: O_39  and  C_40
REMARK   13  A    between atoms: C_40  and  C_41
REMARK                            x       y       z     vdW  Elec       q    Type
REMARK                         _______ _______ _______ _____ _____    ______ ____
ROOT
ATOM      1  C   UNL     1       0.515  -1.952  -1.111  0.00  0.00    +0.044 C 
ATOM      2  C   UNL     1       1.188  -2.309  -2.433  0.00  0.00    +0.086 C 
ATOM      3  C   UNL     1       0.795  -3.835  -2.447  0.00  0.00    +0.077 C 
ATOM      4  C   UNL     1      -0.641  -3.822  -2.141  0.00  0.00    -0.023 C 
ATOM      5  N   UNL     1      -0.808  -2.651  -1.204  0.00  0.00    +0.395 N 
ATOM      6  C   UNL     1       1.714  -4.372  -3.422  0.00  0.00    +0.229 C 
ATOM      7  O   UNL     1       1.518  -5.282  -4.198  0.00  0.00    -0.275 OA
ATOM      8  N   UNL     1       2.857  -3.626  -3.280  0.00  0.00    -0.210 N 
ATOM      9  C   UNL     1       2.670  -2.489  -2.522  0.00  0.00    +0.229 C 
ATOM     10  O   UNL     1       3.521  -1.782  -2.026  0.00  0.00    -0.275 OA
ATOM     11  H   UNL     1      -1.091  -2.972  -0.291  0.00  0.00    -0.083 HD
ATOM     12  H   UNL     1      -1.502  -2.021  -1.577  0.00  0.00    -0.083 HD
ENDROOT
BRANCH   8  13
ATOM     13  C   UNL     1       4.089  -3.976  -3.854  0.00  0.00    +0.048 A 
ATOM     14  C   UNL     1       5.201  -3.169  -3.656  0.00  0.00    +0.028 A 
ATOM     15  C   UNL     1       6.414  -3.512  -4.223  0.00  0.00    +0.051 A 
ATOM     16  C   UNL     1       6.524  -4.662  -4.990  0.00  0.00    +0.162 A 
ATOM     17  C   UNL     1       5.413  -5.473  -5.188  0.00  0.00    +0.164 A 
ATOM     18  C   UNL     1       4.197  -5.131  -4.615  0.00  0.00    +0.073 A 
ATOM     19  O   UNL     1       5.503  -6.610  -5.930  0.00  0.00    -0.485 OA
ATOM     20  C   UNL     1       6.642  -6.729  -6.790  0.00  0.00    +0.270 C 
ATOM     21  C   UNL     1       7.891  -6.332  -5.991  0.00  0.00    +0.270 C 
ATOM     22  O   UNL     1       7.726  -4.982  -5.544  0.00  0.00    -0.485 OA
ENDBRANCH   8  13
BRANCH   4  23
ATOM     23  C   UNL     1      -1.446  -3.637  -3.402  0.00  0.00    -0.019 A 
ATOM     24  C   UNL     1      -1.811  -2.368  -3.808  0.00  0.00    +0.009 A 
ATOM     25  C   UNL     1      -2.549  -2.195  -4.963  0.00  0.00    +0.046 A 
ATOM     26  C   UNL     1      -2.925  -3.297  -5.719  0.00  0.00    +0.124 A 
ATOM     27  C   UNL     1      -2.559  -4.571  -5.314  0.00  0.00    +0.091 A 
ATOM     28  C   UNL     1      -1.813  -4.741  -4.157  0.00  0.00    +0.125 A 
BRANCH  28  29
ATOM     29  O   UNL     1      -1.448  -5.989  -3.761  0.00  0.00    -0.495 OA
ATOM     30  C   UNL     1      -1.862  -7.079  -4.587  0.00  0.00    +0.277 C 
ENDBRANCH  28  29
BRANCH  26  31
ATOM     31  O   UNL     1      -3.651  -3.126  -6.855  0.00  0.00    -0.495 OA
ATOM     32  C   UNL     1      -3.992  -1.785  -7.211  0.00  0.00    +0.277 C 
ENDBRANCH  26  31
ENDBRANCH   4  23
BRANCH   1  33
ATOM     33  C   UNL     1       1.313  -2.477   0.054  0.00  0.00    +0.297 C 
ATOM     34  O   UNL     1       2.508  -2.629  -0.050  0.00  0.00    -0.252 OA
BRANCH  33  35
ATOM     35  O   UNL     1       0.698  -2.774   1.209  0.00  0.00    -0.466 OA
BRANCH  35  36
ATOM     36  C   UNL     1       1.516  -3.267   2.273  0.00  0.00    +0.228 C 
ATOM     37  C   UNL     1       0.645  -3.548   3.498  0.00  0.00    +0.048 C 
ENDBRANCH  35  36
ENDBRANCH  33  35
ENDBRANCH   1  33
BRANCH   1  38
ATOM     38  C   UNL     1       0.321  -0.439  -0.995  0.00  0.00    -0.001 C 
BRANCH  38  40
ATOM     39  C   UNL     1      -0.656   1.390   0.398  0.00  0.00    +0.004 C 
ATOM     40  C   UNL     1      -0.462  -0.123   0.281  0.00  0.00    -0.004 C 
ENDBRANCH  38  40
ENDBRANCH   1  38
TORSDOF 9
