REMARK  Name = ZINC39532088
REMARK  11 active torsions:
REMARK  status: ('A' for Active; 'I' for Inactive)
REMARK    1  A    between atoms: C_1  and  C_2
REMARK    2  A    between atoms: C_2  and  C_3
REMARK    3  A    between atoms: C_6  and  C_9
REMARK    4  A    between atoms: C_9  and  C_11
REMARK    5  A    between atoms: C_9  and  N_23
REMARK    6  A    between atoms: C_11  and  N_12
REMARK    7  A    between atoms: N_12  and  S_13
REMARK    8  A    between atoms: S_13  and  O_16
REMARK    9  A    between atoms: O_16  and  C_17
REMARK   10  A    between atoms: C_27  and  C_30
REMARK   11  A    between atoms: C_30  and  C_31
REMARK                            x       y       z     vdW  Elec       q    Type
REMARK                         _______ _______ _______ _____ _____    ______ ____
ROOT
ATOM      1  C   UNL     1       2.662  -1.917  -5.173  0.00  0.00    -0.060 C 
ENDROOT
BRANCH   1   2
ATOM      2  N   UNL     1       3.994  -1.621  -5.718  0.00  0.00    +0.381 N 
ATOM      3  C   UNL     1       4.250  -0.177  -5.627  0.00  0.00    -0.098 C 
ATOM      4  C   UNL     1       5.637   0.132  -6.194  0.00  0.00    -0.101 C 
ATOM      5  N   UNL     1       5.695  -0.288  -7.601  0.00  0.00    +0.379 N 
ATOM      6  C   UNL     1       5.439  -1.732  -7.692  0.00  0.00    -0.085 C 
ATOM      7  C   UNL     1       4.052  -2.040  -7.125  0.00  0.00    -0.094 C 
ATOM      8  H   UNL     1       4.996   0.212  -8.130  0.00  0.00    -0.086 HD
ATOM      9  H   UNL     1       6.610  -0.084  -7.975  0.00  0.00    -0.086 HD
ATOM     10  H   UNL     1       4.693  -2.120  -5.189  0.00  0.00    -0.081 HD
BRANCH   6  11
ATOM     11  C   UNL     1       5.500  -2.169  -9.157  0.00  0.00    +0.017 C 
BRANCH  11  12
ATOM     12  C   UNL     1       6.892  -1.950  -9.689  0.00  0.00    -0.049 A 
ATOM     13  C   UNL     1       7.211  -0.764 -10.325  0.00  0.00    +0.003 A 
ATOM     14  C   UNL     1       8.488  -0.563 -10.813  0.00  0.00    +0.000 A 
ATOM     15  C   UNL     1       9.447  -1.547 -10.666  0.00  0.00    +0.000 A 
ATOM     16  C   UNL     1       9.129  -2.733 -10.030  0.00  0.00    +0.000 A 
ATOM     17  C   UNL     1       7.853  -2.932  -9.538  0.00  0.00    +0.003 A 
ENDBRANCH  11  12
ENDBRANCH   6  11
ENDBRANCH   1   2
BRANCH   1  21
ATOM     18  C   UNL     1       2.498  -0.715  -1.077  0.00  0.00    -0.048 A 
ATOM     19  C   UNL     1       1.413  -0.498  -1.905  0.00  0.00    +0.004 A 
ATOM     20  C   UNL     1       1.466  -0.887  -3.231  0.00  0.00    +0.002 A 
ATOM     21  C   UNL     1       2.605  -1.492  -3.728  0.00  0.00    -0.063 A 
ATOM     22  C   UNL     1       3.691  -1.708  -2.901  0.00  0.00    +0.002 A 
ATOM     23  C   UNL     1       3.639  -1.315  -1.576  0.00  0.00    +0.004 A 
BRANCH  18  25
ATOM     24  C   UNL     1       2.945   1.147   0.498  0.00  0.00    +0.009 C 
ATOM     25  C   UNL     1       2.440  -0.291   0.368  0.00  0.00    +0.032 C 
ENDBRANCH  18  25
ENDBRANCH   1  21
BRANCH   1  26
ATOM     26  C   UNL     1       2.393  -3.420  -5.274  0.00  0.00    -0.121 C 
BRANCH  26  27
ATOM     27  N   UNL     1       1.033  -3.704  -4.809  0.00  0.00    +0.491 NA
BRANCH  27  28
ATOM     28  S   UNL     1       0.510  -5.271  -4.689  0.00  0.00    +0.066 S 
ATOM     29  O   UNL     1       0.689  -5.858  -5.971  0.00  0.00    -0.159 OA
ATOM     30  O   UNL     1       1.103  -5.809  -3.515  0.00  0.00    -0.159 OA
BRANCH  28  31
ATOM     31  O   UNL     1      -0.990  -5.226  -4.437  0.00  0.00    -0.362 OA
BRANCH  31  32
ATOM     32  C   UNL     1      -1.723  -4.867  -5.523  0.00  0.00    +0.154 A 
ATOM     33  C   UNL     1      -1.917  -3.525  -5.818  0.00  0.00    +0.048 A 
ATOM     34  C   UNL     1      -2.662  -3.162  -6.923  0.00  0.00    +0.004 A 
ATOM     35  C   UNL     1      -3.214  -4.134  -7.736  0.00  0.00    +0.000 A 
ATOM     36  C   UNL     1      -3.023  -5.472  -7.444  0.00  0.00    +0.004 A 
ATOM     37  C   UNL     1      -2.274  -5.841  -6.343  0.00  0.00    +0.048 A 
ENDBRANCH  31  32
ENDBRANCH  28  31
ENDBRANCH  27  28
ENDBRANCH  26  27
ENDBRANCH   1  26
TORSDOF 10
