REMARK  Name = ZINC64110744
REMARK  7 active torsions:
REMARK  status: ('A' for Active; 'I' for Inactive)
REMARK    1  A    between atoms: C_1  and  C_2
REMARK    2  A    between atoms: C_2  and  C_3
REMARK    3  A    between atoms: C_4  and  C_26
REMARK    4  A    between atoms: C_9  and  C_13
REMARK    5  A    between atoms: C_13  and  C_14
REMARK    6  A    between atoms: C_22  and  C_24
REMARK    7  A    between atoms: C_26  and  C_27
REMARK                            x       y       z     vdW  Elec       q    Type
REMARK                         _______ _______ _______ _____ _____    ______ ____
ROOT
ATOM      1  C   UNL     1      -1.412  -0.526   0.013  0.00  0.00    +0.018 A 
ATOM      2  C   UNL     1      -2.174  -0.810   1.147  0.00  0.00    +0.069 A 
ATOM      3  N   UNL     1      -3.349  -1.242   0.763  0.00  0.00    -0.167 NA
ATOM      4  N   UNL     1      -3.383  -1.250  -0.637  0.00  0.00    -0.180 N 
ATOM      5  C   UNL     1      -2.175  -0.797  -1.083  0.00  0.00    +0.141 A 
ATOM      6  N   UNL     1      -1.928  -0.695  -2.439  0.00  0.00    -0.343 N 
ATOM      7  C   UNL     1      -2.892  -1.042  -3.337  0.00  0.00    +0.027 A 
ATOM      8  C   UNL     1      -4.092  -1.488  -2.902  0.00  0.00    +0.093 A 
ATOM      9  C   UNL     1      -4.340  -1.599  -1.519  0.00  0.00    +0.275 A 
ATOM     10  O   UNL     1      -5.420  -1.999  -1.122  0.00  0.00    -0.266 OA
ATOM     11  H   UNL     1      -1.067  -0.375  -2.752  0.00  0.00    +0.167 HD
ENDROOT
BRANCH   1  13
ATOM     12  C   UNL     1      -0.019   1.526   0.010  0.00  0.00    +0.009 C 
ATOM     13  C   UNL     1       0.002  -0.004   0.002  0.00  0.00    +0.037 C 
ENDBRANCH   1  13
BRANCH   2  14
ATOM     14  C   UNL     1      -1.720  -0.649   2.575  0.00  0.00    +0.054 C 
ATOM     15  C   UNL     1      -2.064   0.760   3.063  0.00  0.00    +0.010 C 
ENDBRANCH   2  14
BRANCH   7  16
ATOM     16  C   UNL     1      -2.620  -0.928  -4.815  0.00  0.00    +0.086 C 
BRANCH  16  17
ATOM     17  C   UNL     1      -2.905   0.479  -5.272  0.00  0.00    -0.033 C 
ATOM     18  C   UNL     1      -3.332   1.511  -4.508  0.00  0.00    +0.002 A 
ATOM     19  C   UNL     1      -3.648   1.629  -3.080  0.00  0.00    +0.010 A 
ATOM     20  C   UNL     1      -4.063   2.816  -2.586  0.00  0.00    +0.004 A 
ATOM     21  C   UNL     1      -4.206   3.955  -3.389  0.00  0.00    +0.040 A 
ATOM     22  C   UNL     1      -3.941   3.950  -4.715  0.00  0.00    +0.147 A 
ATOM     23  C   UNL     1      -3.483   2.713  -5.359  0.00  0.00    +0.079 A 
ATOM     24  N   UNL     1      -3.163   2.437  -6.599  0.00  0.00    -0.376 N 
ATOM     25  C   UNL     1      -2.766   1.026  -6.675  0.00  0.00    +0.104 C 
ATOM     26  C   UNL     1      -3.693   0.271  -7.630  0.00  0.00    +0.035 C 
ATOM     27  F   UNL     1      -4.097   5.077  -5.443  0.00  0.00    -0.203 F 
ATOM     28  H   UNL     1      -3.181   3.061  -7.341  0.00  0.00    +0.160 HD
ENDBRANCH  16  17
ENDBRANCH   7  16
TORSDOF 4
