REMARK  Name = ZINC16011448
REMARK  5 active torsions:
REMARK  status: ('A' for Active; 'I' for Inactive)
REMARK    1  A    between atoms: C_1  and  C_2
REMARK    2  A    between atoms: C_2  and  C_3
REMARK    3  A    between atoms: N_25  and  C_28
REMARK    4  A    between atoms: C_33  and  O_34
REMARK    5  A    between atoms: O_34  and  C_35
REMARK                            x       y       z     vdW  Elec       q    Type
REMARK                         _______ _______ _______ _____ _____    ______ ____
ROOT
ATOM      1  C   UNL     1       0.707  -0.490  -1.238  0.00  0.00    -0.026 A 
ATOM      2  C   UNL     1      -0.023  -0.816  -2.362  0.00  0.00    +0.005 A 
ATOM      3  C   UNL     1       0.614  -1.263  -3.504  0.00  0.00    +0.001 A 
ATOM      4  C   UNL     1       1.993  -1.384  -3.521  0.00  0.00    +0.008 A 
ATOM      5  C   UNL     1       2.726  -1.060  -2.401  0.00  0.00    +0.004 A 
ATOM      6  C   UNL     1       2.095  -0.603  -1.248  0.00  0.00    +0.042 A 
ATOM      7  N   UNL     1       3.040  -0.334  -0.255  0.00  0.00    -0.283 N 
ATOM      8  C   UNL     1       4.298  -0.578  -0.671  0.00  0.00    +0.243 C 
ATOM      9  O   UNL     1       5.314  -0.435  -0.026  0.00  0.00    -0.273 OA
ATOM     10  C   UNL     1       4.196  -1.076  -2.088  0.00  0.00    +0.138 C 
ATOM     11  C   UNL     1       4.982  -0.169  -3.041  0.00  0.00    +0.123 C 
ATOM     12  C   UNL     1       6.330  -0.907  -3.266  0.00  0.00    +0.107 C 
ATOM     13  C   UNL     1       6.235  -2.187  -2.416  0.00  0.00    +0.071 C 
ATOM     14  N   UNL     1       4.764  -2.426  -2.240  0.00  0.00    -0.281 NA
ATOM     15  C   UNL     1       4.311  -3.021  -3.520  0.00  0.00    +0.086 C 
ATOM     16  C   UNL     1       5.463  -3.943  -3.968  0.00  0.00    +0.017 C 
ATOM     17  C   UNL     1       6.747  -3.384  -3.238  0.00  0.00    +0.021 C 
ATOM     18  C   UNL     1       6.293  -1.260  -4.735  0.00  0.00    +0.232 C 
ATOM     19  O   UNL     1       7.164  -1.853  -5.335  0.00  0.00    -0.274 OA
ATOM     20  N   UNL     1       5.150  -0.816  -5.271  0.00  0.00    -0.206 N 
ATOM     21  C   UNL     1       4.331  -0.176  -4.406  0.00  0.00    +0.233 C 
ATOM     22  O   UNL     1       3.253   0.312  -4.671  0.00  0.00    -0.274 OA
ATOM     23  H   UNL     1       2.817  -0.008   0.631  0.00  0.00    +0.155 HD
ENDROOT
BRANCH  20  24
ATOM     24  C   UNL     1       4.827  -0.994  -6.625  0.00  0.00    +0.087 A 
ATOM     25  C   UNL     1       4.132  -2.124  -7.031  0.00  0.00    +0.047 A 
ATOM     26  C   UNL     1       3.814  -2.297  -8.365  0.00  0.00    +0.043 A 
ATOM     27  C   UNL     1       4.188  -1.345  -9.298  0.00  0.00    +0.024 A 
ATOM     28  C   UNL     1       4.881  -0.218  -8.900  0.00  0.00    +0.049 A 
ATOM     29  C   UNL     1       5.198  -0.035  -7.563  0.00  0.00    +0.142 A 
ATOM     30 CL   UNL     1       2.945  -3.712  -8.872  0.00  0.00    -0.083 Cl
BRANCH  29  31
ATOM     31  O   UNL     1       5.875   1.077  -7.170  0.00  0.00    -0.493 OA
ATOM     32  C   UNL     1       6.223   2.019  -8.187  0.00  0.00    +0.277 C 
ENDBRANCH  29  31
ENDBRANCH  20  24
BRANCH   1  34
ATOM     33  C   UNL     1      -0.019   1.526   0.010  0.00  0.00    +0.009 C 
ATOM     34  C   UNL     1       0.002  -0.004   0.002  0.00  0.00    +0.033 C 
ENDBRANCH   1  34
TORSDOF 3
