REMARK  Name = ZINC14608297
REMARK  14 active torsions:
REMARK  status: ('A' for Active; 'I' for Inactive)
REMARK    1  A    between atoms: C_1  and  C_2
REMARK    2  A    between atoms: C_2  and  O_3
REMARK    3  A    between atoms: O_3  and  C_4
REMARK    4  A    between atoms: C_4  and  C_6
REMARK    5  A    between atoms: C_7  and  N_37
REMARK    6  A    between atoms: C_21  and  C_23
REMARK    7  A    between atoms: C_26  and  O_31
REMARK    8  A    between atoms: C_27  and  O_29
REMARK    9  A    between atoms: O_29  and  C_30
REMARK   10  A    between atoms: O_31  and  C_32
REMARK   11  A    between atoms: C_32  and  C_33
REMARK   12  A    between atoms: C_33  and  C_34
REMARK   13  A    between atoms: C_34  and  C_35
REMARK   14  A    between atoms: C_34  and  C_36
REMARK                            x       y       z     vdW  Elec       q    Type
REMARK                         _______ _______ _______ _____ _____    ______ ____
ROOT
ATOM      1  C   UNL     1      -0.775   1.581   3.566  0.00  0.00    +0.105 C 
ATOM      2  C   UNL     1      -0.282   1.145   4.753  0.00  0.00    +0.195 C 
ATOM      3  O   UNL     1      -0.811   1.545   5.922  0.00  0.00    -0.441 OA
ATOM      4  C   UNL     1      -1.577   2.653   5.973  0.00  0.00    +0.148 A 
ATOM      5  C   UNL     1      -1.808   3.326   7.260  0.00  0.00    +0.041 A 
ATOM      6  C   UNL     1      -1.244   2.838   8.441  0.00  0.00    +0.013 A 
ATOM      7  C   UNL     1      -1.480   3.486   9.621  0.00  0.00    +0.001 A 
ATOM      8  C   UNL     1      -2.273   4.625   9.655  0.00  0.00    +0.002 A 
ATOM      9  C   UNL     1      -2.837   5.123   8.501  0.00  0.00    +0.026 A 
ATOM     10  C   UNL     1      -2.611   4.479   7.289  0.00  0.00    +0.053 A 
ATOM     11  N   UNL     1      -3.162   4.954   6.117  0.00  0.00    -0.322 N 
ATOM     12  H   UNL     1      -3.716   5.750   6.139  0.00  0.00    +0.169 HD
ATOM     13  C   UNL     1      -2.945   4.333   4.946  0.00  0.00    +0.257 A 
ATOM     14  O   UNL     1      -3.450   4.787   3.933  0.00  0.00    -0.267 OA
ATOM     15  C   UNL     1      -2.151   3.175   4.854  0.00  0.00    +0.072 A 
ATOM     16  C   UNL     1      -1.946   2.522   3.512  0.00  0.00    +0.100 C 
ENDROOT
BRANCH  16  17
ATOM     17  C   UNL     1      -3.188   1.754   3.139  0.00  0.00    -0.031 A 
ATOM     18  C   UNL     1      -3.625   0.717   3.943  0.00  0.00    +0.008 A 
ATOM     19  C   UNL     1      -4.763   0.010   3.605  0.00  0.00    +0.050 A 
ATOM     20  C   UNL     1      -5.469   0.338   2.458  0.00  0.00    +0.162 A 
ATOM     21  C   UNL     1      -5.028   1.381   1.649  0.00  0.00    +0.162 A 
ATOM     22  C   UNL     1      -3.890   2.090   1.997  0.00  0.00    +0.054 A 
BRANCH  21  23
ATOM     23  O   UNL     1      -5.717   1.707   0.523  0.00  0.00    -0.491 OA
ATOM     24  C   UNL     1      -5.207   2.789  -0.259  0.00  0.00    +0.277 C 
ENDBRANCH  21  23
BRANCH  20  25
ATOM     25  O   UNL     1      -6.588  -0.357   2.124  0.00  0.00    -0.488 OA
BRANCH  25  26
ATOM     26  C   UNL     1      -6.981  -1.415   3.001  0.00  0.00    +0.229 C 
BRANCH  26  27
ATOM     27  C   UNL     1      -8.252  -2.077   2.465  0.00  0.00    +0.044 C 
BRANCH  27  28
ATOM     28  C   UNL     1      -8.672  -3.210   3.404  0.00  0.00    -0.014 C 
ATOM     29  C   UNL     1     -10.009  -3.789   2.938  0.00  0.00    +0.007 C 
ATOM     30  C   UNL     1      -7.606  -4.308   3.388  0.00  0.00    +0.007 C 
ENDBRANCH  27  28
ENDBRANCH  26  27
ENDBRANCH  25  26
ENDBRANCH  20  25
ENDBRANCH  16  17
BRANCH   2  31
ATOM     31  N   UNL     1       0.781   0.283   4.761  0.00  0.00    -0.329 N 
ATOM     32  H   UNL     1       1.232   0.062   3.931  0.00  0.00    +0.145 HD
ATOM     33  H   UNL     1       1.084  -0.107   5.596  0.00  0.00    +0.145 HD
ENDBRANCH   2  31
BRANCH   1  34
ATOM     34  C   UNL     1      -0.186   1.142   2.370  0.00  0.00    +0.341 C 
ATOM     35  O   UNL     1       0.578   1.871   1.764  0.00  0.00    -0.245 OA
BRANCH  34  36
ATOM     36  O   UNL     1      -0.467  -0.090   1.892  0.00  0.00    -0.462 OA
BRANCH  36  38
ATOM     37  C   UNL     1      -0.268  -1.887   0.289  0.00  0.00    +0.048 C 
ATOM     38  C   UNL     1       0.168  -0.471   0.670  0.00  0.00    +0.229 C 
ENDBRANCH  36  38
ENDBRANCH  34  36
ENDBRANCH   1  34
TORSDOF 10
