REMARK  Name = ZINC45701077
REMARK  8 active torsions:
REMARK  status: ('A' for Active; 'I' for Inactive)
REMARK    1  A    between atoms: C_1  and  C_2
REMARK    2  A    between atoms: C_2  and  N_3
REMARK    3  A    between atoms: N_3  and  C_4
REMARK    4  A    between atoms: C_4  and  C_5
REMARK    5  A    between atoms: C_10  and  N_11
REMARK    6  A    between atoms: C_13  and  C_20
REMARK    7  A    between atoms: C_16  and  C_18
REMARK    8  A    between atoms: C_16  and  C_19
REMARK                            x       y       z     vdW  Elec       q    Type
REMARK                         _______ _______ _______ _____ _____    ______ ____
ROOT
ATOM      1  C   UNL     1       1.461  -2.459   2.405  0.00  0.00    -0.043 A 
ATOM      2  C   UNL     1       2.779  -2.861   2.307  0.00  0.00    +0.004 A 
ATOM      3  C   UNL     1       3.449  -3.319   3.426  0.00  0.00    +0.015 A 
ATOM      4  C   UNL     1       2.802  -3.376   4.648  0.00  0.00    +0.020 A 
ATOM      5  C   UNL     1       1.484  -2.975   4.753  0.00  0.00    +0.038 A 
ATOM      6  C   UNL     1       0.810  -2.509   3.631  0.00  0.00    +0.032 A 
ATOM      7 BR   UNL     1       3.723  -4.003   6.176  0.00  0.00    -0.050 Br
ENDROOT
BRANCH   6   8
ATOM      8  N   UNL     1      -0.520  -2.098   3.734  0.00  0.00    -0.325 N 
ATOM      9  C   UNL     1      -1.625  -3.052   3.545  0.00  0.00    +0.136 C 
ATOM     10  C   UNL     1      -2.585  -2.921   4.732  0.00  0.00    +0.133 C 
ATOM     11  O   UNL     1      -2.952  -1.549   4.893  0.00  0.00    -0.368 OA
ATOM     12  C   UNL     1      -1.857  -0.682   5.200  0.00  0.00    +0.080 C 
ATOM     13  C   UNL     1      -0.859  -0.699   4.042  0.00  0.00    +0.139 C 
ATOM     14  C   UNL     1      -1.163  -1.168   6.474  0.00  0.00    +0.043 C 
ATOM     15  C   UNL     1      -2.376   0.742   5.409  0.00  0.00    +0.043 C 
ATOM     16  C   UNL     1      -3.838  -3.759   4.470  0.00  0.00    +0.039 C 
ENDBRANCH   6   8
BRANCH   1  17
ATOM     17  C   UNL     1       0.733  -1.960   1.184  0.00  0.00    -0.045 C 
BRANCH  17  18
ATOM     18  N   UNL     1       0.713  -0.491   1.192  0.00  0.00    +0.382 N 
ATOM     19  H   UNL     1       1.659  -0.141   1.185  0.00  0.00    -0.085 HD
ATOM     20  H   UNL     1       0.240  -0.165   2.022  0.00  0.00    -0.085 HD
BRANCH  18  22
ATOM     21  C   UNL     1      -0.019   1.526   0.010  0.00  0.00    -0.017 C 
ATOM     22  C   UNL     1       0.002  -0.004   0.002  0.00  0.00    -0.086 C 
ENDBRANCH  18  22
ENDBRANCH  17  18
ENDBRANCH   1  17
TORSDOF 4
