REMARK  Name = ZINC06296660
REMARK  8 active torsions:
REMARK  status: ('A' for Active; 'I' for Inactive)
REMARK    1  A    between atoms: C_1  and  C_2
REMARK    2  A    between atoms: C_2  and  C_4
REMARK    3  A    between atoms: C_7  and  N_10
REMARK    4  A    between atoms: C_11  and  C_13
REMARK    5  A    between atoms: C_13  and  S_14
REMARK    6  A    between atoms: S_14  and  C_15
REMARK    7  A    between atoms: C_18  and  C_21
REMARK    8  A    between atoms: C_24  and  N_27
REMARK                            x       y       z     vdW  Elec       q    Type
REMARK                         _______ _______ _______ _____ _____    ______ ____
ROOT
ATOM      1  S   UNL     1       0.361  -6.652  -5.890  0.00  0.00    -0.077 S 
ENDROOT
BRANCH   1   2
ATOM      2  C   UNL     1       0.482  -7.364  -7.498  0.00  0.00    +0.185 A 
ATOM      3  N   UNL     1       0.469  -6.706  -8.637  0.00  0.00    -0.201 NA
ATOM      4  H   UNL     1       0.652  -9.407  -7.135  0.00  0.00    +0.191 HD
ATOM      5  C   UNL     1       0.582  -7.569  -9.657  0.00  0.00    +0.182 A 
ATOM      6  N   UNL     1       0.667  -8.789  -9.175  0.00  0.00    -0.152 NA
ATOM      7  N   UNL     1       0.610  -8.680  -7.776  0.00  0.00    -0.253 N 
BRANCH   5   8
ATOM      8  C   UNL     1       0.605  -7.207 -11.095  0.00  0.00    +0.021 A 
ATOM      9  C   UNL     1       0.511  -5.871 -11.482  0.00  0.00    +0.014 A 
ATOM     10  C   UNL     1       0.533  -5.540 -12.821  0.00  0.00    +0.033 A 
ATOM     11  C   UNL     1       0.649  -6.530 -13.780  0.00  0.00    +0.126 A 
ATOM     12  C   UNL     1       0.742  -7.857 -13.402  0.00  0.00    +0.033 A 
ATOM     13  C   UNL     1       0.726  -8.200 -12.065  0.00  0.00    +0.014 A 
BRANCH  11  14
ATOM     14  N   UNL     1       0.672  -6.168 -15.215  0.00  0.00    +0.056 N 
ATOM     15  O   UNL     1       0.590  -5.009 -15.547  0.00  0.00    -0.126 OA
ATOM     16  O   UNL     1       0.773  -7.032 -16.054  0.00  0.00    -0.126 OA
ENDBRANCH  11  14
ENDBRANCH   5   8
ENDBRANCH   1   2
BRANCH   1  17
ATOM     17  C   UNL     1       0.222  -4.872  -6.208  0.00  0.00    +0.173 C 
BRANCH  17  19
ATOM     18  N   UNL     1      -0.005  -2.792  -4.888  0.00  0.00    -0.285 N 
ATOM     19  C   UNL     1       0.110  -4.135  -4.898  0.00  0.00    +0.227 C 
ATOM     20  O   UNL     1       0.123  -4.750  -3.853  0.00  0.00    -0.275 OA
ATOM     21  H   UNL     1      -0.093  -2.306  -5.723  0.00  0.00    +0.155 HD
BRANCH  18  25
ATOM     22  C   UNL     1       0.017  -0.730  -1.275  0.00  0.00    +0.017 A 
ATOM     23  C   UNL     1       0.783  -1.893  -1.424  0.00  0.00    +0.013 A 
ATOM     24  C   UNL     1       0.772  -2.569  -2.617  0.00  0.00    +0.024 A 
ATOM     25  C   UNL     1       0.003  -2.101  -3.678  0.00  0.00    +0.033 A 
ATOM     26  C   UNL     1      -0.760  -0.945  -3.534  0.00  0.00    +0.024 A 
ATOM     27  C   UNL     1      -0.760  -0.266  -2.343  0.00  0.00    +0.013 A 
BRANCH  22  29
ATOM     28  C   UNL     1       0.862  -0.504   1.149  0.00  0.00    +0.091 C 
ATOM     29  C   UNL     1       0.025  -0.002   0.001  0.00  0.00    +0.160 C 
ATOM     30  O   UNL     1      -0.643   1.002   0.130  0.00  0.00    -0.292 OA
ENDBRANCH  22  29
ENDBRANCH  18  25
ENDBRANCH  17  19
ENDBRANCH   1  17
TORSDOF 7
