REMARK  Name = ZINC16852965
REMARK  9 active torsions:
REMARK  status: ('A' for Active; 'I' for Inactive)
REMARK    1  A    between atoms: C_1  and  C_2
REMARK    2  A    between atoms: C_3  and  C_16
REMARK    3  A    between atoms: C_8  and  C_10
REMARK    4  A    between atoms: C_16  and  C_17
REMARK    5  A    between atoms: C_17  and  C_19
REMARK    6  A    between atoms: C_17  and  C_20
REMARK    7  A    between atoms: N_22  and  N_23
REMARK    8  A    between atoms: C_24  and  C_25
REMARK    9  A    between atoms: C_30  and  O_31
REMARK                            x       y       z     vdW  Elec       q    Type
REMARK                         _______ _______ _______ _____ _____    ______ ____
ROOT
ATOM      1  C   UNL     1       3.237   5.736   1.287  0.00  0.00    +0.055 C 
ENDROOT
BRANCH   1   4
ATOM      2  C   UNL     1       3.612   6.826   3.928  0.00  0.00    +0.066 C 
ATOM      3  C   UNL     1       3.549   7.743   2.734  0.00  0.00    +0.049 A 
ATOM      4  C   UNL     1       3.372   7.224   1.486  0.00  0.00    +0.039 A 
ATOM      5  C   UNL     1       3.311   8.102   0.386  0.00  0.00    +0.255 A 
ATOM      6  O   UNL     1       3.148   7.673  -0.745  0.00  0.00    -0.268 OA
ATOM      7  N   UNL     1       3.436   9.428   0.607  0.00  0.00    -0.307 N 
ATOM      8  H   UNL     1       3.397  10.052  -0.135  0.00  0.00    +0.170 HD
ATOM      9  C   UNL     1       3.616   9.887   1.878  0.00  0.00    +0.141 A 
ATOM     10  N   UNL     1       3.672   9.059   2.900  0.00  0.00    -0.234 NA
BRANCH   9  11
ATOM     11  C   UNL     1       3.752  11.339   2.112  0.00  0.00    +0.017 A 
ATOM     12  C   UNL     1       3.701  12.231   1.039  0.00  0.00    +0.011 A 
ATOM     13  C   UNL     1       3.824  13.586   1.266  0.00  0.00    +0.001 A 
ATOM     14  C   UNL     1       4.008  14.062   2.552  0.00  0.00    +0.000 A 
ATOM     15  C   UNL     1       4.065  13.183   3.619  0.00  0.00    +0.001 A 
ATOM     16  C   UNL     1       3.938  11.826   3.408  0.00  0.00    +0.011 A 
ENDBRANCH   9  11
ENDBRANCH   1   4
BRANCH   1  17
ATOM     17  C   UNL     1       1.755   5.357   1.261  0.00  0.00    +0.078 C 
ATOM     18  C   UNL     1       1.088   5.991   0.038  0.00  0.00    +0.017 C 
BRANCH  17  19
ATOM     19  C   UNL     1       1.621   3.858   1.185  0.00  0.00    +0.235 C 
ATOM     20  O   UNL     1       2.602   3.170   0.997  0.00  0.00    -0.274 OA
ATOM     21  N   UNL     1       0.410   3.282   1.327  0.00  0.00    -0.207 N 
ATOM     22  H   UNL     1      -0.361   3.824   1.555  0.00  0.00    +0.177 HD
BRANCH  21  23
ATOM     23  N   UNL     1       0.267   1.901   1.145  0.00  0.00    -0.188 NA
ATOM     24  C   UNL     1      -0.914   1.362   1.165  0.00  0.00    +0.142 C 
BRANCH  24  25
ATOM     25  C   UNL     1      -2.114   2.218   1.138  0.00  0.00    +0.036 A 
ATOM     26  C   UNL     1      -2.058   3.489   0.562  0.00  0.00    +0.013 A 
ATOM     27  C   UNL     1      -3.185   4.282   0.535  0.00  0.00    +0.001 A 
ATOM     28  C   UNL     1      -4.372   3.828   1.086  0.00  0.00    +0.004 A 
ATOM     29  C   UNL     1      -4.439   2.574   1.663  0.00  0.00    +0.046 A 
ATOM     30  C   UNL     1      -3.317   1.762   1.694  0.00  0.00    +0.125 A 
BRANCH  30  31
ATOM     31  O   UNL     1      -3.382   0.530   2.262  0.00  0.00    -0.506 OA
ATOM     32  H   UNL     1      -3.247   0.530   3.219  0.00  0.00    +0.292 HD
ENDBRANCH  30  31
ENDBRANCH  24  25
ENDBRANCH  21  23
ENDBRANCH  17  19
ENDBRANCH   1  17
TORSDOF 7
