REMARK  Name = ZINC19782407
REMARK  7 active torsions:
REMARK  status: ('A' for Active; 'I' for Inactive)
REMARK    1  A    between atoms: C_3  and  S_25
REMARK    2  A    between atoms: C_6  and  C_7
REMARK    3  A    between atoms: C_7  and  C_8
REMARK    4  A    between atoms: C_8  and  N_9
REMARK    5  A    between atoms: N_9  and  C_10
REMARK    6  A    between atoms: N_15  and  C_18
REMARK    7  A    between atoms: S_25  and  N_28
REMARK                            x       y       z     vdW  Elec       q    Type
REMARK                         _______ _______ _______ _____ _____    ______ ____
ROOT
ATOM      1  N   UNL     1      -0.051   0.963   0.047  0.00  0.00    +0.387 N 
ATOM      2  H   UNL     1      -0.040  -0.135  -0.025  0.00  0.00    -0.085 HD
ATOM      3  H   UNL     1      -0.565   1.265   0.971  0.00  0.00    -0.085 HD
ENDROOT
BRANCH   1   4
ATOM      4  C   UNL     1      -0.791   1.503  -1.102  0.00  0.00    +0.026 C 
ATOM      5  C   UNL     1      -2.310   1.464  -0.836  0.00  0.00    +0.090 C 
ATOM      6  C   UNL     1      -2.837   0.554  -1.924  0.00  0.00    +0.225 C 
ATOM      7  O   UNL     1      -4.000   0.250  -2.083  0.00  0.00    -0.275 OA
ATOM      8  N   UNL     1      -1.816   0.140  -2.684  0.00  0.00    -0.212 N 
ATOM      9  C   UNL     1      -0.617   0.614  -2.314  0.00  0.00    +0.213 C 
ATOM     10  O   UNL     1       0.438   0.370  -2.860  0.00  0.00    -0.277 OA
BRANCH   8  11
ATOM     11  C   UNL     1      -1.986  -0.719  -3.781  0.00  0.00    +0.044 A 
ATOM     12  C   UNL     1      -2.383  -2.034  -3.579  0.00  0.00    +0.027 A 
ATOM     13  C   UNL     1      -2.556  -2.876  -4.660  0.00  0.00    +0.040 A 
ATOM     14  C   UNL     1      -2.321  -2.413  -5.944  0.00  0.00    +0.124 A 
ATOM     15  C   UNL     1      -1.920  -1.103  -6.147  0.00  0.00    +0.040 A 
ATOM     16  C   UNL     1      -1.752  -0.256  -5.069  0.00  0.00    +0.027 A 
ATOM     17  F   UNL     1      -2.486  -3.239  -7.000  0.00  0.00    -0.205 F 
ENDBRANCH   8  11
ENDBRANCH   1   4
BRANCH   1  18
ATOM     18  C   UNL     1       1.329   1.466   0.067  0.00  0.00    -0.077 C 
BRANCH  18  19
ATOM     19  C   UNL     1       2.066   0.882   1.274  0.00  0.00    +0.016 C 
BRANCH  19  25
ATOM     20  C   UNL     1       4.482   0.699   0.646  0.00  0.00    +0.005 A 
ATOM     21  C   UNL     1       5.780   1.175   0.661  0.00  0.00    +0.029 A 
ATOM     22  C   UNL     1       6.080   2.344   1.335  0.00  0.00    +0.105 A 
ATOM     23  C   UNL     1       5.081   3.041   1.989  0.00  0.00    +0.029 A 
ATOM     24  C   UNL     1       3.782   2.568   1.969  0.00  0.00    +0.005 A 
ATOM     25  C   UNL     1       3.482   1.398   1.295  0.00  0.00    -0.049 A 
BRANCH  22  26
ATOM     26  S   UNL     1       7.735   2.947   1.360  0.00  0.00    +0.056 S 
ATOM     27  O   UNL     1       8.383   2.405   0.217  0.00  0.00    -0.153 OA
ATOM     28  O   UNL     1       7.655   4.345   1.599  0.00  0.00    -0.153 OA
BRANCH  26  29
ATOM     29  N   UNL     1       8.478   2.283   2.683  0.00  0.00    -0.204 NA
ATOM     30  H   UNL     1       9.518   2.636   2.735  0.00  0.00    +0.144 HD
ATOM     31  H   UNL     1       8.466   1.186   2.598  0.00  0.00    +0.144 HD
ENDBRANCH  26  29
ENDBRANCH  22  26
ENDBRANCH  19  25
ENDBRANCH  18  19
ENDBRANCH   1  18
TORSDOF 7
