REMARK  Name = ZINC44767250
REMARK  7 active torsions:
REMARK  status: ('A' for Active; 'I' for Inactive)
REMARK    1  A    between atoms: C_1  and  C_2
REMARK    2  A    between atoms: C_2  and  C_3
REMARK    3  A    between atoms: C_3  and  C_4
REMARK    4  A    between atoms: C_3  and  C_6
REMARK    5  A    between atoms: C_3  and  C_8
REMARK    6  A    between atoms: C_4  and  C_5
REMARK    7  A    between atoms: C_18  and  C_20
REMARK                            x       y       z     vdW  Elec       q    Type
REMARK                         _______ _______ _______ _____ _____    ______ ____
ROOT
ATOM      1  C   UNL     1      -2.100  -0.151   1.309  0.00  0.00    +0.236 C 
ATOM      2  O   UNL     1      -3.148   0.459   1.295  0.00  0.00    -0.274 OA
ATOM      3  N   UNL     1      -1.533  -0.489   2.484  0.00  0.00    -0.293 N 
ATOM      4  C   UNL     1      -0.209  -1.129   2.516  0.00  0.00    +0.113 C 
ATOM      5  C   UNL     1       0.771  -0.173   3.213  0.00  0.00    +0.061 C 
ATOM      6  C   UNL     1       0.101   0.408   4.416  0.00  0.00    -0.004 A 
ATOM      7  C   UNL     1      -1.228   0.422   4.707  0.00  0.00    -0.017 A 
ATOM      8  C   UNL     1      -1.601   1.040   5.899  0.00  0.00    +0.013 A 
ATOM      9  C   UNL     1      -0.659   1.583   6.704  0.00  0.00    +0.046 A 
ATOM     10  S   UNL     1       0.841   1.241   5.795  0.00  0.00    -0.101 S 
ATOM     11  C   UNL     1      -2.226  -0.219   3.751  0.00  0.00    +0.104 C 
ATOM     12  C   UNL     1      -2.743  -1.529   4.349  0.00  0.00    +0.033 C 
ENDROOT
BRANCH   1  13
ATOM     13  C   UNL     1      -1.431  -0.531   0.013  0.00  0.00    +0.133 C 
BRANCH  13  15
ATOM     14  C   UNL     1      -0.379   1.734  -0.079  0.00  0.00    +0.006 C 
ATOM     15  C   UNL     1      -0.110   0.228  -0.120  0.00  0.00    +0.028 C 
ENDBRANCH  13  15
BRANCH  13  16
ATOM     16  C   UNL     1      -2.347  -0.169  -1.158  0.00  0.00    +0.028 C 
ATOM     17  C   UNL     1      -1.669  -0.554  -2.474  0.00  0.00    +0.006 C 
ENDBRANCH  13  16
BRANCH  13  18
ATOM     18  C   UNL     1      -1.169  -1.979   0.002  0.00  0.00    +0.079 C 
ATOM     19  N   UNL     1      -0.967  -3.097  -0.007  0.00  0.00    -0.195 NA
ENDBRANCH  13  18
ENDBRANCH   1  13
TORSDOF 4
