REMARK  Name = ZINC21024427
REMARK  9 active torsions:
REMARK  status: ('A' for Active; 'I' for Inactive)
REMARK    1  A    between atoms: C_1  and  C_2
REMARK    2  A    between atoms: C_3  and  C_19
REMARK    3  A    between atoms: C_4  and  C_16
REMARK    4  A    between atoms: C_5  and  C_15
REMARK    5  A    between atoms: N_6  and  C_7
REMARK    6  A    between atoms: C_7  and  C_8
REMARK    7  A    between atoms: C_19  and  N_20
REMARK    8  A    between atoms: N_20  and  C_21
REMARK    9  A    between atoms: C_21  and  C_22
REMARK                            x       y       z     vdW  Elec       q    Type
REMARK                         _______ _______ _______ _____ _____    ______ ____
ROOT
ATOM      1  C   UNL     1       1.629   2.101   2.537  0.00  0.00    +0.064 C 
ATOM      2  C   UNL     1       2.095   2.279   1.115  0.00  0.00    +0.018 A 
ATOM      3  C   UNL     1       3.308   2.723   0.741  0.00  0.00    -0.030 A 
ATOM      4  C   UNL     1       3.309   2.737  -0.726  0.00  0.00    +0.085 A 
ATOM      5  C   UNL     1       2.066   2.282  -1.111  0.00  0.00    +0.031 A 
ATOM      6  N   UNL     1       1.356   2.010  -0.000  0.00  0.00    -0.343 N 
ATOM      7  C   UNL     1       1.586   2.117  -2.530  0.00  0.00    +0.064 C 
ENDROOT
BRANCH   4   8
ATOM      8  C   UNL     1       4.412   3.151  -1.607  0.00  0.00    +0.388 C 
ATOM      9  O   UNL     1       4.504   4.310  -1.962  0.00  0.00    -0.241 OA
ATOM     10  O   UNL     1       5.321   2.246  -2.021  0.00  0.00    -0.241 OA
ENDBRANCH   4   8
BRANCH   6  11
ATOM     11  C   UNL     1      -0.018   1.503   0.010  0.00  0.00    +0.157 C 
BRANCH  11  12
ATOM     12  C   UNL     1       0.002  -0.004   0.002  0.00  0.00    -0.026 A 
ATOM     13  C   UNL     1      -0.006  -0.689  -1.199  0.00  0.00    +0.005 A 
ATOM     14  C   UNL     1       0.018  -2.071  -1.208  0.00  0.00    +0.002 A 
ATOM     15  C   UNL     1       0.039  -2.769  -0.015  0.00  0.00    +0.020 A 
ATOM     16  C   UNL     1       0.041  -2.085   1.187  0.00  0.00    +0.041 A 
ATOM     17  C   UNL     1       0.023  -0.701   1.195  0.00  0.00    +0.025 A 
ATOM     18 CL   UNL     1       0.067  -2.961   2.686  0.00  0.00    -0.084 Cl
ENDBRANCH  11  12
ENDBRANCH   6  11
BRANCH   3  19
ATOM     19  C   UNL     1       4.439   3.132   1.649  0.00  0.00    -0.044 C 
BRANCH  19  20
ATOM     20  N   UNL     1       4.328   4.564   1.956  0.00  0.00    +0.384 N 
ATOM     21  H   UNL     1       4.379   5.144   1.022  0.00  0.00    -0.085 HD
ATOM     22  H   UNL     1       3.367   4.758   2.456  0.00  0.00    -0.085 HD
BRANCH  20  23
ATOM     23  C   UNL     1       5.416   4.999   2.841  0.00  0.00    -0.045 C 
BRANCH  23  24
ATOM     24  C   UNL     1       5.269   6.470   3.133  0.00  0.00    -0.046 A 
ATOM     25  C   UNL     1       6.040   7.391   2.449  0.00  0.00    +0.003 A 
ATOM     26  C   UNL     1       5.902   8.741   2.713  0.00  0.00    +0.000 A 
ATOM     27  C   UNL     1       5.000   9.170   3.669  0.00  0.00    +0.001 A 
ATOM     28  C   UNL     1       4.232   8.249   4.357  0.00  0.00    +0.020 A 
ATOM     29  C   UNL     1       4.366   6.899   4.090  0.00  0.00    +0.042 A 
ATOM     30 CL   UNL     1       3.403   5.742   4.954  0.00  0.00    -0.083 Cl
ENDBRANCH  23  24
ENDBRANCH  20  23
ENDBRANCH  19  20
ENDBRANCH   3  19
TORSDOF 7
