REMARK  Name = ZINC04915555
REMARK  4 active torsions:
REMARK  status: ('A' for Active; 'I' for Inactive)
REMARK    1  A    between atoms: C_4  and  N_7
REMARK    2  A    between atoms: N_7  and  C_8
REMARK    3  A    between atoms: N_18  and  C_19
REMARK    4  A    between atoms: C_19  and  C_20
REMARK                            x       y       z     vdW  Elec       q    Type
REMARK                         _______ _______ _______ _____ _____    ______ ____
ROOT
ATOM      1  C   UNL     1       3.645  -2.110   0.066  0.00  0.00    +0.194 C 
ATOM      2  C   UNL     1       4.727  -2.674  -0.821  0.00  0.00    +0.003 A 
ATOM      3  C   UNL     1       4.951  -2.630  -2.178  0.00  0.00    +0.008 A 
ATOM      4  C   UNL     1       6.061  -3.259  -2.716  0.00  0.00    +0.000 A 
ATOM      5  C   UNL     1       6.946  -3.932  -1.893  0.00  0.00    +0.001 A 
ATOM      6  C   UNL     1       6.731  -3.982  -0.531  0.00  0.00    +0.013 A 
ATOM      7  C   UNL     1       5.614  -3.351   0.019  0.00  0.00    +0.043 A 
ATOM      8  C   UNL     1       5.122  -3.230   1.405  0.00  0.00    +0.249 C 
ATOM      9  O   UNL     1       5.668  -3.709   2.380  0.00  0.00    -0.270 OA
ATOM     10  N   UNL     1       3.983  -2.514   1.436  0.00  0.00    -0.271 N 
ENDROOT
BRANCH   1  11
ATOM     11  N   UNL     1       3.620  -0.649  -0.036  0.00  0.00    -0.322 N 
ATOM     12  H   UNL     1       4.451  -0.150  -0.051  0.00  0.00    +0.148 HD
BRANCH  11  16
ATOM     13  C   UNL     1      -0.021   1.359  -0.264  0.00  0.00    +0.000 A 
ATOM     14  C   UNL     1       1.157   2.076  -0.151  0.00  0.00    +0.002 A 
ATOM     15  C   UNL     1       2.366   1.413  -0.075  0.00  0.00    +0.023 A 
ATOM     16  C   UNL     1       2.398   0.025  -0.112  0.00  0.00    +0.029 A 
ATOM     17  C   UNL     1       1.214  -0.692  -0.226  0.00  0.00    +0.023 A 
ATOM     18  C   UNL     1       0.008  -0.023  -0.302  0.00  0.00    +0.002 A 
ENDBRANCH  11  16
ENDBRANCH   1  11
BRANCH  10  19
ATOM     19  C   UNL     1       3.210  -2.190   2.637  0.00  0.00    +0.145 C 
BRANCH  19  20
ATOM     20  C   UNL     1       2.189  -3.271   2.884  0.00  0.00    -0.026 A 
ATOM     21  C   UNL     1       0.931  -3.174   2.320  0.00  0.00    +0.009 A 
ATOM     22  C   UNL     1      -0.008  -4.163   2.544  0.00  0.00    +0.050 A 
ATOM     23  C   UNL     1       0.310  -5.256   3.334  0.00  0.00    +0.166 A 
ATOM     24  C   UNL     1       1.578  -5.354   3.902  0.00  0.00    +0.167 A 
ATOM     25  C   UNL     1       2.516  -4.361   3.669  0.00  0.00    +0.054 A 
ATOM     26  O   UNL     1       1.643  -6.508   4.628  0.00  0.00    -0.453 OA
ATOM     27  C   UNL     1       0.276  -6.910   4.833  0.00  0.00    +0.466 C 
ATOM     28  O   UNL     1      -0.419  -6.349   3.704  0.00  0.00    -0.453 OA
ENDBRANCH  19  20
ENDBRANCH  10  19
TORSDOF 4
