REMARK  Name = ZINC19808710
REMARK  7 active torsions:
REMARK  status: ('A' for Active; 'I' for Inactive)
REMARK    1  A    between atoms: C_1  and  C_2
REMARK    2  A    between atoms: C_2  and  C_28
REMARK    3  A    between atoms: C_9  and  C_20
REMARK    4  A    between atoms: C_15  and  C_18
REMARK    5  A    between atoms: C_15  and  C_19
REMARK    6  A    between atoms: C_23  and  O_26
REMARK    7  A    between atoms: O_26  and  C_27
REMARK                            x       y       z     vdW  Elec       q    Type
REMARK                         _______ _______ _______ _____ _____    ______ ____
ROOT
ATOM      1  C   UNL     1      -2.104  -2.660   1.590  0.00  0.00    +0.019 C 
ATOM      2  C   UNL     1      -1.194  -2.195   0.451  0.00  0.00    +0.028 C 
ATOM      3  C   UNL     1       0.224  -2.731   0.676  0.00  0.00    +0.020 C 
ATOM      4  C   UNL     1       1.133  -2.180  -0.425  0.00  0.00    +0.052 C 
ATOM      5  C   UNL     1       1.104  -0.673  -0.399  0.00  0.00    +0.015 C 
ATOM      6  C   UNL     1       0.002  -0.004   0.002  0.00  0.00    +0.024 C 
ATOM      7  C   UNL     1      -1.150  -0.691   0.423  0.00  0.00    +0.167 C 
ATOM      8  O   UNL     1      -2.129  -0.059   0.770  0.00  0.00    -0.292 OA
ATOM      9  C   UNL     1      -0.018   1.502   0.010  0.00  0.00    +0.089 C 
ATOM     10  C   UNL     1       1.378   2.067   0.000  0.00  0.00    +0.024 C 
ATOM     11  C   UNL     1       2.422   1.308  -0.392  0.00  0.00    +0.015 C 
ATOM     12  N   UNL     1       2.221   0.014  -0.788  0.00  0.00    -0.320 N 
ATOM     13  C   UNL     1       3.826   1.858  -0.400  0.00  0.00    +0.052 C 
ATOM     14  C   UNL     1       3.786   3.364  -0.674  0.00  0.00    +0.020 C 
ATOM     15  C   UNL     1       2.929   4.032   0.406  0.00  0.00    +0.028 C 
ATOM     16  C   UNL     1       1.563   3.400   0.407  0.00  0.00    +0.167 C 
ATOM     17  O   UNL     1       0.604   4.054   0.765  0.00  0.00    -0.292 OA
ATOM     18  C   UNL     1       2.801   5.527   0.107  0.00  0.00    +0.019 C 
ATOM     19  C   UNL     1       3.584   3.835   1.774  0.00  0.00    +0.019 C 
ATOM     20  C   UNL     1      -1.732  -2.716  -0.883  0.00  0.00    +0.019 C 
ATOM     21  H   UNL     1       2.971  -0.474  -1.428  0.00  0.00    +0.152 HD
ENDROOT
BRANCH   9  22
ATOM     22  C   UNL     1      -0.758   1.992  -1.207  0.00  0.00    -0.035 A 
ATOM     23  C   UNL     1      -0.298   1.670  -2.471  0.00  0.00    +0.008 A 
ATOM     24  C   UNL     1      -0.978   2.114  -3.589  0.00  0.00    +0.046 A 
ATOM     25  C   UNL     1      -2.117   2.892  -3.443  0.00  0.00    +0.120 A 
ATOM     26  C   UNL     1      -2.574   3.219  -2.174  0.00  0.00    +0.046 A 
ATOM     27  C   UNL     1      -1.893   2.768  -1.059  0.00  0.00    +0.008 A 
BRANCH  25  28
ATOM     28  O   UNL     1      -2.784   3.334  -4.541  0.00  0.00    -0.495 OA
ATOM     29  C   UNL     1      -2.257   2.960  -5.815  0.00  0.00    +0.277 C 
ENDBRANCH  25  28
ENDBRANCH   9  22
TORSDOF 2
