REMARK  Name = ZINC40146932
REMARK  13 active torsions:
REMARK  status: ('A' for Active; 'I' for Inactive)
REMARK    1  A    between atoms: C_1  and  C_2
REMARK    2  A    between atoms: C_5  and  S_8
REMARK    3  A    between atoms: S_8  and  N_11
REMARK    4  A    between atoms: N_11  and  C_12
REMARK    5  A    between atoms: C_12  and  C_14
REMARK    6  A    between atoms: C_12  and  C_15
REMARK    7  A    between atoms: N_17  and  C_18
REMARK    8  A    between atoms: C_18  and  C_20
REMARK    9  A    between atoms: C_18  and  C_31
REMARK   10  A    between atoms: C_20  and  N_21
REMARK   11  A    between atoms: C_31  and  C_32
REMARK   12  A    between atoms: C_31  and  C_33
REMARK   13  A    between atoms: C_31  and  C_34
REMARK                            x       y       z     vdW  Elec       q    Type
REMARK                         _______ _______ _______ _____ _____    ______ ____
ROOT
ATOM      1  C   UNL     1       3.494  -5.825   1.312  0.00  0.00    +0.232 C 
ATOM      2  O   UNL     1       3.476  -6.784   0.570  0.00  0.00    -0.274 OA
ATOM      3  N   UNL     1       4.391  -5.766   2.316  0.00  0.00    -0.312 N 
ATOM      4  H   UNL     1       4.405  -4.999   2.910  0.00  0.00    +0.149 HD
ENDROOT
BRANCH   1   5
ATOM      5  C   UNL     1       2.512  -4.699   1.113  0.00  0.00    +0.159 C 
ATOM      6  C   UNL     1       3.273  -3.398   0.851  0.00  0.00    +0.035 C 
BRANCH   5   7
ATOM      7  N   UNL     1       1.651  -4.999  -0.034  0.00  0.00    -0.178 NA
ATOM      8  H   UNL     1       2.011  -5.473  -0.800  0.00  0.00    +0.149 HD
BRANCH   7   9
ATOM      9  S   UNL     1       0.063  -4.530  -0.023  0.00  0.00    +0.059 S 
ATOM     10  O   UNL     1      -0.476  -4.950   1.223  0.00  0.00    -0.153 OA
ATOM     11  O   UNL     1      -0.490  -4.937  -1.267  0.00  0.00    -0.153 OA
BRANCH   9  16
ATOM     12  C   UNL     1      -0.018   1.503   0.010  0.00  0.00    +0.044 C 
ATOM     13  C   UNL     1       0.002  -0.004   0.002  0.00  0.00    -0.050 A 
ATOM     14  C   UNL     1       0.006  -0.689  -1.199  0.00  0.00    +0.005 A 
ATOM     15  C   UNL     1       0.025  -2.071  -1.206  0.00  0.00    +0.029 A 
ATOM     16  C   UNL     1       0.040  -2.768  -0.013  0.00  0.00    +0.105 A 
ATOM     17  C   UNL     1       0.037  -2.084   1.188  0.00  0.00    +0.029 A 
ATOM     18  C   UNL     1       0.023  -0.702   1.195  0.00  0.00    +0.005 A 
ENDBRANCH   9  16
ENDBRANCH   7   9
ENDBRANCH   5   7
ENDBRANCH   1   5
BRANCH   3  19
ATOM     19  C   UNL     1       5.346  -6.860   2.510  0.00  0.00    +0.062 C 
BRANCH  19  20
ATOM     20  C   UNL     1       6.561  -6.643   1.607  0.00  0.00    -0.021 C 
ATOM     21  C   UNL     1       7.230  -5.314   1.962  0.00  0.00    +0.012 C 
ATOM     22  C   UNL     1       7.558  -7.786   1.809  0.00  0.00    +0.012 C 
ATOM     23  C   UNL     1       6.111  -6.612   0.145  0.00  0.00    +0.012 C 
ENDBRANCH  19  20
BRANCH  19  24
ATOM     24  C   UNL     1       5.796  -6.891   3.972  0.00  0.00    -0.055 C 
BRANCH  24  25
ATOM     25  N   UNL     1       4.618  -6.979   4.845  0.00  0.00    +0.384 N 
ATOM     26  C   UNL     1       5.041  -6.900   6.252  0.00  0.00    -0.074 C 
ATOM     27  C   UNL     1       3.802  -6.684   7.122  0.00  0.00    +0.017 C 
ATOM     28  C   UNL     1       2.753  -7.711   6.780  0.00  0.00    -0.048 A 
ATOM     29  C   UNL     1       1.708  -7.915   7.667  0.00  0.00    +0.004 A 
ATOM     30  C   UNL     1       0.727  -8.845   7.386  0.00  0.00    +0.000 A 
ATOM     31  C   UNL     1       0.787  -9.575   6.213  0.00  0.00    +0.000 A 
ATOM     32  C   UNL     1       1.828  -9.373   5.329  0.00  0.00    +0.002 A 
ATOM     33  C   UNL     1       2.816  -8.440   5.611  0.00  0.00    -0.061 A 
ATOM     34  C   UNL     1       3.937  -8.258   4.623  0.00  0.00    -0.043 C 
ATOM     35  H   UNL     1       3.986  -6.220   4.638  0.00  0.00    -0.081 HD
ENDBRANCH  24  25
ENDBRANCH  19  24
ENDBRANCH   3  19
TORSDOF 8
