REMARK  Name = ZINC09439434
REMARK  7 active torsions:
REMARK  status: ('A' for Active; 'I' for Inactive)
REMARK    1  A    between atoms: C_1  and  C_2
REMARK    2  A    between atoms: C_8  and  N_10
REMARK    3  A    between atoms: N_10  and  S_11
REMARK    4  A    between atoms: S_11  and  C_14
REMARK    5  A    between atoms: C_18  and  C_20
REMARK    6  A    between atoms: N_22  and  C_23
REMARK    7  A    between atoms: C_28  and  C_29
REMARK                            x       y       z     vdW  Elec       q    Type
REMARK                         _______ _______ _______ _____ _____    ______ ____
ROOT
ATOM      1  C   UNL     1       3.038   1.003  -4.442  0.00  0.00    +0.106 A 
ATOM      2  C   UNL     1       2.364   0.213  -5.357  0.00  0.00    +0.031 A 
ATOM      3  C   UNL     1       2.943  -0.945  -5.840  0.00  0.00    +0.041 A 
ATOM      4  C   UNL     1       4.203  -1.322  -5.410  0.00  0.00    +0.136 A 
ATOM      5  C   UNL     1       4.888  -0.528  -4.485  0.00  0.00    +0.074 A 
ATOM      6  C   UNL     1       4.296   0.643  -4.008  0.00  0.00    +0.044 A 
ATOM      7  F   UNL     1       4.769  -2.455  -5.882  0.00  0.00    -0.205 F 
ENDROOT
BRANCH   5   8
ATOM      8  C   UNL     1       6.233  -0.923  -4.021  0.00  0.00    +0.251 C 
ATOM      9  O   UNL     1       6.747  -1.940  -4.442  0.00  0.00    -0.270 OA
ATOM     10  N   UNL     1       6.890  -0.155  -3.129  0.00  0.00    -0.281 N 
ATOM     11  H   UNL     1       6.508   0.690  -2.842  0.00  0.00    +0.155 HD
BRANCH  10  12
ATOM     12  C   UNL     1       8.122  -0.576  -2.617  0.00  0.00    +0.045 A 
ATOM     13  C   UNL     1       9.003  -1.287  -3.421  0.00  0.00    +0.025 A 
ATOM     14  C   UNL     1      10.221  -1.696  -2.915  0.00  0.00    +0.022 A 
ATOM     15  C   UNL     1      10.559  -1.408  -1.604  0.00  0.00    +0.042 A 
ATOM     16  C   UNL     1       9.680  -0.705  -0.799  0.00  0.00    +0.034 A 
ATOM     17  C   UNL     1       8.463  -0.288  -1.302  0.00  0.00    +0.077 A 
ATOM     18 CL   UNL     1      12.088  -1.931  -0.969  0.00  0.00    -0.084 Cl
BRANCH  17  19
ATOM     19  C   UNL     1       7.507   0.478  -0.425  0.00  0.00    +0.419 C 
ATOM     20  F   UNL     1       8.070   0.643   0.845  0.00  0.00    -0.166 F 
ATOM     21  F   UNL     1       7.257   1.733  -0.991  0.00  0.00    -0.166 F 
ATOM     22  F   UNL     1       6.306  -0.231  -0.314  0.00  0.00    -0.166 F 
ENDBRANCH  17  19
ENDBRANCH  10  12
ENDBRANCH   5   8
BRANCH   1  23
ATOM     23  S   UNL     1       2.288   2.478  -3.835  0.00  0.00    +0.059 S 
ATOM     24  O   UNL     1       1.338   2.882  -4.811  0.00  0.00    -0.153 OA
ATOM     25  O   UNL     1       3.345   3.324  -3.405  0.00  0.00    -0.153 OA
BRANCH  23  26
ATOM     26  N   UNL     1       1.429   2.068  -2.480  0.00  0.00    -0.187 NA
ATOM     27  H   UNL     1       0.462   2.151  -2.475  0.00  0.00    +0.148 HD
BRANCH  26  34
ATOM     28  C   UNL     1       1.391   3.606  -0.026  0.00  0.00    +0.009 C 
ATOM     29  C   UNL     1       1.406   2.076  -0.034  0.00  0.00    +0.005 C 
ATOM     30  C   UNL     1      -0.031   1.552  -0.032  0.00  0.00    +0.005 C 
ATOM     31  C   UNL     1      -0.016   0.022  -0.040  0.00  0.00    +0.000 C 
ATOM     32  C   UNL     1       0.706  -0.474  -1.295  0.00  0.00    +0.002 C 
ATOM     33  C   UNL     1       2.143   0.050  -1.297  0.00  0.00    +0.020 C 
ATOM     34  C   UNL     1       2.128   1.580  -1.288  0.00  0.00    +0.079 C 
ENDBRANCH  26  34
ENDBRANCH  23  26
ENDBRANCH   1  23
TORSDOF 6
