REMARK  Name = ZINC63525840
REMARK  7 active torsions:
REMARK  status: ('A' for Active; 'I' for Inactive)
REMARK    1  A    between atoms: C_1  and  C_2
REMARK    2  A    between atoms: C_7  and  C_8
REMARK    3  A    between atoms: C_8  and  O_9
REMARK    4  A    between atoms: O_9  and  C_10
REMARK    5  A    between atoms: C_15  and  C_16
REMARK    6  A    between atoms: C_19  and  C_29
REMARK    7  A    between atoms: C_25  and  O_28
REMARK                            x       y       z     vdW  Elec       q    Type
REMARK                         _______ _______ _______ _____ _____    ______ ____
ROOT
ATOM      1  C   UNL     1      -0.633  -1.570   6.689  0.00  0.00    +0.126 A 
ATOM      2  C   UNL     1      -1.014  -0.309   7.122  0.00  0.00    +0.046 A 
ATOM      3  C   UNL     1      -0.547   0.176   8.329  0.00  0.00    +0.004 A 
ATOM      4  C   UNL     1       0.299  -0.595   9.104  0.00  0.00    +0.001 A 
ATOM      5  C   UNL     1       0.681  -1.852   8.674  0.00  0.00    +0.008 A 
ATOM      6  C   UNL     1       0.212  -2.344   7.470  0.00  0.00    +0.011 A 
ENDROOT
BRANCH   6   7
ATOM      7  C   UNL     1       0.624  -3.717   7.005  0.00  0.00    +0.112 C 
ATOM      8  C   UNL     1       1.703  -3.603   5.946  0.00  0.00    +0.018 C 
ATOM      9  C   UNL     1       2.672  -2.724   5.793  0.00  0.00    +0.065 C 
ATOM     10  N   UNL     1       3.455  -3.070   4.740  0.00  0.00    -0.157 NA
ATOM     11  N   UNL     1       3.093  -4.094   4.147  0.00  0.00    -0.156 NA
ATOM     12  C   UNL     1       1.868  -4.576   4.798  0.00  0.00    +0.276 C 
ATOM     13  N   UNL     1       2.027  -5.901   5.370  0.00  0.00    -0.221 NA
ATOM     14  C   UNL     1       1.123  -6.569   5.927  0.00  0.00    +0.195 C 
ATOM     15  C   UNL     1      -0.301  -6.298   6.138  0.00  0.00    +0.165 C 
ATOM     16  S   UNL     1      -0.795  -4.563   6.226  0.00  0.00    -0.139 S 
ATOM     17  C   UNL     1       2.880  -1.509   6.661  0.00  0.00    +0.067 C 
BRANCH  14  18
ATOM     18  O   UNL     1       1.537  -7.754   6.422  0.00  0.00    -0.495 OA
ATOM     19  H   UNL     1       2.477  -7.931   6.281  0.00  0.00    +0.293 HD
ENDBRANCH  14  18
ENDBRANCH   6   7
BRANCH   1  20
ATOM     20  O   UNL     1      -1.091  -2.049   5.502  0.00  0.00    -0.487 OA
BRANCH  20  21
ATOM     21  C   UNL     1      -1.958  -1.198   4.750  0.00  0.00    +0.264 C 
BRANCH  21  28
ATOM     22  C   UNL     1      -3.717   0.126   2.879  0.00  0.00    +0.044 C 
ATOM     23  C   UNL     1      -3.203  -1.259   2.580  0.00  0.00    -0.044 A 
ATOM     24  C   UNL     1      -3.568  -1.893   1.407  0.00  0.00    +0.004 A 
ATOM     25  C   UNL     1      -3.096  -3.163   1.132  0.00  0.00    +0.000 A 
ATOM     26  C   UNL     1      -2.259  -3.799   2.030  0.00  0.00    +0.000 A 
ATOM     27  C   UNL     1      -1.893  -3.164   3.202  0.00  0.00    +0.007 A 
ATOM     28  C   UNL     1      -2.361  -1.892   3.475  0.00  0.00    -0.007 A 
ENDBRANCH  21  28
ENDBRANCH  20  21
ENDBRANCH   1  20
TORSDOF 5
