REMARK  Name = ZINC18200451
REMARK  6 active torsions:
REMARK  status: ('A' for Active; 'I' for Inactive)
REMARK    1  A    between atoms: C_1  and  C_2
REMARK    2  A    between atoms: C_5  and  C_7
REMARK    3  A    between atoms: C_12  and  O_17
REMARK    4  A    between atoms: C_14  and  O_15
REMARK    5  A    between atoms: O_15  and  C_16
REMARK    6  A    between atoms: O_17  and  C_18
REMARK                            x       y       z     vdW  Elec       q    Type
REMARK                         _______ _______ _______ _____ _____    ______ ____
ROOT
ATOM      1  C   UNL     1      -3.672   2.610   3.127  0.00  0.00    +0.125 C 
ATOM      2  C   UNL     1      -4.192   3.781   2.344  0.00  0.00    +0.030 A 
ATOM      3  C   UNL     1      -5.139   3.593   1.346  0.00  0.00    +0.042 A 
ATOM      4  C   UNL     1      -5.613   4.677   0.621  0.00  0.00    +0.069 A 
ATOM      5  C   UNL     1      -5.146   5.953   0.898  0.00  0.00    +0.125 A 
ATOM      6  C   UNL     1      -4.203   6.143   1.897  0.00  0.00    +0.091 A 
ATOM      7  C   UNL     1      -3.727   5.059   2.619  0.00  0.00    +0.129 A 
ATOM      8  N   UNL     1      -5.611   2.308   1.078  0.00  0.00    -0.317 N 
ATOM      9  C   UNL     1      -5.490   1.320   2.013  0.00  0.00    +0.016 C 
ATOM     10  C   UNL     1      -4.588   1.419   3.014  0.00  0.00    +0.027 C 
ATOM     11  C   UNL     1      -4.477   0.412   3.988  0.00  0.00    +0.162 C 
ATOM     12  O   UNL     1      -3.654   0.530   4.875  0.00  0.00    -0.292 OA
ATOM     13  C   UNL     1      -5.356  -0.807   3.956  0.00  0.00    +0.080 C 
ATOM     14  C   UNL     1      -6.686  -0.446   3.287  0.00  0.00    +0.014 C 
ATOM     15  C   UNL     1      -6.390   0.114   1.894  0.00  0.00    +0.051 C 
ATOM     16  H   UNL     1      -6.027   2.115   0.223  0.00  0.00    +0.152 HD
ENDROOT
BRANCH   1  21
ATOM     17  C   UNL     1      -0.013   1.086   0.008  0.00  0.00    +0.086 C 
ATOM     18  C   UNL     1      -0.718   1.572   1.248  0.00  0.00    +0.102 A 
ATOM     19  C   UNL     1      -0.136   1.835   2.432  0.00  0.00    +0.044 A 
ATOM     20  C   UNL     1      -1.162   2.263   3.306  0.00  0.00    +0.046 A 
ATOM     21  C   UNL     1      -2.309   2.234   2.604  0.00  0.00    +0.117 A 
ATOM     22  O   UNL     1      -2.033   1.821   1.357  0.00  0.00    -0.464 OA
ENDBRANCH   1  21
BRANCH   7  23
ATOM     23  O   UNL     1      -2.803   5.249   3.597  0.00  0.00    -0.495 OA
ATOM     24  C   UNL     1      -2.368   6.590   3.827  0.00  0.00    +0.277 C 
ENDBRANCH   7  23
BRANCH   5  25
ATOM     25  O   UNL     1      -5.610   7.016   0.189  0.00  0.00    -0.495 OA
ATOM     26  C   UNL     1      -5.083   8.300   0.527  0.00  0.00    +0.277 C 
ENDBRANCH   5  25
TORSDOF 3
