REMARK  Name = ZINC66929955
REMARK  7 active torsions:
REMARK  status: ('A' for Active; 'I' for Inactive)
REMARK    1  A    between atoms: C_10  and  C_11
REMARK    2  A    between atoms: C_10  and  O_30
REMARK    3  A    between atoms: C_11  and  N_12
REMARK    4  A    between atoms: C_13  and  C_15
REMARK    5  A    between atoms: C_15  and  C_16
REMARK    6  A    between atoms: C_16  and  C_17
REMARK    7  A    between atoms: C_17  and  C_18
REMARK                            x       y       z     vdW  Elec       q    Type
REMARK                         _______ _______ _______ _____ _____    ______ ____
ROOT
ATOM      1  N   UNL     1       4.733   1.477  -0.622  0.00  0.00    -0.312 N 
ATOM      2  C   UNL     1       5.418   2.343  -1.394  0.00  0.00    +0.213 C 
ATOM      3  O   UNL     1       5.983   1.949  -2.393  0.00  0.00    -0.276 OA
ATOM      4  H   UNL     1       4.281   1.792   0.177  0.00  0.00    +0.149 HD
ENDROOT
BRANCH   1   5
ATOM      5  C   UNL     1       4.671   0.060  -0.987  0.00  0.00    +0.143 C 
BRANCH   5  15
ATOM      6  C   UNL     1       3.635  -4.797  -1.159  0.00  0.00    +0.000 A 
ATOM      7  C   UNL     1       3.604  -3.797  -2.113  0.00  0.00    +0.000 A 
ATOM      8  C   UNL     1       3.643  -2.475  -1.720  0.00  0.00    +0.007 A 
ATOM      9  C   UNL     1       3.714  -2.140  -0.374  0.00  0.00    -0.011 A 
ATOM     10  C   UNL     1       3.749  -3.136   0.575  0.00  0.00    -0.041 A 
ATOM     11  C   UNL     1       3.706  -4.467   0.178  0.00  0.00    +0.004 A 
ATOM     12  C   UNL     1       3.843  -2.847   2.051  0.00  0.00    +0.035 C 
ATOM     13  C   UNL     1       3.451  -1.399   2.340  0.00  0.00    +0.008 C 
ATOM     14  C   UNL     1       4.257  -0.485   1.410  0.00  0.00    +0.041 C 
ATOM     15  C   UNL     1       3.746  -0.677  -0.016  0.00  0.00    +0.107 C 
BRANCH  15  16
ATOM     16  O   UNL     1       2.427  -0.138  -0.121  0.00  0.00    -0.382 OA
ATOM     17  H   UNL     1       2.042  -0.209  -1.006  0.00  0.00    +0.211 HD
ENDBRANCH  15  16
ENDBRANCH   5  15
ENDBRANCH   1   5
BRANCH   2  18
ATOM     18  C   UNL     1       5.482   3.801  -1.018  0.00  0.00    +0.096 C 
BRANCH  18  19
ATOM     19  C   UNL     1       6.315   4.559  -2.054  0.00  0.00    +0.014 C 
BRANCH  19  20
ATOM     20  C   UNL     1       6.380   6.039  -1.672  0.00  0.00    +0.035 C 
BRANCH  20  21
ATOM     21  C   UNL     1       7.201   6.785  -2.692  0.00  0.00    -0.045 A 
ATOM     22  C   UNL     1       8.568   6.912  -2.518  0.00  0.00    +0.006 A 
ATOM     23  C   UNL     1       9.329   7.594  -3.447  0.00  0.00    +0.028 A 
ATOM     24  C   UNL     1       8.720   8.154  -4.560  0.00  0.00    +0.067 A 
ATOM     25  C   UNL     1       7.341   8.026  -4.736  0.00  0.00    +0.067 A 
ATOM     26  C   UNL     1       6.586   7.335  -3.800  0.00  0.00    +0.031 A 
ATOM     27  N   UNL     1       7.024   8.680  -5.924  0.00  0.00    -0.306 N 
ATOM     28  H   UNL     1       6.138   8.760  -6.309  0.00  0.00    +0.170 HD
ATOM     29  C   UNL     1       8.159   9.183  -6.447  0.00  0.00    +0.325 A 
ATOM     30  O   UNL     1       8.233   9.813  -7.485  0.00  0.00    -0.247 OA
ATOM     31  N   UNL     1       9.199   8.882  -5.646  0.00  0.00    -0.306 N 
ATOM     32  H   UNL     1      10.124   9.130  -5.801  0.00  0.00    +0.170 HD
ENDBRANCH  20  21
ENDBRANCH  19  20
ENDBRANCH  18  19
ENDBRANCH   2  18
TORSDOF 7
