REMARK  Name = ZINC39899309
REMARK  15 active torsions:
REMARK  status: ('A' for Active; 'I' for Inactive)
REMARK    1  A    between atoms: C_1  and  C_2
REMARK    2  A    between atoms: C_2  and  C_3
REMARK    3  A    between atoms: C_3  and  C_4
REMARK    4  A    between atoms: C_4  and  O_5
REMARK    5  A    between atoms: O_5  and  C_6
REMARK    6  A    between atoms: C_9  and  C_12
REMARK    7  A    between atoms: C_15  and  C_30
REMARK    8  A    between atoms: N_22  and  C_23
REMARK    9  A    between atoms: C_23  and  C_24
REMARK   10  A    between atoms: C_24  and  C_25
REMARK   11  A    between atoms: C_25  and  O_26
REMARK   12  A    between atoms: O_26  and  C_27
REMARK   13  A    between atoms: C_27  and  C_28
REMARK   14  A    between atoms: C_27  and  C_29
REMARK   15  A    between atoms: C_35  and  O_36
REMARK                            x       y       z     vdW  Elec       q    Type
REMARK                         _______ _______ _______ _____ _____    ______ ____
ROOT
ATOM      1  C   UNL     1       1.862  -8.022  -3.129  0.00  0.00    +0.141 C 
ATOM      2  C   UNL     1       3.270  -8.486  -2.876  0.00  0.00    +0.035 A 
ATOM      3  C   UNL     1       4.333  -8.590  -1.973  0.00  0.00    +0.102 A 
ATOM      4  N   UNL     1       5.324  -9.195  -2.598  0.00  0.00    -0.173 NA
ATOM      5  N   UNL     1       4.992  -9.483  -3.806  0.00  0.00    -0.272 N 
ATOM      6  H   UNL     1       5.563  -9.931  -4.450  0.00  0.00    +0.189 HD
ATOM      7  C   UNL     1       3.713  -9.067  -4.049  0.00  0.00    +0.126 A 
ATOM      8  C   UNL     1       2.638  -8.989  -5.044  0.00  0.00    +0.265 C 
ATOM      9  O   UNL     1       2.713  -9.413  -6.181  0.00  0.00    -0.268 OA
ATOM     10  N   UNL     1       1.556  -8.384  -4.519  0.00  0.00    -0.285 N 
ENDROOT
BRANCH   3  11
ATOM     11  C   UNL     1       4.345  -8.108  -0.570  0.00  0.00    +0.045 A 
ATOM     12  C   UNL     1       3.182  -7.601   0.005  0.00  0.00    +0.033 A 
ATOM     13  C   UNL     1       3.197  -7.153   1.311  0.00  0.00    +0.042 A 
ATOM     14  C   UNL     1       4.366  -7.206   2.052  0.00  0.00    +0.023 A 
ATOM     15  C   UNL     1       5.525  -7.707   1.490  0.00  0.00    +0.047 A 
ATOM     16  C   UNL     1       5.521  -8.165   0.183  0.00  0.00    +0.126 A 
ATOM     17 CL   UNL     1       1.747  -6.521   2.027  0.00  0.00    -0.084 Cl
BRANCH  16  18
ATOM     18  O   UNL     1       6.659  -8.664  -0.368  0.00  0.00    -0.506 OA
ATOM     19  H   UNL     1       7.207  -7.999  -0.808  0.00  0.00    +0.292 HD
ENDBRANCH  16  18
ENDBRANCH   3  11
BRANCH   1  23
ATOM     20  C   UNL     1       1.597  -3.787  -2.620  0.00  0.00    +0.121 A 
ATOM     21  C   UNL     1       0.946  -4.635  -1.736  0.00  0.00    +0.046 A 
ATOM     22  C   UNL     1       1.033  -6.004  -1.902  0.00  0.00    +0.009 A 
ATOM     23  C   UNL     1       1.768  -6.528  -2.949  0.00  0.00    -0.022 A 
ATOM     24  C   UNL     1       2.418  -5.685  -3.832  0.00  0.00    +0.009 A 
ATOM     25  C   UNL     1       2.329  -4.316  -3.673  0.00  0.00    +0.046 A 
BRANCH  20  26
ATOM     26  O   UNL     1       1.513  -2.440  -2.458  0.00  0.00    -0.492 OA
BRANCH  26  27
ATOM     27  C   UNL     1       0.742  -1.967  -1.352  0.00  0.00    +0.229 C 
BRANCH  27  28
ATOM     28  C   UNL     1       0.763  -0.437  -1.333  0.00  0.00    +0.041 C 
BRANCH  28  30
ATOM     29  C   UNL     1      -0.042   1.600  -0.131  0.00  0.00    +0.004 C 
ATOM     30  C   UNL     1      -0.063   0.070  -0.149  0.00  0.00    -0.000 C 
ENDBRANCH  28  30
ENDBRANCH  27  28
ENDBRANCH  26  27
ENDBRANCH  20  26
ENDBRANCH   1  23
BRANCH  10  31
ATOM     31  C   UNL     1       0.291  -8.130  -5.213  0.00  0.00    +0.111 C 
BRANCH  31  32
ATOM     32  C   UNL     1       0.351  -6.764  -5.898  0.00  0.00    +0.047 C 
BRANCH  32  33
ATOM     33  C   UNL     1      -0.970  -6.499  -6.624  0.00  0.00    +0.161 C 
BRANCH  33  34
ATOM     34  O   UNL     1      -0.914  -5.222  -7.263  0.00  0.00    -0.377 OA
BRANCH  34  35
ATOM     35  C   UNL     1      -2.105  -4.875  -7.973  0.00  0.00    +0.112 C 
ATOM     36  C   UNL     1      -3.059  -4.132  -7.037  0.00  0.00    +0.037 C 
ATOM     37  C   UNL     1      -1.749  -3.975  -9.158  0.00  0.00    +0.037 C 
ENDBRANCH  34  35
ENDBRANCH  33  34
ENDBRANCH  32  33
ENDBRANCH  31  32
ENDBRANCH  10  31
TORSDOF 12
