REMARK  Name = ZINC63503165
REMARK  7 active torsions:
REMARK  status: ('A' for Active; 'I' for Inactive)
REMARK    1  A    between atoms: C_4  and  O_7
REMARK    2  A    between atoms: O_7  and  C_8
REMARK    3  A    between atoms: N_10  and  C_11
REMARK    4  A    between atoms: C_11  and  C_13
REMARK    5  A    between atoms: C_11  and  C_23
REMARK    6  A    between atoms: C_13  and  C_14
REMARK    7  A    between atoms: N_25  and  C_26
REMARK                            x       y       z     vdW  Elec       q    Type
REMARK                         _______ _______ _______ _____ _____    ______ ____
ROOT
ATOM      1  C   UNL     1       4.686  -4.128   0.352  0.00  0.00    +0.166 C 
ENDROOT
BRANCH   1   4
ATOM      2  C   UNL     1       3.880  -1.842   0.602  0.00  0.00    +0.406 C 
ATOM      3  O   UNL     1       2.758  -2.242   0.361  0.00  0.00    -0.226 OA
ATOM      4  N   UNL     1       4.914  -2.706   0.622  0.00  0.00    -0.269 N 
ATOM      5  H   UNL     1       5.810  -2.387   0.815  0.00  0.00    +0.153 HD
BRANCH   2   6
ATOM      6  O   UNL     1       4.090  -0.535   0.851  0.00  0.00    -0.412 OA
BRANCH   6  10
ATOM      7  C   UNL     1       0.805   1.954   1.036  0.00  0.00    +0.000 A 
ATOM      8  C   UNL     1       1.075   1.089   2.080  0.00  0.00    +0.004 A 
ATOM      9  C   UNL     1       2.174   0.255   2.021  0.00  0.00    +0.046 A 
ATOM     10  C   UNL     1       3.007   0.285   0.911  0.00  0.00    +0.133 A 
ATOM     11  C   UNL     1       2.733   1.153  -0.135  0.00  0.00    +0.046 A 
ATOM     12  C   UNL     1       1.633   1.986  -0.071  0.00  0.00    +0.004 A 
ENDBRANCH   6  10
ENDBRANCH   2   6
ENDBRANCH   1   4
BRANCH   1  13
ATOM     13  C   UNL     1       5.926  -4.728  -0.259  0.00  0.00    +0.238 C 
ATOM     14  O   UNL     1       6.904  -4.037  -0.450  0.00  0.00    -0.273 OA
ATOM     15  N   UNL     1       5.948  -6.034  -0.593  0.00  0.00    -0.284 N 
ATOM     16  H   UNL     1       5.146  -6.572  -0.501  0.00  0.00    +0.155 HD
BRANCH  15  17
ATOM     17  C   UNL     1       7.128  -6.614  -1.072  0.00  0.00    +0.034 A 
ATOM     18  C   UNL     1       7.436  -7.929  -0.753  0.00  0.00    +0.024 A 
ATOM     19  C   UNL     1       8.602  -8.499  -1.228  0.00  0.00    +0.017 A 
ATOM     20  C   UNL     1       9.462  -7.760  -2.020  0.00  0.00    +0.018 A 
ATOM     21  C   UNL     1       9.157  -6.449  -2.340  0.00  0.00    +0.017 A 
ATOM     22  C   UNL     1       7.991  -5.876  -1.873  0.00  0.00    +0.024 A 
ATOM     23 BR   UNL     1      11.056  -8.544  -2.668  0.00  0.00    -0.050 Br
ENDBRANCH  15  17
ENDBRANCH   1  13
BRANCH   1  24
ATOM     24  C   UNL     1       4.361  -4.850   1.661  0.00  0.00    +0.065 C 
BRANCH  24  25
ATOM     25  C   UNL     1       5.492  -4.653   2.637  0.00  0.00    -0.039 C 
ATOM     26  C   UNL     1       5.586  -3.699   3.591  0.00  0.00    -0.001 A 
ATOM     27  C   UNL     1       4.698  -2.601   3.990  0.00  0.00    +0.010 A 
ATOM     28  C   UNL     1       5.072  -1.790   5.006  0.00  0.00    +0.001 A 
ATOM     29  C   UNL     1       6.284  -1.972   5.686  0.00  0.00    +0.002 A 
ATOM     30  C   UNL     1       7.152  -2.959   5.377  0.00  0.00    +0.026 A 
ATOM     31  C   UNL     1       6.860  -3.870   4.326  0.00  0.00    +0.043 A 
ATOM     32  N   UNL     1       7.528  -4.891   3.844  0.00  0.00    -0.380 N 
ATOM     33  C   UNL     1       6.749  -5.486   2.752  0.00  0.00    +0.144 C 
ATOM     34  H   UNL     1       8.391  -5.202   4.159  0.00  0.00    +0.160 HD
ENDBRANCH  24  25
ENDBRANCH   1  24
TORSDOF 7
