REMARK  Name = ZINC09678759
REMARK  7 active torsions:
REMARK  status: ('A' for Active; 'I' for Inactive)
REMARK    1  A    between atoms: C_1  and  C_2
REMARK    2  A    between atoms: C_2  and  C_3
REMARK    3  A    between atoms: C_3  and  O_4
REMARK    4  A    between atoms: O_4  and  C_5
REMARK    5  A    between atoms: C_8  and  C_11
REMARK    6  A    between atoms: C_16  and  C_21
REMARK    7  A    between atoms: C_24  and  C_27
REMARK                            x       y       z     vdW  Elec       q    Type
REMARK                         _______ _______ _______ _____ _____    ______ ____
ROOT
ATOM      1  C   UNL     1       0.492   5.883  -1.290  0.00  0.00    +0.136 C 
ATOM      2  C   UNL     1       1.972   5.786  -1.567  0.00  0.00    +0.036 C 
ATOM      3  C   UNL     1       2.829   4.928  -0.985  0.00  0.00    +0.017 C 
ATOM      4  C   UNL     1       4.305   4.949  -1.343  0.00  0.00    +0.059 C 
ATOM      5  C   UNL     1       4.482   5.360  -2.804  0.00  0.00    +0.032 C 
ATOM      6  C   UNL     1       3.870   6.756  -2.973  0.00  0.00    +0.088 C 
ATOM      7  C   UNL     1       2.436   6.705  -2.537  0.00  0.00    +0.163 C 
ATOM      8  O   UNL     1       1.645   7.481  -3.036  0.00  0.00    -0.292 OA
ATOM      9  N   UNL     1       2.480   4.010  -0.050  0.00  0.00    -0.316 N 
ATOM     10  C   UNL     1       1.379   3.166  -0.135  0.00  0.00    +0.052 A 
ATOM     11  C   UNL     1       1.507   1.789  -0.206  0.00  0.00    +0.025 A 
ATOM     12  C   UNL     1       0.369   1.001  -0.196  0.00  0.00    +0.002 A 
ATOM     13  C   UNL     1      -0.883   1.583  -0.122  0.00  0.00    +0.002 A 
ATOM     14  C   UNL     1      -1.013   2.960  -0.063  0.00  0.00    +0.025 A 
ATOM     15  C   UNL     1       0.123   3.751  -0.090  0.00  0.00    +0.049 A 
ATOM     16  N   UNL     1       0.044   5.143  -0.129  0.00  0.00    -0.331 N 
ATOM     17  H   UNL     1       3.040   3.937   0.739  0.00  0.00    +0.152 HD
ATOM     18  H   UNL     1      -0.317   5.623   0.633  0.00  0.00    +0.147 HD
ENDROOT
BRANCH   5  19
ATOM     19  C   UNL     1       5.948   5.398  -3.150  0.00  0.00    -0.043 A 
ATOM     20  C   UNL     1       6.797   6.249  -2.469  0.00  0.00    +0.004 A 
ATOM     21  C   UNL     1       8.143   6.281  -2.784  0.00  0.00    +0.003 A 
ATOM     22  C   UNL     1       8.638   5.468  -3.786  0.00  0.00    -0.050 A 
ATOM     23  C   UNL     1       7.787   4.620  -4.471  0.00  0.00    +0.003 A 
ATOM     24  C   UNL     1       6.442   4.585  -4.153  0.00  0.00    +0.004 A 
ATOM     25  C   UNL     1      10.104   5.505  -4.131  0.00  0.00    +0.044 C 
ENDBRANCH   5  19
BRANCH   1  29
ATOM     26  C   UNL     1      -1.620   4.436  -4.712  0.00  0.00    +0.121 A 
ATOM     27  C   UNL     1      -1.726   5.769  -4.342  0.00  0.00    +0.046 A 
ATOM     28  C   UNL     1      -1.042   6.234  -3.236  0.00  0.00    +0.009 A 
ATOM     29  C   UNL     1      -0.253   5.372  -2.497  0.00  0.00    -0.023 A 
ATOM     30  C   UNL     1      -0.141   4.045  -2.866  0.00  0.00    +0.009 A 
ATOM     31  C   UNL     1      -0.827   3.573  -3.969  0.00  0.00    +0.046 A 
BRANCH  26  32
ATOM     32  O   UNL     1      -2.292   3.975  -5.800  0.00  0.00    -0.492 OA
BRANCH  32  33
ATOM     33  C   UNL     1      -2.136   2.592  -6.121  0.00  0.00    +0.229 C 
BRANCH  33  35
ATOM     34  C   UNL     1      -2.794   0.780  -7.711  0.00  0.00    +0.007 C 
ATOM     35  C   UNL     1      -2.961   2.261  -7.367  0.00  0.00    +0.038 C 
ENDBRANCH  33  35
ENDBRANCH  32  33
ENDBRANCH  26  32
ENDBRANCH   1  29
TORSDOF 5
