REMARK  Name = ZINC35732200
REMARK  3 active torsions:
REMARK  status: ('A' for Active; 'I' for Inactive)
REMARK    1  A    between atoms: C_5  and  S_6
REMARK    2  A    between atoms: S_6  and  N_9
REMARK    3  A    between atoms: N_9  and  C_10
REMARK                            x       y       z     vdW  Elec       q    Type
REMARK                         _______ _______ _______ _____ _____    ______ ____
ROOT
ATOM      1  S   UNL     1      -1.352  -1.132   0.010  0.00  0.00    +0.079 S 
ATOM      2  O   UNL     1      -0.861  -2.352   0.549  0.00  0.00    -0.149 OA
ATOM      3  O   UNL     1      -2.455  -0.438   0.576  0.00  0.00    -0.149 OA
ENDROOT
BRANCH   1   8
ATOM      4  C   UNL     1      -0.016   1.351   0.009  0.00  0.00    +0.038 A 
ATOM      5  C   UNL     1       1.183   2.038   0.002  0.00  0.00    +0.025 A 
ATOM      6  C   UNL     1       2.343   1.335  -0.013  0.00  0.00    +0.057 A 
ATOM      7  S   UNL     1       1.753  -0.350  -0.017  0.00  0.00    -0.061 S 
ATOM      8  C   UNL     1       0.002  -0.004   0.002  0.00  0.00    +0.147 A 
ATOM      9 BR   UNL     1       4.123   1.974  -0.027  0.00  0.00    -0.043 Br
ENDBRANCH   1   8
BRANCH   1  10
ATOM     10  N   UNL     1      -1.744  -1.437  -1.570  0.00  0.00    -0.213 N 
ATOM     11  H   UNL     1      -2.606  -1.159  -1.918  0.00  0.00    +0.174 HD
BRANCH  10  12
ATOM     12  C   UNL     1      -0.827  -2.100  -2.408  0.00  0.00    +0.085 A 
ATOM     13  C   UNL     1      -0.502  -1.744  -3.676  0.00  0.00    +0.129 A 
ATOM     14  N   UNL     1       0.416  -2.638  -4.131  0.00  0.00    -0.283 N 
ATOM     15  H   UNL     1       0.831  -2.635  -5.008  0.00  0.00    +0.188 HD
ATOM     16  N   UNL     1       0.656  -3.565  -3.108  0.00  0.00    -0.180 NA
ATOM     17  C   UNL     1      -0.082  -3.241  -2.077  0.00  0.00    +0.158 A 
ENDBRANCH  10  12
ENDBRANCH   1  10
TORSDOF 3
