REMARK  Name = ZINC67064629
REMARK  9 active torsions:
REMARK  status: ('A' for Active; 'I' for Inactive)
REMARK    1  A    between atoms: C_1  and  C_2
REMARK    2  A    between atoms: C_2  and  C_4
REMARK    3  A    between atoms: C_2  and  N_15
REMARK    4  A    between atoms: C_7  and  S_10
REMARK    5  A    between atoms: S_10  and  N_13
REMARK    6  A    between atoms: N_13  and  C_14
REMARK    7  A    between atoms: N_18  and  N_19
REMARK    8  A    between atoms: C_20  and  C_22
REMARK    9  A    between atoms: C_22  and  C_23
REMARK                            x       y       z     vdW  Elec       q    Type
REMARK                         _______ _______ _______ _____ _____    ______ ____
ROOT
ATOM      1  N   UNL     1       0.688  -0.476  -1.203  0.00  0.00    -0.292 N 
ATOM      2  C   UNL     1       0.006  -0.608  -2.358  0.00  0.00    +0.316 C 
ATOM      3  O   UNL     1      -1.178  -0.335  -2.400  0.00  0.00    -0.251 OA
ATOM      4  N   UNL     1       0.637  -1.043  -3.467  0.00  0.00    -0.218 N 
ATOM      5  H   UNL     1       1.632  -0.695  -1.170  0.00  0.00    +0.151 HD
ATOM      6  H   UNL     1       0.146  -1.137  -4.299  0.00  0.00    +0.174 HD
ENDROOT
BRANCH   4   7
ATOM      7  N   UNL     1       2.001  -1.358  -3.419  0.00  0.00    -0.233 N 
ATOM      8  C   UNL     1       2.632  -1.792  -4.528  0.00  0.00    +0.229 C 
ATOM      9  O   UNL     1       2.019  -1.911  -5.568  0.00  0.00    -0.274 OA
ATOM     10  H   UNL     1       2.492  -1.263  -2.588  0.00  0.00    +0.173 HD
BRANCH   8  11
ATOM     11  C   UNL     1       4.100  -2.131  -4.476  0.00  0.00    +0.101 C 
BRANCH  11  12
ATOM     12  C   UNL     1       4.565  -2.596  -5.858  0.00  0.00    -0.002 C 
ATOM     13  C   UNL     1       3.860  -3.905  -6.220  0.00  0.00    +0.004 C 
ATOM     14  C   UNL     1       4.325  -4.369  -7.601  0.00  0.00    +0.000 C 
ATOM     15  C   UNL     1       5.838  -4.594  -7.581  0.00  0.00    +0.000 C 
ATOM     16  C   UNL     1       6.543  -3.285  -7.219  0.00  0.00    +0.000 C 
ATOM     17  C   UNL     1       6.078  -2.821  -5.837  0.00  0.00    +0.004 C 
ENDBRANCH  11  12
ENDBRANCH   8  11
ENDBRANCH   4   7
BRANCH   1  19
ATOM     18  C   UNL     1      -0.019   1.526   0.010  0.00  0.00    +0.033 C 
ATOM     19  C   UNL     1       0.002  -0.004   0.002  0.00  0.00    +0.102 C 
BRANCH  19  20
ATOM     20  C   UNL     1       0.731  -0.503   1.223  0.00  0.00    -0.027 A 
ATOM     21  C   UNL     1       2.113  -0.514   1.247  0.00  0.00    +0.007 A 
ATOM     22  C   UNL     1       2.782  -0.972   2.366  0.00  0.00    +0.029 A 
ATOM     23  C   UNL     1       2.068  -1.419   3.463  0.00  0.00    +0.105 A 
ATOM     24  C   UNL     1       0.686  -1.407   3.439  0.00  0.00    +0.029 A 
ATOM     25  C   UNL     1       0.017  -0.945   2.321  0.00  0.00    +0.007 A 
BRANCH  23  26
ATOM     26  S   UNL     1       2.920  -2.003   4.890  0.00  0.00    +0.058 S 
ATOM     27  O   UNL     1       2.026  -2.874   5.569  0.00  0.00    -0.153 OA
ATOM     28  O   UNL     1       4.206  -2.422   4.452  0.00  0.00    -0.153 OA
BRANCH  26  29
ATOM     29  N   UNL     1       3.159  -0.702   5.885  0.00  0.00    -0.193 NA
ATOM     30  C   UNL     1       2.011  -0.018   6.486  0.00  0.00    +0.127 C 
ATOM     31  H   UNL     1       4.060  -0.392   6.070  0.00  0.00    +0.148 HD
ENDBRANCH  26  29
ENDBRANCH  23  26
ENDBRANCH  19  20
ENDBRANCH   1  19
TORSDOF 7
