REMARK  Name = ZINC40099489
REMARK  12 active torsions:
REMARK  status: ('A' for Active; 'I' for Inactive)
REMARK    1  A    between atoms: C_1  and  O_2
REMARK    2  A    between atoms: O_2  and  C_3
REMARK    3  A    between atoms: C_5  and  C_11
REMARK    4  A    between atoms: C_8  and  O_9
REMARK    5  A    between atoms: C_13  and  C_22
REMARK    6  A    between atoms: N_17  and  C_18
REMARK    7  A    between atoms: C_18  and  C_19
REMARK    8  A    between atoms: C_19  and  O_20
REMARK    9  A    between atoms: C_22  and  C_24
REMARK   10  A    between atoms: C_27  and  O_30
REMARK   11  A    between atoms: O_30  and  C_31
REMARK   12  A    between atoms: C_31  and  C_32
REMARK                            x       y       z     vdW  Elec       q    Type
REMARK                         _______ _______ _______ _____ _____    ______ ____
ROOT
ATOM      1  C   UNL     1      -4.809   0.205   0.237  0.00  0.00    +0.145 C 
ATOM      2  C   UNL     1      -5.581   0.061  -1.054  0.00  0.00    +0.076 C 
ATOM      3  C   UNL     1      -6.791  -0.453  -0.730  0.00  0.00    +0.249 C 
ATOM      4  C   UNL     1      -6.855  -0.659   0.732  0.00  0.00    +0.288 C 
ATOM      5  O   UNL     1      -7.812  -1.109   1.331  0.00  0.00    -0.266 OA
ATOM      6  N   UNL     1      -5.698  -0.274   1.302  0.00  0.00    -0.281 N 
ATOM      7  O   UNL     1      -7.783  -0.734  -1.606  0.00  0.00    -0.282 OA
ENDROOT
BRANCH   1  10
ATOM      8  C   UNL     1      -1.173  -0.797   0.013  0.00  0.00    +0.163 A 
ATOM      9  C   UNL     1      -2.324  -0.026   0.057  0.00  0.00    +0.055 A 
ATOM     10  C   UNL     1      -3.558  -0.635   0.189  0.00  0.00    -0.018 A 
ATOM     11  C   UNL     1      -3.648  -2.012   0.277  0.00  0.00    +0.025 A 
ATOM     12  C   UNL     1      -2.503  -2.786   0.234  0.00  0.00    +0.063 A 
ATOM     13  C   UNL     1      -1.263  -2.182   0.095  0.00  0.00    +0.173 A 
ATOM     14 BR   UNL     1      -2.630  -4.669   0.357  0.00  0.00    -0.046 Br
BRANCH   8  16
ATOM     15  C   UNL     1       0.069   1.229  -0.085  0.00  0.00    +0.277 C 
ATOM     16  O   UNL     1       0.042  -0.199  -0.117  0.00  0.00    -0.491 OA
ENDBRANCH   8  16
BRANCH  13  17
ATOM     17  O   UNL     1      -0.136  -2.943   0.047  0.00  0.00    -0.503 OA
ATOM     18  H   UNL     1       0.260  -3.115   0.912  0.00  0.00    +0.292 HD
ENDBRANCH  13  17
ENDBRANCH   1  10
BRANCH   2  19
ATOM     19  C   UNL     1      -5.111   0.411  -2.398  0.00  0.00    +0.195 C 
ATOM     20  O   UNL     1      -4.929  -0.463  -3.225  0.00  0.00    -0.287 OA
BRANCH  19  21
ATOM     21  C   UNL     1      -4.859   1.823  -2.748  0.00  0.00    +0.022 A 
ATOM     22  C   UNL     1      -4.982   2.818  -1.774  0.00  0.00    +0.015 A 
ATOM     23  C   UNL     1      -4.746   4.134  -2.104  0.00  0.00    +0.046 A 
ATOM     24  C   UNL     1      -4.386   4.473  -3.404  0.00  0.00    +0.121 A 
ATOM     25  C   UNL     1      -4.264   3.486  -4.375  0.00  0.00    +0.046 A 
ATOM     26  C   UNL     1      -4.492   2.167  -4.052  0.00  0.00    +0.015 A 
BRANCH  24  27
ATOM     27  O   UNL     1      -4.155   5.771  -3.725  0.00  0.00    -0.488 OA
BRANCH  27  28
ATOM     28  C   UNL     1      -3.789   6.049  -5.078  0.00  0.00    +0.256 C 
BRANCH  28  29
ATOM     29  C   UNL     1      -3.574   7.531  -5.246  0.00  0.00    +0.006 C 
ATOM     30  C   UNL     1      -2.529   7.971  -5.902  0.00  0.00    +0.007 C 
ENDBRANCH  28  29
ENDBRANCH  27  28
ENDBRANCH  24  27
ENDBRANCH  19  21
ENDBRANCH   2  19
BRANCH   6  31
ATOM     31  C   UNL     1      -5.380  -0.325   2.732  0.00  0.00    +0.137 C 
BRANCH  31  32
ATOM     32  C   UNL     1      -5.793   0.992   3.393  0.00  0.00    +0.175 C 
BRANCH  32  33
ATOM     33  O   UNL     1      -7.213   1.134   3.325  0.00  0.00    -0.393 OA
ATOM     34  H   UNL     1      -7.546   1.948   3.726  0.00  0.00    +0.209 HD
ENDBRANCH  32  33
ENDBRANCH  31  32
ENDBRANCH   6  31
TORSDOF 11
