REMARK  Name = ZINC08106053
REMARK  7 active torsions:
REMARK  status: ('A' for Active; 'I' for Inactive)
REMARK    1  A    between atoms: C_4  and  S_7
REMARK    2  A    between atoms: S_7  and  N_10
REMARK    3  A    between atoms: N_10  and  C_11
REMARK    4  A    between atoms: C_11  and  C_12
REMARK    5  A    between atoms: N_14  and  N_15
REMARK    6  A    between atoms: C_16  and  C_17
REMARK    7  A    between atoms: C_22  and  O_23
REMARK                            x       y       z     vdW  Elec       q    Type
REMARK                         _______ _______ _______ _____ _____    ______ ____
ROOT
ATOM      1  C   UNL     1       4.353  -2.298   3.634  0.00  0.00    +0.248 C 
ATOM      2  O   UNL     1       5.480  -1.872   3.779  0.00  0.00    -0.273 OA
ATOM      3  N   UNL     1       3.805  -3.089   4.577  0.00  0.00    -0.206 N 
ATOM      4  H   UNL     1       2.904  -3.430   4.460  0.00  0.00    +0.177 HD
ENDROOT
BRANCH   3   5
ATOM      5  N   UNL     1       4.536  -3.420   5.725  0.00  0.00    -0.188 NA
ATOM      6  C   UNL     1       4.007  -4.182   6.633  0.00  0.00    +0.142 C 
BRANCH   6   7
ATOM      7  C   UNL     1       4.776  -4.530   7.842  0.00  0.00    +0.037 A 
ATOM      8  C   UNL     1       4.214  -5.355   8.819  0.00  0.00    +0.028 A 
ATOM      9  C   UNL     1       4.939  -5.677   9.947  0.00  0.00    +0.019 A 
ATOM     10  C   UNL     1       6.223  -5.186  10.116  0.00  0.00    +0.019 A 
ATOM     11  C   UNL     1       6.790  -4.369   9.156  0.00  0.00    +0.047 A 
ATOM     12  C   UNL     1       6.078  -4.040   8.014  0.00  0.00    +0.126 A 
ATOM     13 BR   UNL     1       4.177  -6.794  11.270  0.00  0.00    -0.050 Br
BRANCH  12  14
ATOM     14  O   UNL     1       6.637  -3.242   7.068  0.00  0.00    -0.506 OA
ATOM     15  H   UNL     1       6.476  -2.299   7.205  0.00  0.00    +0.292 HD
ENDBRANCH  12  14
ENDBRANCH   6   7
ENDBRANCH   3   5
BRANCH   1  16
ATOM     16  C   UNL     1       3.567  -1.942   2.398  0.00  0.00    +0.203 C 
BRANCH  16  17
ATOM     17  N   UNL     1       4.378  -1.079   1.536  0.00  0.00    -0.181 NA
ATOM     18  H   UNL     1       5.174  -0.651   1.888  0.00  0.00    +0.149 HD
BRANCH  17  19
ATOM     19  S   UNL     1       3.934  -0.832  -0.041  0.00  0.00    +0.059 S 
ATOM     20  O   UNL     1       3.674  -2.114  -0.595  0.00  0.00    -0.153 OA
ATOM     21  O   UNL     1       4.890   0.060  -0.597  0.00  0.00    -0.153 OA
BRANCH  19  25
ATOM     22  C   UNL     1      -0.017   1.378   0.010  0.00  0.00    +0.000 A 
ATOM     23  C   UNL     1       1.171   2.086   0.002  0.00  0.00    +0.002 A 
ATOM     24  C   UNL     1       2.377   1.411  -0.013  0.00  0.00    +0.028 A 
ATOM     25  C   UNL     1       2.396   0.029  -0.020  0.00  0.00    +0.105 A 
ATOM     26  C   UNL     1       1.208  -0.679  -0.012  0.00  0.00    +0.028 A 
ATOM     27  C   UNL     1       0.002  -0.004   0.002  0.00  0.00    +0.002 A 
ENDBRANCH  19  25
ENDBRANCH  17  19
ENDBRANCH  16  17
ENDBRANCH   1  16
TORSDOF 7
