REMARK  Name = ZINC67164077
REMARK  10 active torsions:
REMARK  status: ('A' for Active; 'I' for Inactive)
REMARK    1  A    between atoms: C_1  and  C_2
REMARK    2  A    between atoms: C_2  and  C_4
REMARK    3  A    between atoms: C_2  and  N_14
REMARK    4  A    between atoms: C_7  and  N_10
REMARK    5  A    between atoms: C_15  and  C_17
REMARK    6  A    between atoms: C_24  and  O_26
REMARK    7  A    between atoms: O_26  and  C_27
REMARK    8  A    between atoms: C_27  and  C_28
REMARK    9  A    between atoms: C_27  and  C_29
REMARK   10  A    between atoms: C_27  and  C_30
REMARK                            x       y       z     vdW  Elec       q    Type
REMARK                         _______ _______ _______ _____ _____    ______ ____
ROOT
ATOM      1  N   UNL     1       0.995  -1.133   0.825  0.00  0.00    -0.307 N 
ATOM      2  C   UNL     1       2.213  -0.649   1.139  0.00  0.00    +0.234 C 
ATOM      3  O   UNL     1       2.706   0.235   0.470  0.00  0.00    -0.274 OA
ATOM      4  H   UNL     1       0.601  -1.839   1.360  0.00  0.00    +0.149 HD
ENDROOT
BRANCH   2   5
ATOM      5  C   UNL     1       2.964  -1.206   2.321  0.00  0.00    +0.165 C 
ATOM      6  C   UNL     1       3.015  -0.158   3.437  0.00  0.00    +0.032 C 
ATOM      7  C   UNL     1       3.895  -0.676   4.577  0.00  0.00    +0.004 C 
ATOM      8  C   UNL     1       5.318  -0.904   4.063  0.00  0.00    +0.019 C 
ATOM      9  C   UNL     1       5.293  -1.960   2.954  0.00  0.00    +0.112 C 
ATOM     10  N   UNL     1       4.337  -1.541   1.919  0.00  0.00    -0.256 N 
ATOM     11  C   UNL     1       4.713  -1.462   0.627  0.00  0.00    +0.404 C 
ATOM     12  O   UNL     1       3.893  -1.197  -0.229  0.00  0.00    -0.226 OA
BRANCH  11  13
ATOM     13  O   UNL     1       5.998  -1.676   0.286  0.00  0.00    -0.445 OA
BRANCH  13  14
ATOM     14  C   UNL     1       6.326  -1.576  -1.101  0.00  0.00    +0.107 C 
ATOM     15  C   UNL     1       5.996  -0.169  -1.603  0.00  0.00    +0.055 C 
ATOM     16  C   UNL     1       7.819  -1.849  -1.293  0.00  0.00    +0.055 C 
ATOM     17  C   UNL     1       5.514  -2.603  -1.893  0.00  0.00    +0.055 C 
ENDBRANCH  13  14
ENDBRANCH  11  13
ENDBRANCH   2   5
BRANCH   1  19
ATOM     18  C   UNL     1      -0.503   0.661   0.104  0.00  0.00    +0.033 C 
ATOM     19  C   UNL     1       0.266  -0.591  -0.324  0.00  0.00    +0.100 C 
BRANCH  19  20
ATOM     20  C   UNL     1      -0.703  -1.625  -0.837  0.00  0.00    -0.027 A 
ATOM     21  C   UNL     1      -1.418  -2.403   0.055  0.00  0.00    +0.007 A 
ATOM     22  C   UNL     1      -2.306  -3.352  -0.412  0.00  0.00    +0.023 A 
ATOM     23  C   UNL     1      -2.482  -3.523  -1.778  0.00  0.00    +0.035 A 
ATOM     24  C   UNL     1      -1.764  -2.740  -2.672  0.00  0.00    +0.023 A 
ATOM     25  C   UNL     1      -0.881  -1.789  -2.199  0.00  0.00    +0.007 A 
BRANCH  23  26
ATOM     26  N   UNL     1      -3.382  -4.484  -2.255  0.00  0.00    -0.270 N 
ATOM     27  C   UNL     1      -4.438  -4.849  -1.502  0.00  0.00    +0.301 C 
ATOM     28  O   UNL     1      -4.664  -4.278  -0.453  0.00  0.00    -0.253 OA
ATOM     29  N   UNL     1      -5.244  -5.849  -1.912  0.00  0.00    -0.313 N 
ATOM     30  H   UNL     1      -3.245  -4.886  -3.127  0.00  0.00    +0.156 HD
ATOM     31  H   UNL     1      -5.064  -6.305  -2.748  0.00  0.00    +0.146 HD
ATOM     32  H   UNL     1      -6.004  -6.112  -1.370  0.00  0.00    +0.146 HD
ENDBRANCH  23  26
ENDBRANCH  19  20
ENDBRANCH   1  19
TORSDOF 6
