REMARK  Name = ZINC64208456
REMARK  10 active torsions:
REMARK  status: ('A' for Active; 'I' for Inactive)
REMARK    1  A    between atoms: C_1  and  C_2
REMARK    2  A    between atoms: C_2  and  C_3
REMARK    3  A    between atoms: C_2  and  C_4
REMARK    4  A    between atoms: C_9  and  C_12
REMARK    5  A    between atoms: N_14  and  C_15
REMARK    6  A    between atoms: C_15  and  C_16
REMARK    7  A    between atoms: C_16  and  C_18
REMARK    8  A    between atoms: C_16  and  C_26
REMARK    9  A    between atoms: C_21  and  O_24
REMARK   10  A    between atoms: O_24  and  C_25
REMARK                            x       y       z     vdW  Elec       q    Type
REMARK                         _______ _______ _______ _____ _____    ______ ____
ROOT
ATOM      1  C   UNL     1      -4.558  -8.037  -2.998  0.00  0.00    +0.064 C 
ENDROOT
BRANCH   1   2
ATOM      2  C   UNL     1      -5.592  -7.029  -3.427  0.00  0.00    -0.033 C 
ATOM      3  C   UNL     1      -6.654  -6.597  -2.709  0.00  0.00    -0.000 A 
ATOM      4  C   UNL     1      -7.145  -6.925  -1.366  0.00  0.00    +0.010 A 
ATOM      5  C   UNL     1      -8.263  -6.315  -0.909  0.00  0.00    +0.001 A 
ATOM      6  C   UNL     1      -8.962  -5.381  -1.686  0.00  0.00    +0.002 A 
ATOM      7  C   UNL     1      -8.572  -5.028  -2.929  0.00  0.00    +0.026 A 
ATOM      8  C   UNL     1      -7.410  -5.606  -3.509  0.00  0.00    +0.043 A 
ATOM      9  N   UNL     1      -6.837  -5.433  -4.676  0.00  0.00    -0.380 N 
ATOM     10  C   UNL     1      -5.649  -6.290  -4.746  0.00  0.00    +0.145 C 
ATOM     11  H   UNL     1      -7.146  -4.835  -5.374  0.00  0.00    +0.160 HD
ENDBRANCH   1   2
BRANCH   1  12
ATOM     12  C   UNL     1      -4.564  -9.202  -3.954  0.00  0.00    -0.038 A 
ATOM     13  C   UNL     1      -4.288  -8.996  -5.293  0.00  0.00    +0.008 A 
ATOM     14  C   UNL     1      -4.294 -10.062  -6.172  0.00  0.00    +0.046 A 
ATOM     15  C   UNL     1      -4.576 -11.340  -5.710  0.00  0.00    +0.120 A 
ATOM     16  C   UNL     1      -4.851 -11.543  -4.366  0.00  0.00    +0.046 A 
ATOM     17  C   UNL     1      -4.839 -10.475  -3.490  0.00  0.00    +0.008 A 
BRANCH  15  18
ATOM     18  O   UNL     1      -4.582 -12.390  -6.573  0.00  0.00    -0.495 OA
ATOM     19  C   UNL     1      -4.880 -13.676  -6.027  0.00  0.00    +0.277 C 
ENDBRANCH  15  18
ENDBRANCH   1  12
BRANCH   1  20
ATOM     20  C   UNL     1      -3.175  -7.382  -3.001  0.00  0.00    +0.116 C 
BRANCH  20  23
ATOM     21  C   UNL     1      -2.006  -5.609  -1.807  0.00  0.00    +0.216 C 
ATOM     22  O   UNL     1      -1.027  -5.836  -2.486  0.00  0.00    -0.276 OA
ATOM     23  N   UNL     1      -3.132  -6.327  -1.985  0.00  0.00    -0.314 N 
ATOM     24  H   UNL     1      -3.915  -6.145  -1.442  0.00  0.00    +0.149 HD
BRANCH  21  30
ATOM     25  C   UNL     1      -1.411  -0.527   0.013  0.00  0.00    +0.218 C 
ATOM     26  O   UNL     1      -2.344   0.244  -0.065  0.00  0.00    -0.275 OA
ATOM     27  N   UNL     1      -1.639  -1.852   0.109  0.00  0.00    -0.301 N 
ATOM     28  C   UNL     1      -0.527  -2.789   0.320  0.00  0.00    +0.108 C 
ATOM     29  C   UNL     1      -0.579  -3.868  -0.765  0.00  0.00    +0.032 C 
ATOM     30  C   UNL     1      -1.962  -4.523  -0.762  0.00  0.00    +0.078 C 
ATOM     31  C   UNL     1      -3.027  -3.470  -1.077  0.00  0.00    +0.032 C 
ATOM     32  C   UNL     1      -3.004  -2.386   0.011  0.00  0.00    +0.108 C 
BRANCH  25  34
ATOM     33  C   UNL     1       0.567  -0.092  -1.418  0.00  0.00    +0.017 C 
ATOM     34  C   UNL     1       0.002  -0.004   0.002  0.00  0.00    +0.069 C 
ATOM     35  C   UNL     1       0.010   1.454   0.464  0.00  0.00    +0.017 C 
ENDBRANCH  25  34
ENDBRANCH  21  30
ENDBRANCH  20  23
ENDBRANCH   1  20
TORSDOF 7
