REMARK  Name = ZINC00710760
REMARK  4 active torsions:
REMARK  status: ('A' for Active; 'I' for Inactive)
REMARK    1  A    between atoms: C_1  and  C_2
REMARK    2  A    between atoms: C_2  and  C_3
REMARK    3  A    between atoms: C_6  and  C_8
REMARK    4  A    between atoms: C_13  and  C_18
REMARK                            x       y       z     vdW  Elec       q    Type
REMARK                         _______ _______ _______ _____ _____    ______ ____
ROOT
ATOM      1  C   UNL     1       1.752   4.118  -1.273  0.00  0.00    +0.143 C 
ATOM      2  C   UNL     1       3.226   3.890  -1.499  0.00  0.00    +0.037 C 
ATOM      3  C   UNL     1       3.993   2.991  -0.857  0.00  0.00    +0.017 C 
ATOM      4  C   UNL     1       5.474   2.873  -1.177  0.00  0.00    +0.059 C 
ATOM      5  C   UNL     1       5.715   3.196  -2.650  0.00  0.00    +0.032 C 
ATOM      6  C   UNL     1       5.229   4.628  -2.901  0.00  0.00    +0.088 C 
ATOM      7  C   UNL     1       3.789   4.722  -2.496  0.00  0.00    +0.163 C 
ATOM      8  O   UNL     1       3.078   5.541  -3.044  0.00  0.00    -0.292 OA
ATOM      9  N   UNL     1       3.548   2.147   0.108  0.00  0.00    -0.316 N 
ATOM     10  C   UNL     1       2.386   1.390   0.028  0.00  0.00    +0.052 A 
ATOM     11  C   UNL     1       2.403   0.006   0.010  0.00  0.00    +0.025 A 
ATOM     12  C   UNL     1       1.204  -0.688  -0.008  0.00  0.00    +0.002 A 
ATOM     13  C   UNL     1       0.002  -0.004   0.002  0.00  0.00    +0.002 A 
ATOM     14  C   UNL     1      -0.017   1.380   0.010  0.00  0.00    +0.025 A 
ATOM     15  C   UNL     1       1.181   2.076   0.002  0.00  0.00    +0.049 A 
ATOM     16  N   UNL     1       1.214   3.466  -0.097  0.00  0.00    -0.331 N 
ATOM     17  H   UNL     1       4.082   2.066   0.914  0.00  0.00    +0.152 HD
ATOM     18  H   UNL     1       0.872   4.005   0.633  0.00  0.00    +0.147 HD
ENDROOT
BRANCH   5  19
ATOM     19  C   UNL     1       7.186   3.094  -2.961  0.00  0.00    -0.044 A 
ATOM     20  C   UNL     1       8.094   3.879  -2.274  0.00  0.00    +0.004 A 
ATOM     21  C   UNL     1       9.444   3.782  -2.556  0.00  0.00    +0.000 A 
ATOM     22  C   UNL     1       9.885   2.908  -3.531  0.00  0.00    +0.000 A 
ATOM     23  C   UNL     1       8.978   2.127  -4.222  0.00  0.00    +0.000 A 
ATOM     24  C   UNL     1       7.628   2.220  -3.937  0.00  0.00    +0.004 A 
ENDBRANCH   5  19
BRANCH   1  28
ATOM     25  C   UNL     1      -0.285   2.297  -4.449  0.00  0.00    -0.010 A 
ATOM     26  C   UNL     1      -0.164   3.644  -4.532  0.00  0.00    +0.011 A 
ATOM     27  C   UNL     1       0.495   4.321  -3.523  0.00  0.00    +0.013 A 
ATOM     28  C   UNL     1       1.001   3.618  -2.480  0.00  0.00    +0.015 A 
ATOM     29  S   UNL     1       0.553   1.944  -2.912  0.00  0.00    -0.096 S 
BRANCH  25  31
ATOM     30  C   UNL     1       0.071   0.864  -6.441  0.00  0.00    +0.009 C 
ATOM     31  C   UNL     1      -0.950   1.343  -5.407  0.00  0.00    +0.039 C 
ENDBRANCH  25  31
ENDBRANCH   1  28
TORSDOF 3
