REMARK  Name = ZINC51186233
REMARK  11 active torsions:
REMARK  status: ('A' for Active; 'I' for Inactive)
REMARK    1  A    between atoms: C_1  and  C_2
REMARK    2  A    between atoms: C_2  and  C_3
REMARK    3  A    between atoms: C_3  and  C_4
REMARK    4  A    between atoms: C_4  and  C_6
REMARK    5  A    between atoms: C_4  and  N_7
REMARK    6  A    between atoms: C_8  and  C_10
REMARK    7  A    between atoms: C_10  and  C_12
REMARK    8  A    between atoms: C_10  and  N_13
REMARK    9  A    between atoms: N_13  and  C_14
REMARK   10  A    between atoms: C_17  and  N_21
REMARK   11  A    between atoms: C_19  and  C_20
REMARK                            x       y       z     vdW  Elec       q    Type
REMARK                         _______ _______ _______ _____ _____    ______ ____
ROOT
ATOM      1  N   UNL     1       1.692  -5.566  -1.975  0.00  0.00    -0.333 N 
ATOM      2  H   UNL     1       0.789  -5.856  -1.773  0.00  0.00    +0.147 HD
ENDROOT
BRANCH   1   3
ATOM      3  C   UNL     1       2.571  -6.429  -2.641  0.00  0.00    +0.031 A 
ATOM      4  C   UNL     1       3.866  -6.017  -2.925  0.00  0.00    +0.025 A 
ATOM      5  C   UNL     1       4.733  -6.868  -3.583  0.00  0.00    +0.025 A 
ATOM      6  C   UNL     1       4.308  -8.136  -3.960  0.00  0.00    +0.030 A 
ATOM      7  C   UNL     1       3.013  -8.547  -3.676  0.00  0.00    +0.028 A 
ATOM      8  C   UNL     1       2.149  -7.699  -3.013  0.00  0.00    -0.028 A 
ATOM      9  C   UNL     1       0.745  -8.148  -2.698  0.00  0.00    +0.046 C 
BRANCH   6  10
ATOM     10  N   UNL     1       5.186  -8.998  -4.627  0.00  0.00    -0.328 N 
ATOM     11  C   UNL     1       6.506  -8.513  -5.034  0.00  0.00    +0.116 C 
ATOM     12  C   UNL     1       7.590  -9.262  -4.249  0.00  0.00    +0.088 C 
ATOM     13  S   UNL     1       7.391 -11.045  -4.541  0.00  0.00    -0.158 S 
ATOM     14  C   UNL     1       5.651 -11.344  -4.109  0.00  0.00    +0.088 C 
ATOM     15  C   UNL     1       4.776 -10.376  -4.904  0.00  0.00    +0.116 C 
ENDBRANCH   6  10
ENDBRANCH   1   3
BRANCH   1  16
ATOM     16  C   UNL     1       2.138  -4.227  -1.583  0.00  0.00    +0.154 C 
ATOM     17  C   UNL     1       1.958  -3.265  -2.759  0.00  0.00    +0.038 C 
BRANCH  16  19
ATOM     18  N   UNL     1       1.554  -2.533   0.122  0.00  0.00    -0.311 N 
ATOM     19  C   UNL     1       1.319  -3.748  -0.412  0.00  0.00    +0.233 C 
ATOM     20  O   UNL     1       0.449  -4.456   0.050  0.00  0.00    -0.274 OA
ATOM     21  H   UNL     1       2.249  -1.967  -0.247  0.00  0.00    +0.149 HD
BRANCH  18  22
ATOM     22  C   UNL     1       0.758  -2.067   1.261  0.00  0.00    +0.070 C 
ATOM     23  C   UNL     1       1.369  -2.595   2.560  0.00  0.00    +0.028 C 
BRANCH  22  24
ATOM     24  C   UNL     1       0.749  -0.538   1.285  0.00  0.00    +0.022 C 
BRANCH  24  26
ATOM     25  C   UNL     1       0.018   1.518   0.068  0.00  0.00    +0.004 C 
ATOM     26  C   UNL     1       0.026  -0.012   0.044  0.00  0.00    -0.002 C 
ENDBRANCH  24  26
ENDBRANCH  22  24
ENDBRANCH  18  22
ENDBRANCH  16  19
ENDBRANCH   1  16
TORSDOF 7
