REMARK  Name = ZINC16576137
REMARK  8 active torsions:
REMARK  status: ('A' for Active; 'I' for Inactive)
REMARK    1  A    between atoms: C_1  and  C_2
REMARK    2  A    between atoms: C_2  and  C_4
REMARK    3  A    between atoms: C_2  and  N_60
REMARK    4  A    between atoms: C_14  and  C_15
REMARK    5  A    between atoms: C_14  and  N_60
REMARK    6  A    between atoms: C_20  and  O_21
REMARK    7  A    between atoms: O_21  and  C_22
REMARK    8  A    between atoms: C_22  and  C_23
REMARK                            x       y       z     vdW  Elec       q    Type
REMARK                         _______ _______ _______ _____ _____    ______ ____
ROOT
ATOM      1  C   UNL     1       2.241   0.727  -0.802  0.00  0.00    -0.043 C 
ENDROOT
BRANCH   1   2
ATOM      2  C   UNL     1       3.643   1.279  -0.789  0.00  0.00    -0.022 A 
ATOM      3  C   UNL     1       4.106   2.014  -1.864  0.00  0.00    +0.020 A 
ATOM      4  C   UNL     1       5.393   2.521  -1.853  0.00  0.00    +0.018 A 
ATOM      5  C   UNL     1       6.219   2.293  -0.766  0.00  0.00    +0.019 A 
ATOM      6  C   UNL     1       5.760   1.558   0.309  0.00  0.00    +0.047 A 
ATOM      7  C   UNL     1       4.467   1.054   0.303  0.00  0.00    +0.122 A 
ATOM      8 BR   UNL     1       6.024   3.528  -3.324  0.00  0.00    -0.050 Br
BRANCH   7   9
ATOM      9  O   UNL     1       4.012   0.336   1.363  0.00  0.00    -0.487 OA
BRANCH   9  10
ATOM     10  C   UNL     1       4.916   0.144   2.453  0.00  0.00    +0.264 C 
BRANCH  10  11
ATOM     11  C   UNL     1       4.241  -0.669   3.528  0.00  0.00    -0.010 A 
ATOM     12  C   UNL     1       3.536  -0.034   4.534  0.00  0.00    +0.008 A 
ATOM     13  C   UNL     1       2.912  -0.779   5.516  0.00  0.00    +0.020 A 
ATOM     14  C   UNL     1       3.003  -2.160   5.500  0.00  0.00    +0.041 A 
ATOM     15  C   UNL     1       3.713  -2.794   4.497  0.00  0.00    +0.020 A 
ATOM     16  C   UNL     1       4.332  -2.048   3.511  0.00  0.00    +0.008 A 
ATOM     17 CL   UNL     1       2.225  -3.096   6.738  0.00  0.00    -0.084 Cl
ENDBRANCH  10  11
ENDBRANCH   9  10
ENDBRANCH   7   9
ENDBRANCH   1   2
BRANCH   1  18
ATOM     18  N   UNL     1       1.369   1.603   0.003  0.00  0.00    +0.384 N 
ATOM     19  H   UNL     1       1.721   1.639   0.967  0.00  0.00    -0.085 HD
ATOM     20  H   UNL     1       1.375   2.548  -0.399  0.00  0.00    -0.085 HD
BRANCH  18  22
ATOM     21  C   UNL     1      -0.753   1.593  -1.232  0.00  0.00    -0.013 C 
ATOM     22  C   UNL     1      -0.013   1.086   0.008  0.00  0.00    -0.068 C 
BRANCH  22  23
ATOM     23  C   UNL     1      -0.729   1.579   1.267  0.00  0.00    -0.041 C 
ATOM     24  C   UNL     1      -0.750   3.109   1.275  0.00  0.00    +0.009 C 
ATOM     25  C   UNL     1      -1.466   3.603   2.534  0.00  0.00    -0.010 C 
ATOM     26  C   UNL     1      -2.901   3.073   2.545  0.00  0.00    +0.007 C 
ATOM     27  C   UNL     1      -2.880   1.543   2.537  0.00  0.00    -0.010 C 
ATOM     28  C   UNL     1      -2.164   1.050   1.278  0.00  0.00    +0.009 C 
ATOM     29  C   UNL     1      -2.140   1.036   3.776  0.00  0.00    +0.007 C 
ATOM     30  C   UNL     1      -0.705   1.566   3.765  0.00  0.00    -0.010 C 
ATOM     31  C   UNL     1      -0.726   3.096   3.774  0.00  0.00    +0.007 C 
ATOM     32  C   UNL     1       0.011   1.072   2.506  0.00  0.00    +0.009 C 
ENDBRANCH  22  23
ENDBRANCH  18  22
ENDBRANCH   1  18
TORSDOF 7
