REMARK  Name = ZINC53116223
REMARK  6 active torsions:
REMARK  status: ('A' for Active; 'I' for Inactive)
REMARK    1  A    between atoms: C_1  and  C_2
REMARK    2  A    between atoms: C_7  and  C_9
REMARK    3  A    between atoms: C_7  and  N_11
REMARK    4  A    between atoms: C_9  and  O_10
REMARK    5  A    between atoms: N_11  and  C_12
REMARK    6  A    between atoms: C_12  and  C_13
REMARK                            x       y       z     vdW  Elec       q    Type
REMARK                         _______ _______ _______ _____ _____    ______ ____
ROOT
ATOM      1  N   UNL     1      -0.615  -2.514   1.163  0.00  0.00    +0.387 N 
ATOM      2  H   UNL     1      -1.031  -2.199   0.299  0.00  0.00    -0.085 HD
ATOM      3  H   UNL     1      -0.638  -3.522   1.199  0.00  0.00    -0.085 HD
ENDROOT
BRANCH   1   9
ATOM      4  C   UNL     1       0.182   1.556   0.029  0.00  0.00    +0.007 C 
ATOM      5  C   UNL     1       0.151   0.027  -0.004  0.00  0.00    -0.015 C 
ATOM      6  C   UNL     1       0.914  -0.472  -1.232  0.00  0.00    +0.003 C 
ATOM      7  C   UNL     1       0.883  -2.002  -1.265  0.00  0.00    -0.001 C 
ATOM      8  C   UNL     1       1.541  -2.552   0.002  0.00  0.00    -0.010 C 
ATOM      9  C   UNL     1       0.778  -2.053   1.231  0.00  0.00    -0.044 C 
ATOM     10  C   UNL     1       0.809  -0.524   1.263  0.00  0.00    -0.007 C 
BRANCH   9  11
ATOM     11  C   UNL     1       1.436  -2.604   2.498  0.00  0.00    +0.143 C 
BRANCH  11  12
ATOM     12  O   UNL     1       1.292  -4.025   2.530  0.00  0.00    -0.396 OA
ATOM     13  H   UNL     1       1.687  -4.443   3.308  0.00  0.00    +0.209 HD
ENDBRANCH  11  12
ENDBRANCH   9  11
ENDBRANCH   1   9
BRANCH   1  14
ATOM     14  C   UNL     1      -1.368  -1.965   2.298  0.00  0.00    -0.046 C 
BRANCH  14  15
ATOM     15  C   UNL     1      -2.760  -2.544   2.305  0.00  0.00    -0.059 A 
ATOM     16  C   UNL     1      -3.775  -1.907   1.615  0.00  0.00    +0.051 A 
ATOM     17  C   UNL     1      -5.055  -2.437   1.619  0.00  0.00    +0.168 A 
ATOM     18  C   UNL     1      -5.316  -3.612   2.319  0.00  0.00    +0.184 A 
ATOM     19  C   UNL     1      -4.294  -4.245   3.010  0.00  0.00    +0.087 A 
ATOM     20  C   UNL     1      -3.017  -3.712   2.996  0.00  0.00    +0.025 A 
ATOM     21 CL   UNL     1      -4.615  -5.709   3.885  0.00  0.00    -0.080 Cl
ATOM     22  O   UNL     1      -6.636  -3.925   2.169  0.00  0.00    -0.451 OA
ATOM     23  C   UNL     1      -7.268  -2.715   1.711  0.00  0.00    +0.466 C 
ATOM     24  O   UNL     1      -6.211  -2.014   1.030  0.00  0.00    -0.453 OA
ENDBRANCH  14  15
ENDBRANCH   1  14
TORSDOF 5
