REMARK  Name = ZINC12560928
REMARK  10 active torsions:
REMARK  status: ('A' for Active; 'I' for Inactive)
REMARK    1  A    between atoms: C_1  and  C_2
REMARK    2  A    between atoms: C_2  and  N_3
REMARK    3  A    between atoms: N_3  and  C_4
REMARK    4  A    between atoms: N_3  and  S_6
REMARK    5  A    between atoms: C_4  and  C_5
REMARK    6  A    between atoms: S_6  and  C_9
REMARK    7  A    between atoms: C_12  and  N_28
REMARK    8  A    between atoms: C_13  and  N_15
REMARK    9  A    between atoms: C_16  and  C_18
REMARK   10  A    between atoms: C_19  and  C_20
REMARK                            x       y       z     vdW  Elec       q    Type
REMARK                         _______ _______ _______ _____ _____    ______ ____
ROOT
ATOM      1  C   UNL     1      -1.245   3.146   0.004  0.00  0.00    +0.107 A 
ATOM      2  C   UNL     1      -1.226   1.763  -0.013  0.00  0.00    +0.030 A 
ATOM      3  C   UNL     1      -0.022   1.084  -0.016  0.00  0.00    +0.027 A 
ATOM      4  C   UNL     1       1.172   1.790  -0.013  0.00  0.00    +0.051 A 
ATOM      5  C   UNL     1       1.153   3.184  -0.002  0.00  0.00    +0.057 A 
ATOM      6  C   UNL     1      -0.060   3.857   0.006  0.00  0.00    +0.053 A 
ENDROOT
BRANCH   4   7
ATOM      7  N   UNL     1       2.392   1.105  -0.021  0.00  0.00    -0.328 N 
ATOM      8  C   UNL     1       2.556   0.336  -1.262  0.00  0.00    +0.105 C 
ATOM      9  C   UNL     1       3.956  -0.280  -1.300  0.00  0.00    +0.019 C 
ATOM     10  C   UNL     1       4.141  -1.192  -0.085  0.00  0.00    +0.003 C 
ATOM     11  C   UNL     1       3.917  -0.379   1.193  0.00  0.00    +0.019 C 
ATOM     12  C   UNL     1       2.518   0.240   1.159  0.00  0.00    +0.105 C 
ENDBRANCH   4   7
BRANCH   5  13
ATOM     13  N   UNL     1       2.355   3.903   0.001  0.00  0.00    -0.280 N 
ATOM     14  C   UNL     1       2.390   5.154   0.501  0.00  0.00    +0.241 C 
ATOM     15  O   UNL     1       1.405   5.622   1.041  0.00  0.00    -0.270 OA
ATOM     16  H   UNL     1       3.162   3.501  -0.357  0.00  0.00    +0.155 HD
BRANCH  14  17
ATOM     17  C   UNL     1       3.614   5.950   0.395  0.00  0.00    +0.068 C 
ATOM     18  C   UNL     1       3.650   7.202   0.896  0.00  0.00    +0.014 C 
BRANCH  18  19
ATOM     19  C   UNL     1       4.879   8.002   0.789  0.00  0.00    -0.006 A 
ATOM     20  C   UNL     1       6.016   7.465   0.175  0.00  0.00    +0.011 A 
ATOM     21  C   UNL     1       7.163   8.222   0.074  0.00  0.00    +0.020 A 
ATOM     22  C   UNL     1       7.197   9.508   0.590  0.00  0.00    +0.042 A 
ATOM     23  C   UNL     1       6.078  10.045   1.204  0.00  0.00    +0.040 A 
ATOM     24  C   UNL     1       4.920   9.302   1.308  0.00  0.00    +0.049 A 
ATOM     25 CL   UNL     1       3.518   9.976   2.078  0.00  0.00    -0.083 Cl
ATOM     26 CL   UNL     1       8.649  10.451   0.464  0.00  0.00    -0.083 Cl
ENDBRANCH  18  19
ENDBRANCH  14  17
ENDBRANCH   5  13
BRANCH   1  27
ATOM     27  S   UNL     1      -2.784   4.003   0.015  0.00  0.00    +0.061 S 
ATOM     28  O   UNL     1      -3.744   3.108   0.561  0.00  0.00    -0.153 OA
ATOM     29  O   UNL     1      -2.532   5.284   0.575  0.00  0.00    -0.153 OA
BRANCH  27  30
ATOM     30  N   UNL     1      -3.216   4.254  -1.564  0.00  0.00    -0.177 NA
BRANCH  30  32
ATOM     31  C   UNL     1      -5.502   3.645  -2.186  0.00  0.00    +0.022 C 
ATOM     32  C   UNL     1      -4.025   3.256  -2.270  0.00  0.00    +0.106 C 
ENDBRANCH  30  32
BRANCH  30  33
ATOM     33  C   UNL     1      -2.790   5.473  -2.256  0.00  0.00    +0.106 C 
ATOM     34  C   UNL     1      -1.502   5.194  -3.034  0.00  0.00    +0.022 C 
ENDBRANCH  30  33
ENDBRANCH  27  30
ENDBRANCH   1  27
TORSDOF 8
