REMARK  Name = ZINC16700355
REMARK  14 active torsions:
REMARK  status: ('A' for Active; 'I' for Inactive)
REMARK    1  A    between atoms: C_1  and  C_2
REMARK    2  A    between atoms: C_2  and  O_3
REMARK    3  A    between atoms: O_3  and  C_4
REMARK    4  A    between atoms: C_4  and  C_6
REMARK    5  A    between atoms: C_7  and  C_38
REMARK    6  A    between atoms: C_14  and  C_15
REMARK    7  A    between atoms: C_19  and  O_21
REMARK    8  A    between atoms: O_21  and  C_22
REMARK    9  A    between atoms: C_24  and  C_26
REMARK   10  A    between atoms: C_29  and  O_34
REMARK   11  A    between atoms: C_30  and  O_32
REMARK   12  A    between atoms: O_32  and  C_33
REMARK   13  A    between atoms: O_34  and  C_35
REMARK   14  A    between atoms: C_35  and  C_37
REMARK                            x       y       z     vdW  Elec       q    Type
REMARK                         _______ _______ _______ _____ _____    ______ ____
ROOT
ATOM      1  C   UNL     1       1.079  -0.392   1.713  0.00  0.00    +0.085 C 
ATOM      2  C   UNL     1       2.113   0.498   1.630  0.00  0.00    +0.053 C 
ATOM      3  N   UNL     1       1.876   1.799   1.518  0.00  0.00    -0.228 NA
ATOM      4  C   UNL     1       0.685   2.341   1.478  0.00  0.00    +0.178 A 
ATOM      5  N   UNL     1      -0.489   1.626   1.547  0.00  0.00    -0.275 N 
ATOM      6  C   UNL     1      -1.650   2.292   1.501  0.00  0.00    +0.268 A 
ATOM      7  O   UNL     1      -2.714   1.703   1.564  0.00  0.00    -0.266 OA
ATOM      8  C   UNL     1      -1.601   3.756   1.369  0.00  0.00    +0.081 A 
ATOM      9  C   UNL     1      -2.619   4.651   1.297  0.00  0.00    +0.028 C 
ATOM     10  S   UNL     1       0.162   4.038   1.334  0.00  0.00    -0.046 S 
ATOM     11  C   UNL     1      -0.331   0.150   1.674  0.00  0.00    +0.162 C 
ATOM     12  C   UNL     1       3.534  -0.003   1.666  0.00  0.00    +0.066 C 
ENDROOT
BRANCH   9  13
ATOM     13  C   UNL     1      -4.005   4.178   1.175  0.00  0.00    -0.020 A 
ATOM     14  C   UNL     1      -5.028   4.806   1.895  0.00  0.00    +0.008 A 
ATOM     15  C   UNL     1      -6.327   4.359   1.777  0.00  0.00    +0.004 A 
ATOM     16  C   UNL     1      -6.624   3.291   0.949  0.00  0.00    +0.045 A 
ATOM     17  C   UNL     1      -5.617   2.660   0.230  0.00  0.00    +0.121 A 
ATOM     18  C   UNL     1      -4.309   3.102   0.335  0.00  0.00    +0.053 A 
BRANCH  17  19
ATOM     19  O   UNL     1      -5.916   1.612  -0.581  0.00  0.00    -0.495 OA
ATOM     20  C   UNL     1      -7.287   1.213  -0.646  0.00  0.00    +0.277 C 
ENDBRANCH  17  19
ENDBRANCH   9  13
BRANCH  11  21
ATOM     21  C   UNL     1      -1.030  -0.284   2.937  0.00  0.00    -0.016 A 
ATOM     22  C   UNL     1      -1.898  -1.360   2.911  0.00  0.00    +0.010 A 
ATOM     23  C   UNL     1      -2.536  -1.765   4.067  0.00  0.00    +0.050 A 
ATOM     24  C   UNL     1      -2.316  -1.086   5.255  0.00  0.00    +0.173 A 
ATOM     25  C   UNL     1      -1.447   0.001   5.280  0.00  0.00    +0.163 A 
ATOM     26  C   UNL     1      -0.806   0.399   4.118  0.00  0.00    +0.055 A 
BRANCH  25  27
ATOM     27  O   UNL     1      -1.228   0.671   6.443  0.00  0.00    -0.491 OA
ATOM     28  C   UNL     1      -0.411   1.842   6.373  0.00  0.00    +0.277 C 
ENDBRANCH  25  27
BRANCH  24  29
ATOM     29  O   UNL     1      -2.948  -1.479   6.393  0.00  0.00    -0.422 OA
BRANCH  29  30
ATOM     30  C   UNL     1      -4.044  -0.791   6.751  0.00  0.00    +0.309 C 
ATOM     31  O   UNL     1      -4.480   0.071   6.025  0.00  0.00    -0.251 OA
ATOM     32  C   UNL     1      -4.729  -1.093   8.059  0.00  0.00    +0.136 C 
ENDBRANCH  29  30
ENDBRANCH  24  29
ENDBRANCH  11  21
BRANCH   1  33
ATOM     33  C   UNL     1       1.320  -1.771   1.831  0.00  0.00    +0.339 C 
ATOM     34  O   UNL     1       2.463  -2.186   1.904  0.00  0.00    -0.245 OA
BRANCH  33  35
ATOM     35  O   UNL     1       0.284  -2.638   1.865  0.00  0.00    -0.462 OA
BRANCH  35  37
ATOM     36  C   UNL     1      -0.678  -4.851   1.979  0.00  0.00    +0.048 C 
ATOM     37  C   UNL     1       0.596  -4.013   2.098  0.00  0.00    +0.229 C 
ENDBRANCH  35  37
ENDBRANCH  33  35
ENDBRANCH   1  33
TORSDOF 9
