REMARK  Name = ZINC26827912
REMARK  10 active torsions:
REMARK  status: ('A' for Active; 'I' for Inactive)
REMARK    1  A    between atoms: C_1  and  C_2
REMARK    2  A    between atoms: C_2  and  C_3
REMARK    3  A    between atoms: C_3  and  N_4
REMARK    4  A    between atoms: C_5  and  C_27
REMARK    5  A    between atoms: C_7  and  C_10
REMARK    6  A    between atoms: C_8  and  C_9
REMARK    7  A    between atoms: C_11  and  C_12
REMARK    8  A    between atoms: C_11  and  C_14
REMARK    9  A    between atoms: N_16  and  C_17
REMARK   10  A    between atoms: C_20  and  N_23
REMARK                            x       y       z     vdW  Elec       q    Type
REMARK                         _______ _______ _______ _____ _____    ______ ____
ROOT
ATOM      1  C   UNL     1      -1.311   2.112   0.013  0.00  0.00    +0.259 C 
ATOM      2  O   UNL     1      -1.320   3.329   0.035  0.00  0.00    -0.269 OA
ATOM      3  N   UNL     1      -2.473   1.430   0.009  0.00  0.00    -0.281 N 
ATOM      4  H   UNL     1      -2.467   0.334  -0.087  0.00  0.00    +0.155 HD
ENDROOT
BRANCH   3   5
ATOM      5  C   UNL     1      -3.688   2.115   0.127  0.00  0.00    +0.034 A 
ATOM      6  C   UNL     1      -4.746   1.539   0.818  0.00  0.00    +0.025 A 
ATOM      7  C   UNL     1      -5.942   2.217   0.940  0.00  0.00    +0.025 A 
ATOM      8  C   UNL     1      -6.091   3.471   0.362  0.00  0.00    +0.035 A 
ATOM      9  C   UNL     1      -5.036   4.045  -0.334  0.00  0.00    +0.025 A 
ATOM     10  C   UNL     1      -3.837   3.369  -0.451  0.00  0.00    +0.025 A 
BRANCH   8  11
ATOM     11  N   UNL     1      -7.307   4.157   0.481  0.00  0.00    -0.270 N 
ATOM     12  C   UNL     1      -8.035   4.048   1.610  0.00  0.00    +0.301 C 
ATOM     13  O   UNL     1      -7.679   3.290   2.492  0.00  0.00    -0.253 OA
ATOM     14  N   UNL     1      -9.156   4.780   1.763  0.00  0.00    -0.313 N 
ATOM     15  H   UNL     1      -7.668   4.785  -0.347  0.00  0.00    +0.156 HD
ATOM     16  H   UNL     1      -9.750   4.691   2.684  0.00  0.00    +0.146 HD
ATOM     17  H   UNL     1      -9.478   5.466   0.966  0.00  0.00    +0.146 HD
ENDBRANCH   8  11
ENDBRANCH   3   5
BRANCH   1  19
ATOM     18  C   UNL     1       1.157   2.087  -0.010  0.00  0.00    +0.033 C 
ATOM     19  C   UNL     1      -0.033   1.388  -0.008  0.00  0.00    +0.114 C 
BRANCH  18  23
ATOM     20  N   UNL     1       4.590   0.908  -0.071  0.00  0.00    -0.348 N 
ATOM     21  C   UNL     1       3.947  -0.296  -0.085  0.00  0.00    +0.016 A 
ATOM     22  C   UNL     1       2.620  -0.090  -0.059  0.00  0.00    +0.030 A 
ATOM     23  C   UNL     1       2.428   1.367  -0.038  0.00  0.00    -0.003 A 
ATOM     24  C   UNL     1       3.700   1.916  -0.043  0.00  0.00    +0.023 A 
ATOM     25  C   UNL     1       4.028   3.387  -0.020  0.00  0.00    +0.064 C 
ATOM     26  C   UNL     1       4.620  -1.645  -0.117  0.00  0.00    +0.063 C 
BRANCH  20  27
ATOM     27  C   UNL     1       6.045   1.079  -0.085  0.00  0.00    +0.121 C 
BRANCH  27  29
ATOM     28  C   UNL     1       8.088   1.290   1.338  0.00  0.00    +0.005 C 
ATOM     29  C   UNL     1       6.569   1.112   1.352  0.00  0.00    +0.018 C 
ENDBRANCH  27  29
ENDBRANCH  20  27
ENDBRANCH  18  23
BRANCH  19  30
ATOM     30  C   UNL     1      -0.022  -0.044  -0.034  0.00  0.00    +0.104 C 
ATOM     31  N   UNL     1      -0.014  -1.180  -0.054  0.00  0.00    -0.191 NA
ENDBRANCH  19  30
ENDBRANCH   1  19
TORSDOF 7
