REMARK  Name = ZINC00672994
REMARK  8 active torsions:
REMARK  status: ('A' for Active; 'I' for Inactive)
REMARK    1  A    between atoms: C_1  and  C_2
REMARK    2  A    between atoms: C_4  and  O_9
REMARK    3  A    between atoms: O_9  and  C_10
REMARK    4  A    between atoms: C_10  and  C_12
REMARK    5  A    between atoms: C_10  and  C_13
REMARK    6  A    between atoms: N_15  and  N_16
REMARK    7  A    between atoms: C_17  and  C_18
REMARK    8  A    between atoms: C_27  and  O_28
REMARK                            x       y       z     vdW  Elec       q    Type
REMARK                         _______ _______ _______ _____ _____    ______ ____
ROOT
ATOM      1  C   UNL     1       4.547   3.884   0.894  0.00  0.00    +0.273 C 
ATOM      2  O   UNL     1       4.264   4.977   1.339  0.00  0.00    -0.270 OA
ATOM      3  N   UNL     1       5.770   3.362   1.115  0.00  0.00    -0.204 N 
ATOM      4  H   UNL     1       5.996   2.488   0.759  0.00  0.00    +0.177 HD
ENDROOT
BRANCH   1   5
ATOM      5  C   UNL     1       3.530   3.109   0.095  0.00  0.00    +0.257 C 
ATOM      6  C   UNL     1       4.079   2.846  -1.309  0.00  0.00    +0.062 C 
BRANCH   5   7
ATOM      7  O   UNL     1       2.322   3.866   0.000  0.00  0.00    -0.480 OA
BRANCH   7  11
ATOM      8  C   UNL     1      -2.542   3.834  -0.398  0.00  0.00    +0.045 C 
ATOM      9  C   UNL     1      -1.216   3.120  -0.407  0.00  0.00    -0.029 A 
ATOM     10  C   UNL     1      -0.048   3.829  -0.197  0.00  0.00    +0.050 A 
ATOM     11  C   UNL     1       1.173   3.171  -0.206  0.00  0.00    +0.122 A 
ATOM     12  C   UNL     1       1.219   1.802  -0.426  0.00  0.00    +0.047 A 
ATOM     13  C   UNL     1       0.050   1.097  -0.635  0.00  0.00    +0.024 A 
ATOM     14  C   UNL     1      -1.167   1.756  -0.632  0.00  0.00    +0.044 A 
ATOM     15 CL   UNL     1      -2.634   0.869  -0.903  0.00  0.00    -0.083 Cl
ENDBRANCH   7  11
ENDBRANCH   5   7
ENDBRANCH   1   5
BRANCH   3  16
ATOM     16  N   UNL     1       6.715   4.082   1.857  0.00  0.00    -0.187 NA
ATOM     17  C   UNL     1       7.894   3.579   2.070  0.00  0.00    +0.142 C 
BRANCH  17  18
ATOM     18  C   UNL     1       8.885   4.334   2.849  0.00  0.00    +0.044 A 
ATOM     19  C   UNL     1      10.216   3.784   3.098  0.00  0.00    -0.006 A 
ATOM     20  C   UNL     1      10.591   2.527   2.607  0.00  0.00    +0.009 A 
ATOM     21  C   UNL     1      11.842   2.050   2.861  0.00  0.00    +0.001 A 
ATOM     22  C   UNL     1      12.755   2.796   3.603  0.00  0.00    +0.001 A 
ATOM     23  C   UNL     1      12.423   4.021   4.096  0.00  0.00    +0.008 A 
ATOM     24  C   UNL     1      11.142   4.544   3.854  0.00  0.00    -0.017 A 
ATOM     25  C   UNL     1      10.764   5.806   4.346  0.00  0.00    +0.012 A 
ATOM     26  C   UNL     1       9.522   6.303   4.105  0.00  0.00    +0.046 A 
ATOM     27  C   UNL     1       8.579   5.594   3.362  0.00  0.00    +0.126 A 
BRANCH  27  28
ATOM     28  O   UNL     1       7.351   6.132   3.142  0.00  0.00    -0.506 OA
ATOM     29  H   UNL     1       6.698   5.913   3.821  0.00  0.00    +0.292 HD
ENDBRANCH  27  28
ENDBRANCH  17  18
ENDBRANCH   3  16
TORSDOF 6
