REMARK  Name = ZINC40735121
REMARK  11 active torsions:
REMARK  status: ('A' for Active; 'I' for Inactive)
REMARK    1  A    between atoms: C_1  and  C_2
REMARK    2  A    between atoms: C_7  and  C_8
REMARK    3  A    between atoms: C_8  and  O_9
REMARK    4  A    between atoms: O_9  and  C_10
REMARK    5  A    between atoms: C_19  and  C_20
REMARK    6  A    between atoms: C_20  and  N_21
REMARK    7  A    between atoms: N_21  and  C_22
REMARK    8  A    between atoms: C_22  and  C_23
REMARK    9  A    between atoms: C_23  and  S_24
REMARK   10  A    between atoms: S_24  and  C_25
REMARK   11  A    between atoms: N_29  and  C_30
REMARK                            x       y       z     vdW  Elec       q    Type
REMARK                         _______ _______ _______ _____ _____    ______ ____
ROOT
ATOM      1  C   UNL     1       0.053  -0.377   4.844  0.00  0.00    +0.123 A 
ATOM      2  C   UNL     1       0.030   1.010   5.024  0.00  0.00    +0.046 A 
ATOM      3  C   UNL     1       0.035   1.553   6.271  0.00  0.00    +0.012 A 
ATOM      4  C   UNL     1       0.062   0.712   7.397  0.00  0.00    -0.017 A 
ATOM      5  C   UNL     1       0.067   1.239   8.700  0.00  0.00    +0.008 A 
ATOM      6  C   UNL     1       0.093   0.396   9.768  0.00  0.00    +0.001 A 
ATOM      7  C   UNL     1       0.116  -0.986   9.591  0.00  0.00    +0.001 A 
ATOM      8  C   UNL     1       0.112  -1.533   8.345  0.00  0.00    +0.009 A 
ATOM      9  C   UNL     1       0.085  -0.694   7.217  0.00  0.00    -0.013 A 
ATOM     10  C   UNL     1       0.075  -1.223   5.916  0.00  0.00    -0.015 A 
ENDROOT
BRANCH   1  11
ATOM     11  O   UNL     1       0.048  -0.889   3.585  0.00  0.00    -0.487 OA
BRANCH  11  12
ATOM     12  C   UNL     1       0.025   0.045   2.504  0.00  0.00    +0.264 C 
BRANCH  12  19
ATOM     13  C   UNL     1      -0.018   1.503   0.010  0.00  0.00    +0.044 C 
ATOM     14  C   UNL     1       0.002  -0.004   0.002  0.00  0.00    -0.044 A 
ATOM     15  C   UNL     1       0.006  -0.689  -1.199  0.00  0.00    +0.004 A 
ATOM     16  C   UNL     1       0.025  -2.071  -1.207  0.00  0.00    +0.000 A 
ATOM     17  C   UNL     1       0.040  -2.768  -0.013  0.00  0.00    +0.000 A 
ATOM     18  C   UNL     1       0.037  -2.084   1.188  0.00  0.00    +0.007 A 
ATOM     19  C   UNL     1       0.023  -0.702   1.195  0.00  0.00    -0.007 A 
ENDBRANCH  12  19
ENDBRANCH  11  12
ENDBRANCH   1  11
BRANCH  10  20
ATOM     20  C   UNL     1       0.093  -2.715   5.704  0.00  0.00    -0.042 C 
BRANCH  20  21
ATOM     21  N   UNL     1       1.484  -3.180   5.622  0.00  0.00    +0.382 N 
ATOM     22  H   UNL     1       1.946  -2.725   4.849  0.00  0.00    -0.085 HD
ATOM     23  H   UNL     1       1.965  -2.957   6.480  0.00  0.00    -0.085 HD
BRANCH  21  24
ATOM     24  C   UNL     1       1.502  -4.635   5.415  0.00  0.00    -0.071 C 
BRANCH  24  25
ATOM     25  C   UNL     1       2.950  -5.120   5.330  0.00  0.00    +0.058 C 
BRANCH  25  26
ATOM     26  S   UNL     1       2.972  -6.916   5.074  0.00  0.00    -0.086 S 
BRANCH  26  27
ATOM     27  C   UNL     1       4.686  -7.315   4.998  0.00  0.00    +0.214 A 
ATOM     28  N   UNL     1       5.691  -6.473   5.112  0.00  0.00    -0.101 NA
ATOM     29  N   UNL     1       6.811  -7.093   5.010  0.00  0.00    -0.022 NA
ATOM     30  N   UNL     1       6.612  -8.353   4.827  0.00  0.00    -0.038 NA
ATOM     31  N   UNL     1       5.220  -8.549   4.817  0.00  0.00    -0.187 N 
BRANCH  31  32
ATOM     32  C   UNL     1       4.532  -9.759   4.653  0.00  0.00    +0.070 A 
ATOM     33  C   UNL     1       3.338  -9.977   5.327  0.00  0.00    +0.028 A 
ATOM     34  C   UNL     1       2.661 -11.170   5.163  0.00  0.00    +0.002 A 
ATOM     35  C   UNL     1       3.172 -12.147   4.329  0.00  0.00    +0.000 A 
ATOM     36  C   UNL     1       4.361 -11.934   3.656  0.00  0.00    +0.002 A 
ATOM     37  C   UNL     1       5.039 -10.740   3.812  0.00  0.00    +0.028 A 
ENDBRANCH  31  32
ENDBRANCH  26  27
ENDBRANCH  25  26
ENDBRANCH  24  25
ENDBRANCH  21  24
ENDBRANCH  20  21
ENDBRANCH  10  20
TORSDOF 10
