REMARK  Name = ZINC05867607
REMARK  7 active torsions:
REMARK  status: ('A' for Active; 'I' for Inactive)
REMARK    1  A    between atoms: C_1  and  C_2
REMARK    2  A    between atoms: C_5  and  C_8
REMARK    3  A    between atoms: C_12  and  S_14
REMARK    4  A    between atoms: S_14  and  C_15
REMARK    5  A    between atoms: C_15  and  C_17
REMARK    6  A    between atoms: C_15  and  C_18
REMARK    7  A    between atoms: N_20  and  C_21
REMARK                            x       y       z     vdW  Elec       q    Type
REMARK                         _______ _______ _______ _____ _____    ______ ____
ROOT
ATOM      1  C   UNL     1       0.111  -6.961   3.444  0.00  0.00    +0.137 C 
ATOM      2  C   UNL     1       1.410  -6.187   3.675  0.00  0.00    +0.029 C 
ENDROOT
BRANCH   1   3
ATOM      3  C   UNL     1      -0.011  -8.058   4.471  0.00  0.00    +0.230 C 
ATOM      4  O   UNL     1       0.365  -9.180   4.207  0.00  0.00    -0.274 OA
ATOM      5  N   UNL     1      -0.537  -7.791   5.682  0.00  0.00    -0.282 N 
ATOM      6  H   UNL     1      -0.778  -6.881   5.917  0.00  0.00    +0.155 HD
BRANCH   5   7
ATOM      7  C   UNL     1      -0.737  -8.828   6.603  0.00  0.00    +0.072 A 
ATOM      8  C   UNL     1       0.156  -9.889   6.659  0.00  0.00    +0.029 A 
ATOM      9  C   UNL     1      -0.041 -10.912   7.567  0.00  0.00    +0.043 A 
ATOM     10  C   UNL     1      -1.129 -10.880   8.423  0.00  0.00    +0.161 A 
ATOM     11  C   UNL     1      -2.024  -9.822   8.371  0.00  0.00    +0.195 A 
ATOM     12  C   UNL     1      -1.826  -8.793   7.466  0.00  0.00    +0.182 A 
ATOM     13  F   UNL     1      -2.694  -7.758   7.418  0.00  0.00    -0.200 F 
ATOM     14  F   UNL     1      -3.085  -9.793   9.206  0.00  0.00    -0.199 F 
ATOM     15  F   UNL     1      -1.319 -11.881   9.310  0.00  0.00    -0.202 F 
ENDBRANCH   5   7
ENDBRANCH   1   3
BRANCH   1  16
ATOM     16  S   UNL     1       0.128  -7.688   1.782  0.00  0.00    -0.074 S 
BRANCH  16  21
ATOM     17  C   UNL     1       0.111  -4.243  -0.007  0.00  0.00    +0.182 A 
ATOM     18  N   UNL     1       0.125  -4.998  -1.082  0.00  0.00    -0.152 NA
ATOM     19  H   UNL     1       0.144  -7.126  -1.203  0.00  0.00    +0.191 HD
ATOM     20  N   UNL     1       0.133  -6.332  -0.645  0.00  0.00    -0.253 N 
ATOM     21  C   UNL     1       0.124  -6.293   0.706  0.00  0.00    +0.185 A 
ATOM     22  N   UNL     1       0.116  -5.032   1.077  0.00  0.00    -0.201 NA
BRANCH  17  27
ATOM     23  C   UNL     1       0.060   1.516   0.040  0.00  0.00    +0.044 C 
ATOM     24  C   UNL     1       0.074   0.009   0.028  0.00  0.00    -0.050 A 
ATOM     25  C   UNL     1       0.082  -0.670  -1.177  0.00  0.00    +0.004 A 
ATOM     26  C   UNL     1       0.094  -2.050  -1.195  0.00  0.00    +0.012 A 
ATOM     27  C   UNL     1       0.099  -2.759   0.005  0.00  0.00    +0.021 A 
ATOM     28  C   UNL     1       0.091  -2.070   1.216  0.00  0.00    +0.012 A 
ATOM     29  C   UNL     1       0.084  -0.690   1.221  0.00  0.00    +0.004 A 
ENDBRANCH  17  27
ENDBRANCH  16  21
ENDBRANCH   1  16
TORSDOF 5
