REMARK  Name = ZINC54621181
REMARK  8 active torsions:
REMARK  status: ('A' for Active; 'I' for Inactive)
REMARK    1  A    between atoms: C_1  and  C_2
REMARK    2  A    between atoms: C_8  and  C_13
REMARK    3  A    between atoms: C_9  and  O_12
REMARK    4  A    between atoms: C_13  and  C_15
REMARK    5  A    between atoms: C_13  and  N_20
REMARK    6  A    between atoms: N_20  and  C_21
REMARK    7  A    between atoms: C_25  and  O_27
REMARK    8  A    between atoms: O_27  and  C_28
REMARK                            x       y       z     vdW  Elec       q    Type
REMARK                         _______ _______ _______ _____ _____    ______ ____
ROOT
ATOM      1  C   UNL     1       0.086  -4.769   3.747  0.00  0.00    +0.171 C 
ENDROOT
BRANCH   1   9
ATOM      2  C   UNL     1       0.731   1.561   0.166  0.00  0.00    +0.065 C 
ATOM      3  C   UNL     1       0.573   0.063   0.121  0.00  0.00    +0.039 A 
ATOM      4  C   UNL     1       0.498  -0.574  -1.116  0.00  0.00    +0.023 A 
ATOM      5  C   UNL     1       0.354  -1.931  -1.176  0.00  0.00    +0.012 A 
ATOM      6  C   UNL     1       0.286  -2.646   0.035  0.00  0.00    +0.004 A 
ATOM      7  C   UNL     1       0.140  -4.042   0.052  0.00  0.00    +0.010 A 
ATOM      8  C   UNL     1       0.078  -4.700   1.242  0.00  0.00    +0.010 A 
ATOM      9  C   UNL     1       0.158  -4.008   2.448  0.00  0.00    +0.024 A 
ATOM     10  C   UNL     1       0.301  -2.650   2.471  0.00  0.00    +0.148 A 
ATOM     11  C   UNL     1       0.369  -1.935   1.257  0.00  0.00    +0.113 A 
ATOM     12  N   UNL     1       0.514  -0.607   1.246  0.00  0.00    -0.248 NA
BRANCH  10  13
ATOM     13  O   UNL     1       0.377  -1.992   3.657  0.00  0.00    -0.504 OA
ATOM     14  H   UNL     1       1.278  -1.893   3.995  0.00  0.00    +0.292 HD
ENDBRANCH  10  13
ENDBRANCH   1   9
BRANCH   1  15
ATOM     15  C   UNL     1      -1.343  -4.815   4.223  0.00  0.00    +0.129 A 
ATOM     16  C   UNL     1      -1.885  -4.021   5.164  0.00  0.00    +0.047 A 
ATOM     17  C   UNL     1      -3.239  -4.405   5.295  0.00  0.00    +0.041 A 
ATOM     18  C   UNL     1      -3.444  -5.412   4.426  0.00  0.00    +0.195 A 
ATOM     19  O   UNL     1      -2.294  -5.652   3.776  0.00  0.00    -0.466 OA
ENDBRANCH   1  15
BRANCH   1  20
ATOM     20  N   UNL     1       0.576  -6.134   3.541  0.00  0.00    -0.330 N 
ATOM     21  H   UNL     1       0.553  -6.529   2.655  0.00  0.00    +0.147 HD
BRANCH  20  22
ATOM     22  C   UNL     1       1.075  -6.867   4.620  0.00  0.00    +0.031 A 
ATOM     23  C   UNL     1       1.102  -6.304   5.890  0.00  0.00    +0.023 A 
ATOM     24  C   UNL     1       1.596  -7.029   6.957  0.00  0.00    +0.005 A 
ATOM     25  C   UNL     1       2.064  -8.315   6.764  0.00  0.00    +0.046 A 
ATOM     26  C   UNL     1       2.039  -8.883   5.498  0.00  0.00    +0.122 A 
ATOM     27  C   UNL     1       1.540  -8.160   4.426  0.00  0.00    +0.068 A 
BRANCH  26  28
ATOM     28  O   UNL     1       2.500 -10.147   5.311  0.00  0.00    -0.495 OA
ATOM     29  C   UNL     1       2.995 -10.835   6.462  0.00  0.00    +0.277 C 
ENDBRANCH  26  28
ENDBRANCH  20  22
ENDBRANCH   1  20
TORSDOF 6
