REMARK  Name = ZINC10951946
REMARK  5 active torsions:
REMARK  status: ('A' for Active; 'I' for Inactive)
REMARK    1  A    between atoms: C_1  and  C_2
REMARK    2  A    between atoms: C_4  and  C_14
REMARK    3  A    between atoms: C_14  and  O_16
REMARK    4  A    between atoms: O_16  and  C_17
REMARK    5  A    between atoms: C_17  and  N_18
REMARK                            x       y       z     vdW  Elec       q    Type
REMARK                         _______ _______ _______ _____ _____    ______ ____
ROOT
ATOM      1  C   UNL     1      -4.786   0.943   0.039  0.00  0.00    +0.354 C 
ATOM      2  O   UNL     1      -4.655  -0.087   0.657  0.00  0.00    -0.246 OA
ENDROOT
BRANCH   1   5
ATOM      3  C   UNL     1      -4.838   3.883   0.016  0.00  0.00    +0.056 C 
ATOM      4  C   UNL     1      -3.586   3.091   0.400  0.00  0.00    +0.222 C 
ATOM      5  C   UNL     1      -3.573   1.750  -0.346  0.00  0.00    +0.321 C 
ATOM      6  O   UNL     1      -2.385   1.043   0.025  0.00  0.00    -0.470 OA
ATOM      7  C   UNL     1      -1.223   1.752   0.017  0.00  0.00    +0.163 A 
ATOM      8  C   UNL     1      -0.013   1.076   0.008  0.00  0.00    +0.049 A 
ATOM      9  C   UNL     1       1.175   1.782   0.000  0.00  0.00    +0.004 A 
ATOM     10  C   UNL     1       1.160   3.165   0.007  0.00  0.00    +0.004 A 
ATOM     11  C   UNL     1      -0.043   3.845   0.022  0.00  0.00    +0.049 A 
ATOM     12  C   UNL     1      -1.239   3.142   0.028  0.00  0.00    +0.163 A 
ATOM     13  O   UNL     1      -2.416   3.825   0.034  0.00  0.00    -0.481 OA
ENDBRANCH   1   5
BRANCH   1  14
ATOM     14  O   UNL     1      -6.012   1.368  -0.305  0.00  0.00    -0.442 OA
BRANCH  14  15
ATOM     15  C   UNL     1      -7.134   0.540   0.099  0.00  0.00    +0.352 C 
BRANCH  15  16
ATOM     16  N   UNL     1      -7.449   0.797   1.507  0.00  0.00    -0.199 N 
ATOM     17  C   UNL     1      -6.724   0.341   2.544  0.00  0.00    +0.256 C 
ATOM     18  O   UNL     1      -5.720  -0.338   2.463  0.00  0.00    -0.269 OA
ATOM     19  C   UNL     1      -7.352   0.807   3.798  0.00  0.00    +0.049 A 
ATOM     20  C   UNL     1      -7.057   0.654   5.144  0.00  0.00    +0.014 A 
ATOM     21  C   UNL     1      -7.878   1.234   6.098  0.00  0.00    +0.001 A 
ATOM     22  C   UNL     1      -8.989   1.963   5.716  0.00  0.00    +0.001 A 
ATOM     23  C   UNL     1      -9.297   2.124   4.375  0.00  0.00    +0.014 A 
ATOM     24  C   UNL     1      -8.485   1.551   3.410  0.00  0.00    +0.049 A 
ATOM     25  C   UNL     1      -8.504   1.515   1.932  0.00  0.00    +0.256 C 
ATOM     26  O   UNL     1      -9.333   2.046   1.221  0.00  0.00    -0.269 OA
ENDBRANCH  15  16
ENDBRANCH  14  15
ENDBRANCH   1  14
TORSDOF 4
