REMARK  Name = ZINC00358177
REMARK  3 active torsions:
REMARK  status: ('A' for Active; 'I' for Inactive)
REMARK    1  A    between atoms: C_4  and  C_7
REMARK    2  A    between atoms: C_10  and  C_18
REMARK    3  A    between atoms: C_14  and  C_16
REMARK                            x       y       z     vdW  Elec       q    Type
REMARK                         _______ _______ _______ _____ _____    ______ ____
ROOT
ATOM      1  C   UNL     1      -0.729   1.579   1.266  0.00  0.00    +0.069 C 
ATOM      2  C   UNL     1      -0.497   3.058   1.432  0.00  0.00    +0.007 C 
ATOM      3  C   UNL     1       0.662   3.607   1.060  0.00  0.00    +0.044 C 
ATOM      4  N   UNL     1       1.678   2.821   0.512  0.00  0.00    -0.284 N 
ATOM      5  C   UNL     1       1.401   1.607  -0.003  0.00  0.00    +0.235 C 
ATOM      6  O   UNL     1       2.291   0.933  -0.476  0.00  0.00    -0.274 OA
ATOM      7  C   UNL     1      -0.013   1.086   0.008  0.00  0.00    +0.188 C 
ATOM      8  H   UNL     1       2.590   3.151   0.501  0.00  0.00    +0.155 HD
ENDROOT
BRANCH   1  12
ATOM      9  C   UNL     1       0.799  -0.491   4.676  0.00  0.00    +0.000 A 
ATOM     10  C   UNL     1      -0.542  -0.583   4.356  0.00  0.00    +0.000 A 
ATOM     11  C   UNL     1      -1.037   0.087   3.252  0.00  0.00    +0.004 A 
ATOM     12  C   UNL     1      -0.190   0.849   2.470  0.00  0.00    -0.039 A 
ATOM     13  C   UNL     1       1.153   0.936   2.787  0.00  0.00    +0.004 A 
ATOM     14  C   UNL     1       1.646   0.270   3.893  0.00  0.00    +0.000 A 
ENDBRANCH   1  12
BRANCH   3  15
ATOM     15  C   UNL     1       0.872   5.056   1.231  0.00  0.00    +0.033 A 
ATOM     16  C   UNL     1       1.974   5.811   0.925  0.00  0.00    +0.017 A 
ATOM     17  C   UNL     1       1.938   7.165   1.173  0.00  0.00    +0.008 A 
ATOM     18  C   UNL     1       0.820   7.708   1.721  0.00  0.00    +0.046 A 
ATOM     19  S   UNL     1      -0.241   6.283   1.897  0.00  0.00    -0.095 S 
ENDBRANCH   3  15
BRANCH   7  20
ATOM     20  C   UNL     1      -0.725   1.573  -1.185  0.00  0.00    +0.076 C 
ATOM     21  N   UNL     1      -1.274   1.950  -2.105  0.00  0.00    -0.196 NA
ENDBRANCH   7  20
TORSDOF 3
