REMARK  Name = ZINC20418806
REMARK  9 active torsions:
REMARK  status: ('A' for Active; 'I' for Inactive)
REMARK    1  A    between atoms: C_1  and  C_2
REMARK    2  A    between atoms: C_7  and  N_8
REMARK    3  A    between atoms: C_9  and  C_11
REMARK    4  A    between atoms: C_11  and  C_12
REMARK    5  A    between atoms: N_16  and  C_30
REMARK    6  A    between atoms: N_18  and  C_19
REMARK    7  A    between atoms: C_22  and  S_25
REMARK    8  A    between atoms: S_25  and  N_28
REMARK    9  A    between atoms: C_30  and  C_31
REMARK                            x       y       z     vdW  Elec       q    Type
REMARK                         _______ _______ _______ _____ _____    ______ ____
ROOT
ATOM      1  C   UNL     1       2.384   1.301  -0.005  0.00  0.00    +0.149 C 
ATOM      2  C   UNL     1       1.077   2.077   0.017  0.00  0.00    +0.235 C 
ATOM      3  O   UNL     1       1.047   3.289   0.028  0.00  0.00    -0.274 OA
ATOM      4  N   UNL     1      -0.025   1.347   0.024  0.00  0.00    -0.246 N 
ATOM      5  C   UNL     1       0.003  -0.032   0.011  0.00  0.00    +0.164 C 
ATOM      6  N   UNL     1      -1.013  -0.863   0.016  0.00  0.00    -0.226 NA
ATOM      7  S   UNL     1       1.746  -0.421  -0.013  0.00  0.00    -0.077 S 
ENDROOT
BRANCH   6   8
ATOM      8  C   UNL     1      -0.792  -2.215   0.001  0.00  0.00    +0.067 A 
ATOM      9  C   UNL     1       0.149  -2.761  -0.874  0.00  0.00    +0.030 A 
ATOM     10  C   UNL     1       0.371  -4.123  -0.880  0.00  0.00    +0.030 A 
ATOM     11  C   UNL     1      -0.345  -4.947  -0.030  0.00  0.00    +0.105 A 
ATOM     12  C   UNL     1      -1.282  -4.413   0.836  0.00  0.00    +0.030 A 
ATOM     13  C   UNL     1      -1.510  -3.052   0.856  0.00  0.00    +0.030 A 
BRANCH  11  14
ATOM     14  S   UNL     1      -0.060  -6.686  -0.049  0.00  0.00    +0.056 S 
ATOM     15  O   UNL     1       1.252  -6.877  -0.559  0.00  0.00    -0.153 OA
ATOM     16  O   UNL     1      -0.463  -7.178   1.222  0.00  0.00    -0.153 OA
BRANCH  14  17
ATOM     17  N   UNL     1      -1.099  -7.340  -1.160  0.00  0.00    -0.204 NA
ATOM     18  H   UNL     1      -0.953  -8.429  -1.203  0.00  0.00    +0.144 HD
ATOM     19  H   UNL     1      -0.899  -6.904  -2.150  0.00  0.00    +0.144 HD
ENDBRANCH  14  17
ENDBRANCH  11  14
ENDBRANCH   6   8
BRANCH   1  20
ATOM     20  C   UNL     1       3.216   1.579   1.249  0.00  0.00    +0.120 C 
BRANCH  20  22
ATOM     21  N   UNL     1       5.360   0.823   2.223  0.00  0.00    -0.285 N 
ATOM     22  C   UNL     1       4.470   0.744   1.215  0.00  0.00    +0.219 C 
ATOM     23  O   UNL     1       4.678   0.000   0.279  0.00  0.00    -0.275 OA
ATOM     24  H   UNL     1       5.218   1.562   3.026  0.00  0.00    +0.155 HD
BRANCH  21  31
ATOM     25  C   UNL     1       7.683   1.669   3.632  0.00  0.00    +0.045 C 
ATOM     26  C   UNL     1       7.620   0.340   2.926  0.00  0.00    -0.029 A 
ATOM     27  C   UNL     1       8.708  -0.511   2.955  0.00  0.00    +0.005 A 
ATOM     28  C   UNL     1       8.652  -1.729   2.303  0.00  0.00    +0.000 A 
ATOM     29  C   UNL     1       7.506  -2.102   1.623  0.00  0.00    +0.002 A 
ATOM     30  C   UNL     1       6.413  -1.258   1.595  0.00  0.00    +0.023 A 
ATOM     31  C   UNL     1       6.466  -0.034   2.250  0.00  0.00    +0.036 A 
ENDBRANCH  21  31
ENDBRANCH  20  22
ENDBRANCH   1  20
BRANCH   4  32
ATOM     32  C   UNL     1      -1.323   2.027   0.039  0.00  0.00    +0.142 C 
BRANCH  32  33
ATOM     33  C   UNL     1      -1.758   2.248   1.465  0.00  0.00    -0.015 C 
ATOM     34  C   UNL     1      -2.060   3.453   1.878  0.00  0.00    +0.005 C 
ENDBRANCH  32  33
ENDBRANCH   4  32
TORSDOF 8
