REMARK  Name = ZINC44021149
REMARK  5 active torsions:
REMARK  status: ('A' for Active; 'I' for Inactive)
REMARK    1  A    between atoms: C_1  and  C_2
REMARK    2  A    between atoms: C_5  and  N_9
REMARK    3  A    between atoms: C_7  and  O_8
REMARK    4  A    between atoms: N_9  and  C_10
REMARK    5  A    between atoms: N_14  and  C_19
REMARK                            x       y       z     vdW  Elec       q    Type
REMARK                         _______ _______ _______ _____ _____    ______ ____
ROOT
ATOM      1  C   UNL     1      -0.043  -4.850  -1.216  0.00  0.00    +0.109 A 
ATOM      2  C   UNL     1      -0.224  -6.205  -1.224  0.00  0.00    +0.112 A 
ATOM      3  C   UNL     1      -0.326  -6.871  -2.456  0.00  0.00    +0.259 A 
ATOM      4  O   UNL     1      -0.488  -8.079  -2.488  0.00  0.00    -0.267 OA
ATOM      5  N   UNL     1      -0.244  -6.167  -3.602  0.00  0.00    -0.255 N 
ATOM      6  C   UNL     1      -0.066  -4.834  -3.575  0.00  0.00    +0.331 A 
ATOM      7  O   UNL     1       0.006  -4.218  -4.621  0.00  0.00    -0.246 OA
ATOM      8  N   UNL     1       0.029  -4.171  -2.408  0.00  0.00    -0.295 N 
ATOM      9  H   UNL     1       0.154  -3.209  -2.409  0.00  0.00    +0.172 HD
ENDROOT
BRANCH   5  10
ATOM     10  C   UNL     1      -0.351  -6.860  -4.889  0.00  0.00    +0.054 C 
ATOM     11  C   UNL     1      -1.535  -6.295  -5.676  0.00  0.00    +0.032 C 
ATOM     12  C   UNL     1      -1.646  -7.018  -7.019  0.00  0.00    -0.008 C 
ATOM     13  C   UNL     1      -1.861  -8.514  -6.777  0.00  0.00    +0.007 C 
ATOM     14  C   UNL     1      -0.677  -9.078  -5.991  0.00  0.00    -0.008 C 
ATOM     15  C   UNL     1      -0.566  -8.355  -4.647  0.00  0.00    +0.032 C 
ATOM     16  C   UNL     1       0.611  -8.871  -6.790  0.00  0.00    +0.007 C 
ATOM     17  C   UNL     1       0.826  -7.376  -7.032  0.00  0.00    -0.008 C 
ATOM     18  C   UNL     1      -0.358  -6.811  -7.818  0.00  0.00    +0.007 C 
ATOM     19  C   UNL     1       0.938  -6.652  -5.688  0.00  0.00    +0.032 C 
ENDBRANCH   5  10
BRANCH   1  20
ATOM     20  N   UNL     1       0.061  -4.173  -0.026  0.00  0.00    -0.301 N 
ATOM     21  H   UNL     1      -0.083  -4.640   0.812  0.00  0.00    +0.154 HD
BRANCH  20  26
ATOM     22  C   UNL     1       1.334   1.358  -0.021  0.00  0.00    +0.047 C 
ATOM     23  C   UNL     1       0.996  -0.110  -0.021  0.00  0.00    -0.009 A 
ATOM     24  C   UNL     1       1.631  -0.965  -0.901  0.00  0.00    +0.009 A 
ATOM     25  C   UNL     1       1.324  -2.312  -0.905  0.00  0.00    +0.024 A 
ATOM     26  C   UNL     1       0.373  -2.810  -0.022  0.00  0.00    +0.036 A 
ATOM     27  C   UNL     1      -0.266  -1.953   0.863  0.00  0.00    +0.069 A 
ATOM     28  C   UNL     1       0.050  -0.603   0.867  0.00  0.00    +0.122 A 
BRANCH  28  29
ATOM     29  O   UNL     1      -0.571   0.237   1.736  0.00  0.00    -0.506 OA
ATOM     30  H   UNL     1      -1.386   0.627   1.392  0.00  0.00    +0.292 HD
ENDBRANCH  28  29
ENDBRANCH  20  26
ENDBRANCH   1  20
TORSDOF 4
