REMARK  Name = ZINC23974445
REMARK  11 active torsions:
REMARK  status: ('A' for Active; 'I' for Inactive)
REMARK    1  A    between atoms: C_1  and  C_2
REMARK    2  A    between atoms: C_7  and  N_8
REMARK    3  A    between atoms: C_9  and  C_11
REMARK    4  A    between atoms: C_11  and  C_13
REMARK    5  A    between atoms: C_11  and  O_14
REMARK    6  A    between atoms: O_14  and  C_15
REMARK    7  A    between atoms: C_15  and  C_17
REMARK    8  A    between atoms: C_17  and  N_18
REMARK    9  A    between atoms: C_23  and  C_30
REMARK   10  A    between atoms: C_26  and  C_28
REMARK   11  A    between atoms: C_26  and  C_29
REMARK                            x       y       z     vdW  Elec       q    Type
REMARK                         _______ _______ _______ _____ _____    ______ ____
ROOT
ATOM      1  C   UNL     1       8.133   2.952  -1.465  0.00  0.00    +0.238 C 
ENDROOT
BRANCH   1   2
ATOM      2  N   UNL     1       9.143   2.261  -2.268  0.00  0.00    -0.213 N 
ATOM      3  C   UNL     1      10.182   1.569  -1.752  0.00  0.00    +0.247 C 
ATOM      4  O   UNL     1      10.506   1.526  -0.585  0.00  0.00    -0.273 OA
ATOM      5  C   UNL     1      10.850   0.901  -2.930  0.00  0.00    +0.113 C 
ATOM      6  C   UNL     1      12.344   1.188  -2.940  0.00  0.00    +0.038 C 
ATOM      7  C   UNL     1      13.040   0.380  -1.844  0.00  0.00    -0.011 C 
ATOM      8  C   UNL     1      12.842  -1.107  -2.132  0.00  0.00    +0.009 C 
ATOM      9  C   UNL     1      11.363  -1.475  -2.109  0.00  0.00    -0.032 C 
ATOM     10  C   UNL     1      10.526  -0.577  -3.005  0.00  0.00    +0.041 C 
ATOM     11  C   UNL     1      10.836  -1.448  -0.671  0.00  0.00    +0.011 C 
ATOM     12  C   UNL     1      11.229  -2.924  -2.625  0.00  0.00    +0.011 C 
ATOM     13  C   UNL     1      14.537   0.704  -1.850  0.00  0.00    +0.007 C 
ATOM     14  N   UNL     1      10.227   1.581  -4.090  0.00  0.00    -0.285 N 
ATOM     15  C   UNL     1       9.168   2.252  -3.606  0.00  0.00    +0.310 C 
ATOM     16  O   UNL     1       8.329   2.789  -4.302  0.00  0.00    -0.252 OA
ATOM     17  H   UNL     1      10.662   1.464  -5.093  0.00  0.00    +0.151 HD
ENDBRANCH   1   2
BRANCH   1  18
ATOM     18  C   UNL     1       6.981   2.018  -1.195  0.00  0.00    +0.326 C 
ATOM     19  O   UNL     1       7.003   0.891  -1.630  0.00  0.00    -0.249 OA
BRANCH  18  20
ATOM     20  O   UNL     1       5.931   2.438  -0.473  0.00  0.00    -0.451 OA
BRANCH  20  21
ATOM     21  C   UNL     1       4.858   1.485  -0.253  0.00  0.00    +0.259 C 
ATOM     22  C   UNL     1       5.130   0.698   1.031  0.00  0.00    +0.062 C 
BRANCH  21  24
ATOM     23  N   UNL     1       2.397   1.533  -0.013  0.00  0.00    -0.282 N 
ATOM     24  C   UNL     1       3.550   2.222  -0.122  0.00  0.00    +0.258 C 
ATOM     25  O   UNL     1       3.535   3.435  -0.115  0.00  0.00    -0.271 OA
ATOM     26  H   UNL     1       2.416   0.436   0.055  0.00  0.00    +0.155 HD
BRANCH  23  33
ATOM     27  C   UNL     1       0.144   0.302  -1.241  0.00  0.00    +0.045 C 
ATOM     28  C   UNL     1       0.050   1.650  -0.574  0.00  0.00    -0.029 A 
ATOM     29  C   UNL     1      -1.153   2.329  -0.551  0.00  0.00    +0.005 A 
ATOM     30  C   UNL     1      -1.241   3.563   0.065  0.00  0.00    +0.000 A 
ATOM     31  C   UNL     1      -0.123   4.128   0.651  0.00  0.00    +0.002 A 
ATOM     32  C   UNL     1       1.084   3.458   0.627  0.00  0.00    +0.023 A 
ATOM     33  C   UNL     1       1.175   2.215   0.013  0.00  0.00    +0.036 A 
ENDBRANCH  23  33
ENDBRANCH  21  24
ENDBRANCH  20  21
ENDBRANCH  18  20
ENDBRANCH   1  18
TORSDOF 6
