REMARK  Name = ZINC18074582
REMARK  8 active torsions:
REMARK  status: ('A' for Active; 'I' for Inactive)
REMARK    1  A    between atoms: C_1  and  O_2
REMARK    2  A    between atoms: O_2  and  C_3
REMARK    3  A    between atoms: C_6  and  C_9
REMARK    4  A    between atoms: C_9  and  C_11
REMARK    5  A    between atoms: C_9  and  C_23
REMARK    6  A    between atoms: C_11  and  N_12
REMARK    7  A    between atoms: C_13  and  C_15
REMARK    8  A    between atoms: C_15  and  C_16
REMARK                            x       y       z     vdW  Elec       q    Type
REMARK                         _______ _______ _______ _____ _____    ______ ____
ROOT
ATOM      1  C   UNL     1      -4.981  -2.629   0.035  0.00  0.00    +0.068 C 
ENDROOT
BRANCH   1   2
ATOM      2  C   UNL     1      -5.085  -3.493   1.265  0.00  0.00    -0.013 A 
ATOM      3  C   UNL     1      -4.271  -4.505   1.602  0.00  0.00    +0.088 A 
ATOM      4  N   UNL     1      -4.676  -5.057   2.786  0.00  0.00    -0.360 N 
ATOM      5  H   UNL     1      -4.243  -5.802   3.231  0.00  0.00    +0.165 HD
ATOM      6  C   UNL     1      -5.790  -4.396   3.253  0.00  0.00    +0.047 A 
ATOM      7  C   UNL     1      -6.092  -3.384   2.324  0.00  0.00    +0.003 A 
ATOM      8  C   UNL     1      -7.182  -2.540   2.543  0.00  0.00    +0.010 A 
ATOM      9  C   UNL     1      -7.950  -2.700   3.662  0.00  0.00    +0.001 A 
ATOM     10  C   UNL     1      -7.654  -3.695   4.584  0.00  0.00    +0.002 A 
ATOM     11  C   UNL     1      -6.588  -4.545   4.383  0.00  0.00    +0.026 A 
ENDBRANCH   1   2
BRANCH   1  15
ATOM     12  C   UNL     1      -1.200  -0.637   0.010  0.00  0.00    +0.120 A 
ATOM     13  C   UNL     1      -2.375   0.101   0.019  0.00  0.00    +0.046 A 
ATOM     14  C   UNL     1      -3.596  -0.545   0.027  0.00  0.00    +0.008 A 
ATOM     15  C   UNL     1      -3.648  -1.927   0.026  0.00  0.00    -0.038 A 
ATOM     16  C   UNL     1      -2.479  -2.665   0.017  0.00  0.00    +0.008 A 
ATOM     17  C   UNL     1      -1.255  -2.024   0.003  0.00  0.00    +0.046 A 
BRANCH  12  19
ATOM     18  C   UNL     1      -0.017   1.425   0.010  0.00  0.00    +0.277 C 
ATOM     19  O   UNL     1       0.002  -0.004   0.002  0.00  0.00    -0.495 OA
ENDBRANCH  12  19
ENDBRANCH   1  15
BRANCH   1  20
ATOM     20  C   UNL     1      -5.105  -3.504  -1.214  0.00  0.00    +0.117 C 
BRANCH  20  21
ATOM     21  N   UNL     1      -6.446  -4.093  -1.267  0.00  0.00    -0.314 N 
ATOM     22  C   UNL     1      -6.785  -4.905  -2.287  0.00  0.00    +0.217 C 
ATOM     23  O   UNL     1      -5.981  -5.149  -3.162  0.00  0.00    -0.275 OA
ATOM     24  H   UNL     1      -7.089  -3.898  -0.568  0.00  0.00    +0.149 HD
BRANCH  22  25
ATOM     25  C   UNL     1      -8.164  -5.511  -2.341  0.00  0.00    +0.130 C 
BRANCH  25  26
ATOM     26  C   UNL     1      -8.286  -6.372  -3.572  0.00  0.00    -0.039 A 
ATOM     27  C   UNL     1      -8.728  -5.821  -4.760  0.00  0.00    +0.005 A 
ATOM     28  C   UNL     1      -8.840  -6.610  -5.889  0.00  0.00    +0.015 A 
ATOM     29  C   UNL     1      -8.510  -7.952  -5.830  0.00  0.00    +0.018 A 
ATOM     30  C   UNL     1      -8.068  -8.504  -4.641  0.00  0.00    +0.015 A 
ATOM     31  C   UNL     1      -7.952  -7.712  -3.514  0.00  0.00    +0.005 A 
ATOM     32 BR   UNL     1      -8.663  -9.033  -7.374  0.00  0.00    -0.050 Br
ENDBRANCH  25  26
ENDBRANCH  22  25
ENDBRANCH  20  21
ENDBRANCH   1  20
TORSDOF 7
