REMARK  Name = ZINC13065185
REMARK  17 active torsions:
REMARK  status: ('A' for Active; 'I' for Inactive)
REMARK    1  A    between atoms: C_1  and  C_2
REMARK    2  A    between atoms: C_2  and  C_3
REMARK    3  A    between atoms: C_3  and  C_5
REMARK    4  A    between atoms: C_3  and  N_75
REMARK    5  A    between atoms: N_9  and  C_10
REMARK    6  A    between atoms: C_10  and  C_11
REMARK    7  A    between atoms: C_10  and  C_12
REMARK    8  A    between atoms: C_10  and  C_13
REMARK    9  A    between atoms: C_13  and  C_14
REMARK   10  A    between atoms: C_15  and  C_16
REMARK   11  A    between atoms: C_15  and  N_75
REMARK   12  A    between atoms: C_21  and  O_22
REMARK   13  A    between atoms: O_22  and  C_23
REMARK   14  A    between atoms: C_24  and  C_25
REMARK   15  A    between atoms: C_24  and  N_75
REMARK   16  A    between atoms: C_28  and  C_38
REMARK   17  A    between atoms: C_31  and  C_37
REMARK                            x       y       z     vdW  Elec       q    Type
REMARK                         _______ _______ _______ _____ _____    ______ ____
ROOT
ATOM      1  N   UNL     1       3.266  -0.672   0.072  0.00  0.00    +0.392 N 
ATOM      2  H   UNL     1       2.743  -1.457   0.479  0.00  0.00    -0.080 HD
ENDROOT
BRANCH   1   3
ATOM      3  C   UNL     1       2.307   0.332  -0.435  0.00  0.00    +0.003 C 
BRANCH   3   4
ATOM      4  C   UNL     1       1.115  -0.388  -1.010  0.00  0.00    +0.139 A 
ATOM      5  N   UNL     1       1.137  -1.461  -1.763  0.00  0.00    -0.115 NA
ATOM      6  N   UNL     1      -0.080  -1.767  -2.055  0.00  0.00    -0.023 NA
ATOM      7  N   UNL     1      -0.878  -0.921  -1.503  0.00  0.00    -0.043 NA
ATOM      8  N   UNL     1      -0.180  -0.057  -0.847  0.00  0.00    -0.225 N 
BRANCH   8   9
ATOM      9  C   UNL     1      -0.697   1.076  -0.076  0.00  0.00    +0.061 C 
ATOM     10  C   UNL     1      -0.031   2.367  -0.555  0.00  0.00    +0.036 C 
ATOM     11  C   UNL     1      -0.391   0.865   1.408  0.00  0.00    +0.036 C 
BRANCH   9  12
ATOM     12  C   UNL     1      -2.211   1.179  -0.274  0.00  0.00    +0.026 C 
ATOM     13  C   UNL     1      -2.752   2.362   0.532  0.00  0.00    +0.006 C 
ENDBRANCH   9  12
ENDBRANCH   8   9
ENDBRANCH   3   4
BRANCH   3  15
ATOM     14  C   UNL     1       4.077   2.031  -0.906  0.00  0.00    +0.002 C 
ATOM     15  C   UNL     1       2.958   1.190  -1.522  0.00  0.00    -0.011 C 
ENDBRANCH   3  15
ENDBRANCH   1   3
BRANCH   1  16
ATOM     16  C   UNL     1       4.103  -1.177  -1.036  0.00  0.00    -0.038 C 
BRANCH  16  17
ATOM     17  C   UNL     1       4.803  -2.431  -0.582  0.00  0.00    -0.022 A 
ATOM     18  C   UNL     1       6.142  -2.391  -0.240  0.00  0.00    +0.005 A 
ATOM     19  C   UNL     1       6.784  -3.540   0.181  0.00  0.00    +0.000 A 
ATOM     20  C   UNL     1       6.091  -4.735   0.252  0.00  0.00    +0.004 A 
ATOM     21  C   UNL     1       4.755  -4.782  -0.093  0.00  0.00    +0.046 A 
ATOM     22  C   UNL     1       4.107  -3.629  -0.511  0.00  0.00    +0.121 A 
BRANCH  22  23
ATOM     23  O   UNL     1       2.792  -3.672  -0.852  0.00  0.00    -0.495 OA
ATOM     24  C   UNL     1       2.138  -4.939  -0.755  0.00  0.00    +0.277 C 
ENDBRANCH  22  23
ENDBRANCH  16  17
ENDBRANCH   1  16
BRANCH   1  25
ATOM     25  C   UNL     1       4.120  -0.072   1.118  0.00  0.00    -0.036 C 
BRANCH  25  26
ATOM     26  C   UNL     1       3.351  -0.046   2.414  0.00  0.00    +0.001 A 
ATOM     27  C   UNL     1       3.460  -1.079   3.285  0.00  0.00    +0.017 A 
ATOM     28  C   UNL     1       2.703  -1.022   4.537  0.00  0.00    +0.002 A 
ATOM     29  C   UNL     1       2.780  -2.055   5.477  0.00  0.00    -0.041 A 
ATOM     30  C   UNL     1       2.058  -1.972   6.633  0.00  0.00    +0.004 A 
ATOM     31  C   UNL     1       1.248  -0.872   6.885  0.00  0.00    +0.005 A 
ATOM     32  C   UNL     1       1.158   0.157   5.973  0.00  0.00    -0.026 A 
ATOM     33  C   UNL     1       1.884   0.095   4.788  0.00  0.00    +0.052 A 
ATOM     34  N   UNL     1       1.813   1.111   3.858  0.00  0.00    -0.322 N 
ATOM     35  H   UNL     1       1.248   1.880   4.033  0.00  0.00    +0.169 HD
ATOM     36  C   UNL     1       2.515   1.051   2.713  0.00  0.00    +0.251 A 
ATOM     37  O   UNL     1       2.428   1.967   1.914  0.00  0.00    -0.268 OA
ATOM     38  C   UNL     1       0.276   1.345   6.258  0.00  0.00    +0.046 C 
ATOM     39  C   UNL     1       3.655  -3.253   5.215  0.00  0.00    +0.044 C 
ENDBRANCH  25  26
ENDBRANCH   1  25
TORSDOF 10
