REMARK  Name = ZINC09059708
REMARK  7 active torsions:
REMARK  status: ('A' for Active; 'I' for Inactive)
REMARK    1  A    between atoms: C_1  and  C_2
REMARK    2  A    between atoms: C_12  and  C_13
REMARK    3  A    between atoms: C_13  and  C_14
REMARK    4  A    between atoms: N_16  and  C_17
REMARK    5  A    between atoms: C_17  and  C_18
REMARK    6  A    between atoms: C_18  and  C_19
REMARK    7  A    between atoms: C_27  and  C_28
REMARK                            x       y       z     vdW  Elec       q    Type
REMARK                         _______ _______ _______ _____ _____    ______ ____
ROOT
ATOM      1  C   UNL     1       0.011   1.491   0.253  0.00  0.00    +0.045 C 
ATOM      2  C   UNL     1       0.016  -0.009   0.116  0.00  0.00    -0.029 A 
ATOM      3  C   UNL     1      -1.227  -0.779   0.223  0.00  0.00    +0.022 A 
ATOM      4  C   UNL     1      -2.446  -0.139   0.454  0.00  0.00    +0.024 A 
ATOM      5  C   UNL     1      -3.602  -0.896   0.548  0.00  0.00    +0.029 A 
ATOM      6  C   UNL     1      -3.554  -2.297   0.414  0.00  0.00    +0.139 A 
ATOM      7  C   UNL     1      -2.340  -2.928   0.184  0.00  0.00    +0.093 A 
ATOM      8  C   UNL     1      -1.177  -2.182   0.088  0.00  0.00    +0.143 A 
ATOM      9  O   UNL     1       0.009  -2.791  -0.135  0.00  0.00    -0.422 OA
ATOM     10  C   UNL     1       1.149  -2.091  -0.234  0.00  0.00    +0.341 A 
ATOM     11  O   UNL     1       2.193  -2.684  -0.436  0.00  0.00    -0.245 OA
ATOM     12  C   UNL     1       1.171  -0.685  -0.114  0.00  0.00    +0.049 A 
ATOM     13  O   UNL     1      -4.814  -2.759   0.551  0.00  0.00    -0.462 OA
ATOM     14  C   UNL     1      -5.680  -1.753   0.765  0.00  0.00    +0.204 A 
ATOM     15  C   UNL     1      -5.024  -0.572   0.780  0.00  0.00    +0.028 A 
ENDROOT
BRANCH  15  16
ATOM     16  C   UNL     1      -5.611   0.774   0.986  0.00  0.00    -0.014 A 
ATOM     17  C   UNL     1      -5.052   1.645   1.919  0.00  0.00    +0.010 A 
ATOM     18  C   UNL     1      -5.602   2.897   2.108  0.00  0.00    +0.020 A 
ATOM     19  C   UNL     1      -6.708   3.287   1.372  0.00  0.00    +0.041 A 
ATOM     20  C   UNL     1      -7.267   2.425   0.444  0.00  0.00    +0.020 A 
ATOM     21  C   UNL     1      -6.721   1.174   0.243  0.00  0.00    +0.010 A 
ATOM     22 CL   UNL     1      -7.396   4.862   1.614  0.00  0.00    -0.084 Cl
ENDBRANCH  15  16
BRANCH  12  23
ATOM     23  C   UNL     1       2.472   0.065  -0.238  0.00  0.00    +0.138 C 
BRANCH  23  24
ATOM     24  C   UNL     1       3.163   0.094   1.101  0.00  0.00    +0.218 C 
ATOM     25  O   UNL     1       2.650  -0.440   2.061  0.00  0.00    -0.275 OA
ATOM     26  N   UNL     1       4.353   0.715   1.232  0.00  0.00    -0.315 N 
ATOM     27  H   UNL     1       4.764   1.143   0.464  0.00  0.00    +0.149 HD
BRANCH  26  28
ATOM     28  C   UNL     1       5.025   0.744   2.534  0.00  0.00    +0.110 C 
BRANCH  28  29
ATOM     29  C   UNL     1       6.346   1.505   2.408  0.00  0.00    +0.073 C 
BRANCH  29  30
ATOM     30  C   UNL     1       7.037   1.534   3.747  0.00  0.00    +0.035 A 
ATOM     31  C   UNL     1       6.824   2.417   4.741  0.00  0.00    +0.105 A 
ATOM     32  N   UNL     1       7.637   2.100   5.760  0.00  0.00    -0.352 N 
ATOM     33  C   UNL     1       8.346   1.054   5.435  0.00  0.00    +0.171 A 
ATOM     34  N   UNL     1       7.999   0.666   4.189  0.00  0.00    -0.350 N 
ATOM     35  H   UNL     1       8.364  -0.087   3.698  0.00  0.00    +0.166 HD
ATOM     36  H   UNL     1       7.689   2.574   6.605  0.00  0.00    +0.166 HD
ENDBRANCH  29  30
ENDBRANCH  28  29
ENDBRANCH  26  28
ENDBRANCH  23  24
ENDBRANCH  12  23
TORSDOF 6
