REMARK  Name = ZINC13498465
REMARK  14 active torsions:
REMARK  status: ('A' for Active; 'I' for Inactive)
REMARK    1  A    between atoms: C_1  and  C_2
REMARK    2  A    between atoms: C_2  and  C_3
REMARK    3  A    between atoms: C_10  and  C_15
REMARK    4  A    between atoms: C_15  and  N_69
REMARK    5  A    between atoms: C_16  and  C_17
REMARK    6  A    between atoms: C_16  and  N_69
REMARK    7  A    between atoms: C_17  and  C_18
REMARK    8  A    between atoms: C_18  and  O_19
REMARK    9  A    between atoms: C_20  and  C_22
REMARK   10  A    between atoms: C_20  and  C_32
REMARK   11  A    between atoms: C_20  and  N_69
REMARK   12  A    between atoms: N_26  and  C_27
REMARK   13  A    between atoms: C_32  and  C_33
REMARK   14  A    between atoms: C_32  and  C_34
REMARK                            x       y       z     vdW  Elec       q    Type
REMARK                         _______ _______ _______ _____ _____    ______ ____
ROOT
ATOM      1  N   UNL     1      -3.194   4.925   1.667  0.00  0.00    +0.389 N 
ATOM      2  H   UNL     1      -3.016   4.151   2.318  0.00  0.00    -0.080 HD
ENDROOT
BRANCH   1   3
ATOM      3  C   UNL     1      -2.791   4.511   0.307  0.00  0.00    -0.037 C 
BRANCH   3  11
ATOM      4  C   UNL     1       1.325  -0.088   0.741  0.00  0.00    -0.047 A 
ATOM      5  C   UNL     1       2.458   0.712   0.699  0.00  0.00    +0.005 A 
ATOM      6  C   UNL     1       2.348   2.082   0.591  0.00  0.00    +0.026 A 
ATOM      7  C   UNL     1       1.089   2.670   0.523  0.00  0.00    +0.049 A 
ATOM      8  C   UNL     1      -0.058   1.855   0.565  0.00  0.00    -0.001 A 
ATOM      9  C   UNL     1       0.078   0.467   0.675  0.00  0.00    +0.013 A 
ATOM     10  C   UNL     1      -1.378   2.484   0.499  0.00  0.00    +0.017 A 
ATOM     11  C   UNL     1      -1.448   3.833   0.385  0.00  0.00    +0.001 A 
ATOM     12  C   UNL     1      -0.267   4.605   0.347  0.00  0.00    +0.251 A 
ATOM     13  O   UNL     1      -0.352   5.817   0.251  0.00  0.00    -0.268 OA
ATOM     14  N   UNL     1       0.950   4.037   0.414  0.00  0.00    -0.322 N 
ATOM     15  H   UNL     1       1.741   4.597   0.385  0.00  0.00    +0.169 HD
BRANCH   4  17
ATOM     16  C   UNL     1       1.546  -2.201  -0.538  0.00  0.00    +0.009 C 
ATOM     17  C   UNL     1       1.470  -1.584   0.859  0.00  0.00    +0.032 C 
ENDBRANCH   4  17
ENDBRANCH   3  11
ENDBRANCH   1   3
BRANCH   1  18
ATOM     18  C   UNL     1      -2.405   6.101   2.092  0.00  0.00    -0.075 C 
BRANCH  18  19
ATOM     19  C   UNL     1      -2.694   6.382   3.568  0.00  0.00    +0.009 C 
BRANCH  19  20
ATOM     20  C   UNL     1      -1.768   7.494   4.066  0.00  0.00    +0.154 C 
BRANCH  20  21
ATOM     21  O   UNL     1      -2.038   7.756   5.444  0.00  0.00    -0.395 OA
ATOM     22  H   UNL     1      -1.486   8.452   5.827  0.00  0.00    +0.209 HD
ENDBRANCH  20  21
ENDBRANCH  19  20
ENDBRANCH  18  19
ENDBRANCH   1  18
BRANCH   1  23
ATOM     23  C   UNL     1      -4.636   5.249   1.690  0.00  0.00    +0.006 C 
BRANCH  23  24
ATOM     24  C   UNL     1      -5.065   5.833   0.368  0.00  0.00    +0.139 A 
ATOM     25  N   UNL     1      -4.869   5.311  -0.818  0.00  0.00    -0.115 NA
ATOM     26  N   UNL     1      -5.381   6.107  -1.692  0.00  0.00    -0.023 NA
ATOM     27  N   UNL     1      -5.898   7.123  -1.094  0.00  0.00    -0.044 NA
ATOM     28  N   UNL     1      -5.728   6.988   0.178  0.00  0.00    -0.228 N 
BRANCH  28  29
ATOM     29  C   UNL     1      -6.171   7.920   1.218  0.00  0.00    +0.111 C 
ATOM     30  C   UNL     1      -7.699   8.116   1.136  0.00  0.00    +0.027 C 
ATOM     31  C   UNL     1      -7.907   9.614   1.474  0.00  0.00    +0.002 C 
ATOM     32  C   UNL     1      -6.700  10.293   0.780  0.00  0.00    +0.002 C 
ATOM     33  C   UNL     1      -5.536   9.303   0.992  0.00  0.00    +0.027 C 
ENDBRANCH  28  29
ENDBRANCH  23  24
BRANCH  23  34
ATOM     34  C   UNL     1      -5.420   3.963   1.958  0.00  0.00    -0.024 C 
ATOM     35  C   UNL     1      -6.919   4.270   1.957  0.00  0.00    +0.006 C 
ATOM     36  C   UNL     1      -5.109   2.939   0.865  0.00  0.00    +0.006 C 
ENDBRANCH  23  34
ENDBRANCH   1  23
TORSDOF 11
