REMARK  Name = ZINC20580626
REMARK  9 active torsions:
REMARK  status: ('A' for Active; 'I' for Inactive)
REMARK    1  A    between atoms: C_1  and  C_2
REMARK    2  A    between atoms: C_5  and  C_21
REMARK    3  A    between atoms: C_7  and  S_8
REMARK    4  A    between atoms: S_8  and  N_11
REMARK    5  A    between atoms: N_11  and  C_12
REMARK    6  A    between atoms: C_15  and  O_19
REMARK    7  A    between atoms: O_19  and  C_20
REMARK    8  A    between atoms: C_22  and  C_27
REMARK    9  A    between atoms: C_23  and  C_26
REMARK                            x       y       z     vdW  Elec       q    Type
REMARK                         _______ _______ _______ _____ _____    ______ ____
ROOT
ATOM      1  C   UNL     1       1.641   2.965   0.694  0.00  0.00    +0.046 C 
ATOM      2  C   UNL     1       1.122   4.315   0.270  0.00  0.00    -0.024 A 
ATOM      3  C   UNL     1       1.981   5.233  -0.308  0.00  0.00    +0.006 A 
ATOM      4  C   UNL     1       1.513   6.470  -0.698  0.00  0.00    +0.012 A 
ATOM      5  C   UNL     1       0.169   6.795  -0.508  0.00  0.00    +0.022 A 
ATOM      6  C   UNL     1      -0.694   5.863   0.071  0.00  0.00    +0.040 A 
ATOM      7  C   UNL     1      -0.211   4.631   0.461  0.00  0.00    +0.112 A 
ENDROOT
BRANCH   5   8
ATOM      8  C   UNL     1      -0.341   8.120  -0.924  0.00  0.00    +0.170 A 
ATOM      9  C   UNL     1       0.245   9.335  -0.694  0.00  0.00    +0.019 A 
ATOM     10  C   UNL     1      -0.641  10.255  -1.292  0.00  0.00    +0.084 A 
ATOM     11  N   UNL     1      -1.618   9.557  -1.796  0.00  0.00    -0.083 NA
ATOM     12  O   UNL     1      -1.470   8.372  -1.609  0.00  0.00    -0.354 OA
ATOM     13  C   UNL     1      -0.486  11.753  -1.339  0.00  0.00    +0.069 C 
ATOM     14  C   UNL     1       1.535   9.622   0.029  0.00  0.00    +0.049 C 
ENDBRANCH   5   8
BRANCH   7  15
ATOM     15  S   UNL     1      -1.296   3.455   1.199  0.00  0.00    +0.073 S 
ATOM     16  O   UNL     1      -2.594   4.033   1.181  0.00  0.00    -0.150 OA
ATOM     17  O   UNL     1      -0.671   3.022   2.399  0.00  0.00    -0.150 OA
BRANCH  15  18
ATOM     18  N   UNL     1      -1.350   2.141   0.193  0.00  0.00    -0.216 N 
ATOM     19  H   UNL     1      -1.002   1.160   0.549  0.00  0.00    +0.174 HD
BRANCH  18  20
ATOM     20  C   UNL     1      -1.839   2.277  -1.111  0.00  0.00    +0.050 A 
ATOM     21  C   UNL     1      -3.020   2.971  -1.341  0.00  0.00    +0.028 A 
ATOM     22  C   UNL     1      -3.506   3.101  -2.628  0.00  0.00    +0.049 A 
ATOM     23  C   UNL     1      -2.814   2.539  -3.691  0.00  0.00    +0.138 A 
ATOM     24  C   UNL     1      -1.634   1.846  -3.462  0.00  0.00    +0.084 A 
ATOM     25  C   UNL     1      -1.147   1.715  -2.175  0.00  0.00    +0.048 A 
ATOM     26 CL   UNL     1      -0.768   1.143  -4.793  0.00  0.00    -0.080 Cl
BRANCH  23  27
ATOM     27  O   UNL     1      -3.293   2.668  -4.957  0.00  0.00    -0.494 OA
ATOM     28  C   UNL     1      -4.513   3.394  -5.119  0.00  0.00    +0.277 C 
ENDBRANCH  23  27
ENDBRANCH  18  20
ENDBRANCH  15  18
ENDBRANCH   7  15
TORSDOF 5
