REMARK  Name = ZINC18355863
REMARK  10 active torsions:
REMARK  status: ('A' for Active; 'I' for Inactive)
REMARK    1  A    between atoms: C_1  and  C_2
REMARK    2  A    between atoms: C_2  and  C_3
REMARK    3  A    between atoms: C_2  and  C_4
REMARK    4  A    between atoms: C_4  and  C_6
REMARK    5  A    between atoms: C_4  and  N_16
REMARK    6  A    between atoms: C_17  and  C_19
REMARK    7  A    between atoms: C_19  and  S_20
REMARK    8  A    between atoms: S_20  and  C_21
REMARK    9  A    between atoms: C_24  and  C_27
REMARK   10  A    between atoms: N_25  and  N_26
REMARK                            x       y       z     vdW  Elec       q    Type
REMARK                         _______ _______ _______ _____ _____    ______ ____
ROOT
ATOM      1  N   UNL     1      -5.323   0.134   0.163  0.00  0.00    -0.308 N 
ATOM      2  C   UNL     1      -6.192  -0.631   0.852  0.00  0.00    +0.224 C 
ATOM      3  O   UNL     1      -6.303  -1.810   0.589  0.00  0.00    -0.275 OA
ATOM      4  H   UNL     1      -5.234   1.077   0.373  0.00  0.00    +0.149 HD
ENDROOT
BRANCH   1   5
ATOM      5  C   UNL     1      -4.511  -0.458  -0.903  0.00  0.00    +0.106 C 
BRANCH   5   6
ATOM      6  C   UNL     1      -3.255   0.354  -1.088  0.00  0.00    -0.023 A 
ATOM      7  C   UNL     1      -3.310   1.734  -1.023  0.00  0.00    +0.009 A 
ATOM      8  C   UNL     1      -2.162   2.483  -1.198  0.00  0.00    +0.050 A 
ATOM      9  C   UNL     1      -0.949   1.851  -1.431  0.00  0.00    +0.162 A 
ATOM     10  C   UNL     1      -0.893   0.464  -1.493  0.00  0.00    +0.162 A 
ATOM     11  C   UNL     1      -2.050  -0.281  -1.322  0.00  0.00    +0.055 A 
ATOM     12  O   UNL     1       0.286  -0.176  -1.720  0.00  0.00    -0.485 OA
ATOM     13  C   UNL     1       1.353   0.613  -2.259  0.00  0.00    +0.270 C 
ATOM     14  C   UNL     1       1.427   1.924  -1.466  0.00  0.00    +0.270 C 
ATOM     15  O   UNL     1       0.173   2.602  -1.601  0.00  0.00    -0.485 OA
ENDBRANCH   5   6
BRANCH   5  17
ATOM     16  C   UNL     1      -4.462  -1.085  -3.321  0.00  0.00    +0.009 C 
ATOM     17  C   UNL     1      -5.310  -0.467  -2.208  0.00  0.00    +0.008 C 
ATOM     18  C   UNL     1      -6.585  -1.291  -2.019  0.00  0.00    +0.009 C 
ENDBRANCH   5  17
ENDBRANCH   1   5
BRANCH   2  19
ATOM     19  C   UNL     1      -7.028  -0.022   1.948  0.00  0.00    +0.173 C 
BRANCH  19  20
ATOM     20  S   UNL     1      -8.088  -1.295   2.677  0.00  0.00    -0.075 S 
BRANCH  20  21
ATOM     21  C   UNL     1      -8.928  -0.335   3.893  0.00  0.00    +0.209 A 
ATOM     22  N   UNL     1      -8.755   0.946   4.130  0.00  0.00    -0.121 NA
ATOM     23  N   UNL     1      -9.531   1.327   5.081  0.00  0.00    -0.127 NA
ATOM     24  C   UNL     1     -10.240   0.311   5.515  0.00  0.00    +0.183 A 
ATOM     25  N   UNL     1      -9.875  -0.785   4.768  0.00  0.00    -0.224 N 
BRANCH  24  26
ATOM     26  C   UNL     1     -11.241   0.339   6.603  0.00  0.00    +0.039 A 
ATOM     27  C   UNL     1     -11.224  -0.640   7.597  0.00  0.00    +0.013 A 
ATOM     28  C   UNL     1     -12.160  -0.608   8.609  0.00  0.00    +0.001 A 
ATOM     29  C   UNL     1     -13.116   0.393   8.641  0.00  0.00    +0.001 A 
ATOM     30  C   UNL     1     -13.140   1.366   7.659  0.00  0.00    +0.021 A 
ATOM     31  C   UNL     1     -12.205   1.349   6.643  0.00  0.00    +0.052 A 
ATOM     32 CL   UNL     1     -12.231   2.577   5.416  0.00  0.00    -0.083 Cl
ENDBRANCH  24  26
BRANCH  25  33
ATOM     33  N   UNL     1     -10.360  -2.057   4.878  0.00  0.00    -0.295 N 
ATOM     34  H   UNL     1      -9.868  -2.570   5.594  0.00  0.00    +0.163 HD
ATOM     35  H   UNL     1     -11.353  -2.052   5.053  0.00  0.00    +0.163 HD
ENDBRANCH  25  33
ENDBRANCH  20  21
ENDBRANCH  19  20
ENDBRANCH   2  19
TORSDOF 8
