REMARK  Name = ZINC40045735
REMARK  7 active torsions:
REMARK  status: ('A' for Active; 'I' for Inactive)
REMARK    1  A    between atoms: C_1  and  C_2
REMARK    2  A    between atoms: C_2  and  O_3
REMARK    3  A    between atoms: O_3  and  C_4
REMARK    4  A    between atoms: C_14  and  C_31
REMARK    5  A    between atoms: C_21  and  C_30
REMARK    6  A    between atoms: C_23  and  C_29
REMARK    7  A    between atoms: C_35  and  O_37
REMARK                            x       y       z     vdW  Elec       q    Type
REMARK                         _______ _______ _______ _____ _____    ______ ____
ROOT
ATOM      1  C   UNL     1       0.802  -1.825   1.306  0.00  0.00    +0.122 A 
ATOM      2  C   UNL     1       0.261  -2.683   0.353  0.00  0.00    +0.048 A 
ATOM      3  C   UNL     1       0.355  -4.034   0.474  0.00  0.00    +0.032 A 
ATOM      4  C   UNL     1       1.012  -4.620   1.581  0.00  0.00    +0.081 A 
ATOM      5  C   UNL     1       1.553  -3.725   2.533  0.00  0.00    +0.044 A 
ATOM      6  C   UNL     1       1.459  -2.361   2.404  0.00  0.00    +0.063 A 
ATOM      7  S   UNL     1       2.270  -4.829   3.726  0.00  0.00    -0.052 S 
ATOM      8  C   UNL     1       1.823  -6.357   2.915  0.00  0.00    +0.169 A 
ATOM      9  N   UNL     1       1.190  -5.933   1.846  0.00  0.00    -0.224 NA
ATOM     10  N   UNL     1       2.079  -7.658   3.313  0.00  0.00    -0.232 N 
ATOM     11  C   UNL     1       1.684  -8.878   2.589  0.00  0.00    +0.152 C 
ATOM     12  C   UNL     1       2.180 -10.019   3.414  0.00  0.00    +0.072 A 
ATOM     13  C   UNL     1       2.082 -11.469   3.216  0.00  0.00    +0.199 A 
ATOM     14  O   UNL     1       1.687 -11.976   2.181  0.00  0.00    -0.287 OA
ATOM     15  C   UNL     1       2.510 -12.261   4.397  0.00  0.00    +0.065 A 
ATOM     16  C   UNL     1       2.291 -13.637   4.442  0.00  0.00    +0.018 A 
ATOM     17  C   UNL     1       2.686 -14.351   5.539  0.00  0.00    -0.049 A 
ATOM     18  C   UNL     1       3.302 -13.710   6.604  0.00  0.00    +0.010 A 
ATOM     19  C   UNL     1       3.528 -12.352   6.576  0.00  0.00    -0.007 A 
ATOM     20  C   UNL     1       3.137 -11.602   5.467  0.00  0.00    +0.142 A 
ATOM     21  O   UNL     1       3.377 -10.271   5.457  0.00  0.00    -0.449 OA
ATOM     22  C   UNL     1       2.808  -9.499   4.510  0.00  0.00    +0.199 A 
ATOM     23  C   UNL     1       2.738  -8.030   4.429  0.00  0.00    +0.289 C 
ATOM     24  O   UNL     1       3.204  -7.265   5.250  0.00  0.00    -0.266 OA
ATOM     25  C   UNL     1       4.198 -11.676   7.744  0.00  0.00    +0.047 C 
ATOM     26  C   UNL     1       2.452 -15.839   5.591  0.00  0.00    +0.044 C 
ENDROOT
BRANCH  11  27
ATOM     27  C   UNL     1       0.184  -8.942   2.458  0.00  0.00    -0.019 A 
ATOM     28  C   UNL     1      -0.619  -8.525   3.503  0.00  0.00    +0.006 A 
ATOM     29  C   UNL     1      -1.996  -8.583   3.386  0.00  0.00    +0.004 A 
ATOM     30  C   UNL     1      -2.572  -9.058   2.224  0.00  0.00    +0.045 A 
ATOM     31  C   UNL     1      -1.768  -9.477   1.174  0.00  0.00    +0.117 A 
ATOM     32  C   UNL     1      -0.387  -9.412   1.292  0.00  0.00    +0.051 A 
BRANCH  31  33
ATOM     33  O   UNL     1      -2.333  -9.945   0.030  0.00  0.00    -0.507 OA
ATOM     34  H   UNL     1      -2.503  -9.262  -0.633  0.00  0.00    +0.292 HD
ENDBRANCH  31  33
ENDBRANCH  11  27
BRANCH   1  35
ATOM     35  O   UNL     1       0.693  -0.477   1.160  0.00  0.00    -0.492 OA
BRANCH  35  37
ATOM     36  C   UNL     1      -0.019   1.526   0.010  0.00  0.00    +0.048 C 
ATOM     37  C   UNL     1       0.002  -0.004   0.002  0.00  0.00    +0.225 C 
ENDBRANCH  35  37
ENDBRANCH   1  35
TORSDOF 4
