REMARK  Name = ZINC39667641
REMARK  6 active torsions:
REMARK  status: ('A' for Active; 'I' for Inactive)
REMARK    1  A    between atoms: C_1  and  C_2
REMARK    2  A    between atoms: C_6  and  C_9
REMARK    3  A    between atoms: C_7  and  C_8
REMARK    4  A    between atoms: C_9  and  N_10
REMARK    5  A    between atoms: C_11  and  C_13
REMARK    6  A    between atoms: C_24  and  C_26
REMARK                            x       y       z     vdW  Elec       q    Type
REMARK                         _______ _______ _______ _____ _____    ______ ____
ROOT
ATOM      1  C   UNL     1      -2.074  -3.860   4.411  0.00  0.00    +0.100 C 
ATOM      2  C   UNL     1      -3.390  -4.324   3.746  0.00  0.00    +0.121 C 
ATOM      3  N   UNL     1      -3.522  -5.748   4.132  0.00  0.00    -0.300 N 
ATOM      4  C   UNL     1      -3.066  -5.792   5.542  0.00  0.00    +0.115 C 
ATOM      5  C   UNL     1      -1.867  -4.824   5.592  0.00  0.00    -0.004 C 
ATOM      6  C   UNL     1      -1.865  -4.054   6.909  0.00  0.00    -0.010 C 
ATOM      7  C   UNL     1      -1.599  -5.025   8.062  0.00  0.00    -0.082 C 
ATOM      8  N   UNL     1      -0.306  -5.689   7.858  0.00  0.00    +0.379 N 
ATOM      9  C   UNL     1      -0.348  -6.502   6.637  0.00  0.00    -0.082 C 
ATOM     10  C   UNL     1      -0.561  -5.593   5.423  0.00  0.00    -0.010 C 
ATOM     11  C   UNL     1      -3.960  -6.773   3.373  0.00  0.00    +0.219 C 
ATOM     12  O   UNL     1      -4.228  -6.590   2.205  0.00  0.00    -0.275 OA
ATOM     13  H   UNL     1       0.419  -4.991   7.771  0.00  0.00    -0.086 HD
ATOM     14  H   UNL     1      -0.105  -6.282   8.649  0.00  0.00    -0.086 HD
ENDROOT
BRANCH  11  15
ATOM     15  C   UNL     1      -4.116  -8.145   3.977  0.00  0.00    +0.079 C 
ATOM     16  C   UNL     1      -4.003  -9.208   2.877  0.00  0.00    +0.017 C 
ATOM     17  C   UNL     1      -3.986 -10.588   3.538  0.00  0.00    +0.027 C 
ATOM     18  C   UNL     1      -5.115 -10.705   4.519  0.00  0.00    -0.031 C 
ATOM     19  C   UNL     1      -5.768  -9.695   4.997  0.00  0.00    -0.030 C 
ATOM     20  C   UNL     1      -5.493  -8.265   4.633  0.00  0.00    +0.039 C 
ENDBRANCH  11  15
BRANCH   1  22
ATOM     21  N   UNL     1       0.124  -3.132   3.542  0.00  0.00    -0.311 N 
ATOM     22  C   UNL     1      -0.928  -3.968   3.439  0.00  0.00    +0.218 C 
ATOM     23  O   UNL     1      -0.953  -4.807   2.563  0.00  0.00    -0.275 OA
ATOM     24  H   UNL     1       0.144  -2.461   4.242  0.00  0.00    +0.149 HD
BRANCH  21  25
ATOM     25  C   UNL     1       1.238  -3.237   2.597  0.00  0.00    +0.139 C 
BRANCH  25  31
ATOM     26  C   UNL     1       5.103  -1.706   5.383  0.00  0.00    +0.044 C 
ATOM     27  C   UNL     1       4.126  -1.464   4.261  0.00  0.00    -0.047 A 
ATOM     28  C   UNL     1       4.183  -0.288   3.536  0.00  0.00    +0.003 A 
ATOM     29  C   UNL     1       3.287  -0.067   2.507  0.00  0.00    +0.001 A 
ATOM     30  C   UNL     1       2.334  -1.021   2.203  0.00  0.00    +0.005 A 
ATOM     31  C   UNL     1       2.277  -2.197   2.928  0.00  0.00    -0.027 A 
ATOM     32  C   UNL     1       3.177  -2.420   3.954  0.00  0.00    -0.043 A 
ATOM     33  C   UNL     1       3.119  -3.704   4.740  0.00  0.00    +0.044 C 
ENDBRANCH  25  31
ENDBRANCH  21  25
ENDBRANCH   1  22
TORSDOF 4
