REMARK  Name = ZINC08703362
REMARK  4 active torsions:
REMARK  status: ('A' for Active; 'I' for Inactive)
REMARK    1  A    between atoms: C_1  and  C_2
REMARK    2  A    between atoms: C_4  and  N_20
REMARK    3  A    between atoms: C_6  and  C_9
REMARK    4  A    between atoms: C_7  and  O_8
REMARK                            x       y       z     vdW  Elec       q    Type
REMARK                         _______ _______ _______ _____ _____    ______ ____
ROOT
ATOM      1  C   UNL     1      -7.618   0.603   0.077  0.00  0.00    +0.047 C 
ATOM      2  C   UNL     1      -6.862   1.907   0.076  0.00  0.00    -0.007 A 
ATOM      3  C   UNL     1      -7.552   3.104   0.089  0.00  0.00    +0.029 A 
ATOM      4  C   UNL     1      -6.863   4.311   0.088  0.00  0.00    +0.026 A 
ATOM      5  C   UNL     1      -5.478   4.321   0.075  0.00  0.00    +0.039 A 
ATOM      6  C   UNL     1      -4.775   3.115   0.063  0.00  0.00    +0.080 A 
ATOM      7  C   UNL     1      -5.476   1.903   0.057  0.00  0.00    +0.132 A 
ENDROOT
BRANCH   6   8
ATOM      8  C   UNL     1      -3.299   3.117   0.049  0.00  0.00    +0.232 A 
ATOM      9  N   UNL     1      -2.549   4.191   0.048  0.00  0.00    -0.209 NA
ATOM     10  C   UNL     1      -1.245   3.814   0.034  0.00  0.00    +0.113 A 
ATOM     11  C   UNL     1      -0.037   4.517   0.026  0.00  0.00    +0.051 A 
ATOM     12  C   UNL     1       1.155   3.827   0.012  0.00  0.00    +0.045 A 
ATOM     13  C   UNL     1       1.164   2.439   0.004  0.00  0.00    +0.043 A 
ATOM     14  C   UNL     1      -0.021   1.732   0.012  0.00  0.00    +0.087 A 
ATOM     15  C   UNL     1      -1.232   2.410   0.021  0.00  0.00    +0.174 A 
ATOM     16  O   UNL     1      -2.525   2.015   0.036  0.00  0.00    -0.434 OA
ATOM     17 CL   UNL     1       0.002  -0.004   0.002  0.00  0.00    -0.080 Cl
ATOM     18 CL   UNL     1       2.656   4.700   0.003  0.00  0.00    -0.083 Cl
ENDBRANCH   6   8
BRANCH   4  19
ATOM     19  N   UNL     1      -7.570   5.519   0.101  0.00  0.00    -0.358 N 
ATOM     20  H   UNL     1      -7.090   6.362   0.101  0.00  0.00    +0.142 HD
ATOM     21  H   UNL     1      -8.540   5.513   0.110  0.00  0.00    +0.142 HD
ENDBRANCH   4  19
BRANCH   7  22
ATOM     22  O   UNL     1      -4.800   0.725   0.039  0.00  0.00    -0.506 OA
ATOM     23  H   UNL     1      -4.596   0.375   0.917  0.00  0.00    +0.292 HD
ENDBRANCH   7  22
TORSDOF 3
