REMARK  Name = ZINC39694391
REMARK  9 active torsions:
REMARK  status: ('A' for Active; 'I' for Inactive)
REMARK    1  A    between atoms: C_1  and  C_2
REMARK    2  A    between atoms: C_2  and  C_3
REMARK    3  A    between atoms: C_3  and  C_5
REMARK    4  A    between atoms: C_3  and  C_6
REMARK    5  A    between atoms: C_6  and  C_7
REMARK    6  A    between atoms: C_11  and  C_20
REMARK    7  A    between atoms: N_22  and  C_23
REMARK    8  A    between atoms: C_23  and  C_24
REMARK    9  A    between atoms: C_29  and  N_30
REMARK                            x       y       z     vdW  Elec       q    Type
REMARK                         _______ _______ _______ _____ _____    ______ ____
ROOT
ATOM      1  C   UNL     1      -2.711  -2.131   0.538  0.00  0.00    +0.216 C 
ATOM      2  O   UNL     1      -3.713  -1.460   0.661  0.00  0.00    -0.276 OA
ATOM      3  N   UNL     1      -2.803  -3.413   0.134  0.00  0.00    -0.300 N 
ATOM      4  C   UNL     1      -1.714  -4.412   0.022  0.00  0.00    +0.121 C 
ATOM      5  C   UNL     1      -2.344  -5.734   0.515  0.00  0.00    +0.100 C 
ATOM      6  C   UNL     1      -3.856  -5.552   0.299  0.00  0.00    -0.004 C 
ATOM      7  C   UNL     1      -4.019  -4.145  -0.295  0.00  0.00    +0.115 C 
ATOM      8  C   UNL     1      -4.595  -5.646   1.630  0.00  0.00    -0.010 C 
ATOM      9  C   UNL     1      -6.101  -5.520   1.382  0.00  0.00    -0.082 C 
ATOM     10  N   UNL     1      -6.541  -6.589   0.478  0.00  0.00    +0.379 N 
ATOM     11  C   UNL     1      -5.895  -6.437  -0.831  0.00  0.00    -0.082 C 
ATOM     12  C   UNL     1      -4.380  -6.602  -0.676  0.00  0.00    -0.010 C 
ATOM     13  H   UNL     1      -6.293  -7.484   0.873  0.00  0.00    -0.086 HD
ATOM     14  H   UNL     1      -7.543  -6.541   0.365  0.00  0.00    -0.086 HD
ENDROOT
BRANCH   5  15
ATOM     15  C   UNL     1      -2.042  -5.947   1.976  0.00  0.00    +0.218 C 
ATOM     16  O   UNL     1      -1.865  -4.993   2.704  0.00  0.00    -0.275 OA
ATOM     17  N   UNL     1      -1.969  -7.197   2.474  0.00  0.00    -0.311 N 
ATOM     18  H   UNL     1      -2.176  -7.957   1.908  0.00  0.00    +0.149 HD
BRANCH  17  19
ATOM     19  C   UNL     1      -1.577  -7.408   3.869  0.00  0.00    +0.141 C 
BRANCH  19  20
ATOM     20  C   UNL     1      -1.455  -8.885   4.139  0.00  0.00    -0.009 A 
ATOM     21  C   UNL     1      -2.459  -9.550   4.816  0.00  0.00    +0.007 A 
ATOM     22  C   UNL     1      -2.348 -10.905   5.065  0.00  0.00    +0.000 A 
ATOM     23  C   UNL     1      -1.232 -11.601   4.636  0.00  0.00    +0.002 A 
ATOM     24  C   UNL     1      -0.225 -10.943   3.958  0.00  0.00    +0.023 A 
ATOM     25  C   UNL     1      -0.336  -9.582   3.702  0.00  0.00    +0.035 A 
BRANCH  25  26
ATOM     26  N   UNL     1       0.678  -8.914   3.012  0.00  0.00    -0.325 N 
ATOM     27  C   UNL     1       1.793  -8.278   3.733  0.00  0.00    +0.133 C 
ATOM     28  C   UNL     1       3.108  -8.750   3.102  0.00  0.00    +0.178 C 
ATOM     29  O   UNL     1       3.058  -8.532   1.690  0.00  0.00    -0.377 OA
ATOM     30  C   UNL     1       2.034  -9.271   1.019  0.00  0.00    +0.178 C 
ATOM     31  C   UNL     1       0.667  -8.831   1.543  0.00  0.00    +0.133 C 
ENDBRANCH  25  26
ENDBRANCH  19  20
ENDBRANCH  17  19
ENDBRANCH   5  15
BRANCH   1  32
ATOM     32  C   UNL     1      -1.361  -1.531   0.838  0.00  0.00    +0.099 C 
BRANCH  32  33
ATOM     33  C   UNL     1      -1.544  -0.123   1.408  0.00  0.00    -0.006 C 
ATOM     34  C   UNL     1      -2.259  -0.207   2.758  0.00  0.00    +0.008 C 
BRANCH  33  36
ATOM     35  C   UNL     1      -0.361   1.983   2.046  0.00  0.00    +0.004 C 
ATOM     36  C   UNL     1      -0.175   0.533   1.596  0.00  0.00    +0.000 C 
ENDBRANCH  33  36
ENDBRANCH  32  33
ENDBRANCH   1  32
TORSDOF 7
