REMARK  Name = ZINC08789629
REMARK  7 active torsions:
REMARK  status: ('A' for Active; 'I' for Inactive)
REMARK    1  A    between atoms: C_1  and  C_2
REMARK    2  A    between atoms: C_13  and  C_28
REMARK    3  A    between atoms: N_20  and  C_23
REMARK    4  A    between atoms: C_23  and  C_24
REMARK    5  A    between atoms: C_24  and  C_25
REMARK    6  A    between atoms: C_25  and  O_26
REMARK    7  A    between atoms: O_26  and  C_27
REMARK                            x       y       z     vdW  Elec       q    Type
REMARK                         _______ _______ _______ _____ _____    ______ ____
ROOT
ATOM      1  C   UNL     1       6.504   0.358   1.347  0.00  0.00    +0.048 C 
ATOM      2  C   UNL     1       5.995   0.750  -0.042  0.00  0.00    +0.151 C 
ATOM      3  C   UNL     1       4.485   0.727  -0.033  0.00  0.00    +0.054 A 
ATOM      4  C   UNL     1       3.729   1.847  -0.024  0.00  0.00    -0.008 A 
ATOM      5  C   UNL     1       2.344   1.422  -0.012  0.00  0.00    +0.004 A 
ATOM      6  C   UNL     1       1.136   2.127   0.003  0.00  0.00    +0.010 A 
ATOM      7  C   UNL     1      -0.017   1.381   0.010  0.00  0.00    +0.001 A 
ATOM      8  C   UNL     1       0.002  -0.004   0.002  0.00  0.00    +0.002 A 
ATOM      9  C   UNL     1       1.183  -0.727  -0.012  0.00  0.00    +0.026 A 
ATOM     10  C   UNL     1       2.369   0.004  -0.018  0.00  0.00    +0.047 A 
ATOM     11  N   UNL     1       3.680  -0.380  -0.030  0.00  0.00    -0.356 N 
ATOM     12  H   UNL     1       3.993  -1.298  -0.036  0.00  0.00    +0.166 HD
ATOM     13  C   UNL     1       4.277   3.251  -0.031  0.00  0.00    +0.069 C 
ATOM     14  C   UNL     1       5.749   3.218   0.396  0.00  0.00    +0.122 C 
ATOM     15  N   UNL     1       6.427   2.120  -0.318  0.00  0.00    -0.280 N 
ATOM     16  C   UNL     1       7.391   2.409  -1.196  0.00  0.00    +0.234 C 
ATOM     17  O   UNL     1       7.778   3.557  -1.256  0.00  0.00    -0.274 OA
ATOM     18  C   UNL     1       8.024   1.410  -2.110  0.00  0.00    +0.203 C 
ATOM     19  N   UNL     1       7.439   0.088  -1.965  0.00  0.00    -0.291 N 
ATOM     20  C   UNL     1       6.527  -0.221  -1.043  0.00  0.00    +0.245 C 
ATOM     21  O   UNL     1       6.105  -1.357  -1.016  0.00  0.00    -0.273 OA
ENDROOT
BRANCH  13  22
ATOM     22  C   UNL     1       3.492   4.103   0.934  0.00  0.00    -0.038 A 
ATOM     23  C   UNL     1       3.446   3.765   2.273  0.00  0.00    +0.006 A 
ATOM     24  C   UNL     1       2.731   4.550   3.159  0.00  0.00    +0.020 A 
ATOM     25  C   UNL     1       2.053   5.666   2.703  0.00  0.00    +0.041 A 
ATOM     26  C   UNL     1       2.096   6.000   1.361  0.00  0.00    +0.020 A 
ATOM     27  C   UNL     1       2.815   5.219   0.477  0.00  0.00    +0.006 A 
ATOM     28 CL   UNL     1       1.149   6.647   3.814  0.00  0.00    -0.084 Cl
ENDBRANCH  13  22
BRANCH  19  29
ATOM     29  C   UNL     1       7.877  -0.966  -2.884  0.00  0.00    +0.110 C 
BRANCH  29  30
ATOM     30  C   UNL     1       6.978  -0.969  -4.122  0.00  0.00    +0.047 C 
BRANCH  30  31
ATOM     31  C   UNL     1       7.435  -2.070  -5.081  0.00  0.00    +0.161 C 
BRANCH  31  32
ATOM     32  O   UNL     1       6.596  -2.073  -6.238  0.00  0.00    -0.383 OA
ATOM     33  C   UNL     1       6.939  -3.069  -7.203  0.00  0.00    +0.193 C 
ENDBRANCH  31  32
ENDBRANCH  30  31
ENDBRANCH  29  30
ENDBRANCH  19  29
TORSDOF 5
