REMARK  Name = ZINC41662074
REMARK  4 active torsions:
REMARK  status: ('A' for Active; 'I' for Inactive)
REMARK    1  A    between atoms: C_1  and  C_2
REMARK    2  A    between atoms: C_2  and  N_3
REMARK    3  A    between atoms: C_5  and  C_12
REMARK    4  A    between atoms: N_24  and  C_27
REMARK                            x       y       z     vdW  Elec       q    Type
REMARK                         _______ _______ _______ _____ _____    ______ ____
ROOT
ATOM      1  C   UNL     1      -4.364  -1.773   1.679  0.00  0.00    +0.060 C 
ATOM      2  C   UNL     1      -4.138  -1.820   3.021  0.00  0.00    +0.176 C 
ATOM      3  C   UNL     1      -5.062  -2.262   4.004  0.00  0.00    +0.231 C 
ATOM      4  O   UNL     1      -6.199  -2.668   3.824  0.00  0.00    -0.283 OA
ATOM      5  C   UNL     1      -4.355  -2.124   5.289  0.00  0.00    +0.068 A 
ATOM      6  C   UNL     1      -4.706  -2.386   6.613  0.00  0.00    +0.019 A 
ATOM      7  C   UNL     1      -3.808  -2.149   7.613  0.00  0.00    +0.047 A 
ATOM      8  C   UNL     1      -2.539  -1.647   7.320  0.00  0.00    +0.130 A 
ATOM      9  C   UNL     1      -2.177  -1.385   6.010  0.00  0.00    +0.051 A 
ATOM     10  C   UNL     1      -3.082  -1.619   4.981  0.00  0.00    +0.147 A 
ATOM     11  O   UNL     1      -2.990  -1.458   3.643  0.00  0.00    -0.451 OA
ATOM     12  C   UNL     1      -0.808  -0.850   5.678  0.00  0.00    +0.130 C 
ATOM     13  N   UNL     1      -0.187  -0.298   6.891  0.00  0.00    -0.263 NA
ATOM     14  C   UNL     1      -0.291  -1.264   7.997  0.00  0.00    +0.319 C 
ATOM     15  O   UNL     1      -1.670  -1.419   8.339  0.00  0.00    -0.476 OA
ENDROOT
BRANCH   1  18
ATOM     16  N   UNL     1      -1.372  -0.511   0.012  0.00  0.00    -0.346 N 
ATOM     17  C   UNL     1      -2.055  -0.870   1.128  0.00  0.00    +0.094 A 
ATOM     18  C   UNL     1      -3.316  -1.300   0.776  0.00  0.00    +0.004 A 
ATOM     19  C   UNL     1      -3.397  -1.188  -0.693  0.00  0.00    +0.007 A 
ATOM     20  C   UNL     1      -2.155  -0.684  -1.111  0.00  0.00    +0.050 A 
ATOM     21  C   UNL     1      -1.931  -0.464  -2.466  0.00  0.00    +0.026 A 
ATOM     22  C   UNL     1      -2.924  -0.736  -3.381  0.00  0.00    +0.002 A 
ATOM     23  C   UNL     1      -4.152  -1.230  -2.966  0.00  0.00    +0.001 A 
ATOM     24  C   UNL     1      -4.391  -1.463  -1.628  0.00  0.00    +0.010 A 
BRANCH  16  26
ATOM     25  C   UNL     1      -0.019   1.526   0.010  0.00  0.00    +0.027 C 
ATOM     26  C   UNL     1       0.002  -0.004   0.002  0.00  0.00    +0.118 C 
ENDBRANCH  16  26
ENDBRANCH   1  18
BRANCH  13  27
ATOM     27  C   UNL     1       1.213   0.071   6.644  0.00  0.00    +0.060 C 
ATOM     28  C   UNL     1       2.291  -0.684   7.425  0.00  0.00    +0.020 C 
ATOM     29  C   UNL     1       1.969   0.770   7.776  0.00  0.00    +0.020 C 
ENDBRANCH  13  27
TORSDOF 3
