REMARK  Name = ZINC39653397
REMARK  12 active torsions:
REMARK  status: ('A' for Active; 'I' for Inactive)
REMARK    1  A    between atoms: C_1  and  C_2
REMARK    2  A    between atoms: C_2  and  O_3
REMARK    3  A    between atoms: O_3  and  C_4
REMARK    4  A    between atoms: C_6  and  C_12
REMARK    5  A    between atoms: C_9  and  O_10
REMARK    6  A    between atoms: O_10  and  C_11
REMARK    7  A    between atoms: C_12  and  C_13
REMARK    8  A    between atoms: C_13  and  N_14
REMARK    9  A    between atoms: C_15  and  C_17
REMARK   10  A    between atoms: C_28  and  C_30
REMARK   11  A    between atoms: C_30  and  O_31
REMARK   12  A    between atoms: O_31  and  C_32
REMARK                            x       y       z     vdW  Elec       q    Type
REMARK                         _______ _______ _______ _____ _____    ______ ____
ROOT
ATOM      1  C   UNL     1       0.411  -7.461  -4.712  0.00  0.00    +0.100 C 
ATOM      2  C   UNL     1       0.159  -8.861  -4.109  0.00  0.00    +0.121 C 
ATOM      3  N   UNL     1       0.492  -9.805  -5.201  0.00  0.00    -0.297 N 
ATOM      4  C   UNL     1       1.689  -9.214  -5.846  0.00  0.00    +0.115 C 
ATOM      5  C   UNL     1       1.416  -7.697  -5.852  0.00  0.00    -0.004 C 
ATOM      6  C   UNL     1       2.707  -6.929  -5.585  0.00  0.00    -0.010 C 
ATOM      7  C   UNL     1       3.668  -7.132  -6.760  0.00  0.00    -0.082 C 
ATOM      8  N   UNL     1       3.039  -6.657  -7.998  0.00  0.00    +0.379 N 
ATOM      9  C   UNL     1       1.849  -7.464  -8.296  0.00  0.00    -0.082 C 
ATOM     10  C   UNL     1       0.811  -7.274  -7.187  0.00  0.00    -0.010 C 
ATOM     11  C   UNL     1      -0.149 -10.943  -5.533  0.00  0.00    +0.253 C 
ATOM     12  O   UNL     1       0.250 -11.614  -6.462  0.00  0.00    -0.272 OA
ATOM     13  H   UNL     1       2.770  -5.691  -7.888  0.00  0.00    -0.086 HD
ATOM     14  H   UNL     1       3.697  -6.736  -8.759  0.00  0.00    -0.086 HD
ENDROOT
BRANCH   1  16
ATOM     15  N   UNL     1       0.781  -5.213  -3.749  0.00  0.00    -0.315 N 
ATOM     16  C   UNL     1       1.000  -6.540  -3.675  0.00  0.00    +0.218 C 
ATOM     17  O   UNL     1       1.672  -6.995  -2.773  0.00  0.00    -0.275 OA
ATOM     18  H   UNL     1       0.243  -4.850  -4.470  0.00  0.00    +0.149 HD
BRANCH  15  19
ATOM     19  C   UNL     1       1.354  -4.318  -2.740  0.00  0.00    +0.109 C 
BRANCH  19  20
ATOM     20  C   UNL     1       0.956  -2.874  -3.054  0.00  0.00    +0.054 C 
BRANCH  20  23
ATOM     21  C   UNL     1       3.344  -0.561  -1.260  0.00  0.00    +0.162 A 
ATOM     22  C   UNL     1       2.800  -1.407  -2.213  0.00  0.00    +0.053 A 
ATOM     23  C   UNL     1       1.546  -1.954  -2.017  0.00  0.00    -0.042 A 
ATOM     24  C   UNL     1       0.830  -1.658  -0.872  0.00  0.00    +0.007 A 
ATOM     25  C   UNL     1       1.367  -0.814   0.083  0.00  0.00    +0.049 A 
ATOM     26  C   UNL     1       2.626  -0.267  -0.104  0.00  0.00    +0.162 A 
BRANCH  26  27
ATOM     27  O   UNL     1       3.158   0.558   0.837  0.00  0.00    -0.491 OA
ATOM     28  C   UNL     1       2.364   0.815   1.997  0.00  0.00    +0.277 C 
ENDBRANCH  26  27
BRANCH  21  29
ATOM     29  O   UNL     1       4.578  -0.023  -1.451  0.00  0.00    -0.489 OA
BRANCH  29  31
ATOM     30  C   UNL     1       6.619   0.327  -2.697  0.00  0.00    +0.048 C 
ATOM     31  C   UNL     1       5.256  -0.368  -2.660  0.00  0.00    +0.226 C 
ENDBRANCH  29  31
ENDBRANCH  21  29
ENDBRANCH  20  23
ENDBRANCH  19  20
ENDBRANCH  15  19
ENDBRANCH   1  16
BRANCH  11  32
ATOM     32  C   UNL     1      -1.360 -11.382  -4.751  0.00  0.00    +0.324 C 
BRANCH  32  33
ATOM     33  O   UNL     1      -1.857 -12.608  -5.291  0.00  0.00    -0.483 OA
BRANCH  33  34
ATOM     34  C   UNL     1      -2.955 -13.144  -4.696  0.00  0.00    +0.123 A 
ATOM     35  C   UNL     1      -3.545 -12.499  -3.618  0.00  0.00    +0.046 A 
ATOM     36  C   UNL     1      -4.662 -13.045  -3.015  0.00  0.00    +0.005 A 
ATOM     37  C   UNL     1      -5.191 -14.233  -3.484  0.00  0.00    +0.020 A 
ATOM     38  C   UNL     1      -4.605 -14.878  -4.558  0.00  0.00    +0.044 A 
ATOM     39  C   UNL     1      -3.491 -14.332  -5.169  0.00  0.00    +0.065 A 
ATOM     40 CL   UNL     1      -5.272 -16.370  -5.144  0.00  0.00    -0.083 Cl
ENDBRANCH  33  34
ENDBRANCH  32  33
ENDBRANCH  11  32
TORSDOF 10
