REMARK  Name = ZINC24898861
REMARK  4 active torsions:
REMARK  status: ('A' for Active; 'I' for Inactive)
REMARK    1  A    between atoms: C_8  and  C_13
REMARK    2  A    between atoms: C_13  and  N_14
REMARK    3  A    between atoms: N_17  and  S_20
REMARK    4  A    between atoms: S_20  and  C_23
REMARK                            x       y       z     vdW  Elec       q    Type
REMARK                         _______ _______ _______ _____ _____    ______ ____
ROOT
ATOM      1  N   UNL     1       2.209   4.293  -0.382  0.00  0.00    -0.293 NA
ATOM      2  C   UNL     1       2.687   4.404   1.003  0.00  0.00    +0.102 C 
ATOM      3  C   UNL     1       4.113   4.965   1.004  0.00  0.00    +0.125 C 
ATOM      4  N   UNL     1       4.122   6.222   0.241  0.00  0.00    -0.174 NA
ATOM      5  C   UNL     1       3.533   6.222  -1.107  0.00  0.00    +0.125 C 
ATOM      6  C   UNL     1       2.130   5.612  -1.026  0.00  0.00    +0.102 C 
ENDROOT
BRANCH   4   7
ATOM      7  S   UNL     1       4.776   7.601   0.882  0.00  0.00    +0.064 S 
ATOM      8  O   UNL     1       5.712   7.186   1.867  0.00  0.00    -0.153 OA
ATOM      9  O   UNL     1       5.140   8.427  -0.215  0.00  0.00    -0.153 OA
BRANCH   7  10
ATOM     10  C   UNL     1       3.485   8.441   1.738  0.00  0.00    +0.140 A 
ATOM     11  C   UNL     1       3.549   8.592   3.110  0.00  0.00    +0.031 A 
ATOM     12  C   UNL     1       2.539   9.257   3.780  0.00  0.00    +0.002 A 
ATOM     13  C   UNL     1       1.458   9.761   3.081  0.00  0.00    +0.003 A 
ATOM     14  C   UNL     1       1.389   9.606   1.709  0.00  0.00    +0.040 A 
ATOM     15  C   UNL     1       2.403   8.946   1.036  0.00  0.00    +0.150 A 
ATOM     16  F   UNL     1       2.337   8.794  -0.305  0.00  0.00    -0.203 F 
ENDBRANCH   7  10
ENDBRANCH   4   7
BRANCH   1  17
ATOM     17  C   UNL     1       0.914   3.601  -0.439  0.00  0.00    +0.157 C 
BRANCH  17  25
ATOM     18  C   UNL     1      -1.093  -2.105  -0.371  0.00  0.00    +0.002 A 
ATOM     19  C   UNL     1       0.059  -2.776  -0.002  0.00  0.00    +0.002 A 
ATOM     20  C   UNL     1       1.187  -2.063   0.370  0.00  0.00    +0.031 A 
ATOM     21  C   UNL     1       1.156  -0.687   0.370  0.00  0.00    +0.134 A 
ATOM     22  C   UNL     1       0.002  -0.004   0.002  0.00  0.00    +0.059 A 
ATOM     23  C   UNL     1      -1.126  -0.725  -0.371  0.00  0.00    +0.025 A 
ATOM     24  N   UNL     1      -0.017   1.388   0.010  0.00  0.00    -0.299 N 
ATOM     25  C   UNL     1       1.090   2.171   0.003  0.00  0.00    +0.135 C 
ATOM     26  N   UNL     1       2.272   1.805   0.341  0.00  0.00    -0.117 NA
ATOM     27  S   UNL     1       2.576   0.252   0.835  0.00  0.00    +0.102 S 
ATOM     28  O   UNL     1       2.609   0.271   2.256  0.00  0.00    -0.146 OA
ATOM     29  O   UNL     1       3.660  -0.226   0.050  0.00  0.00    -0.146 OA
ATOM     30  H   UNL     1      -0.977   1.925   0.022  0.00  0.00    +0.153 HD
ENDBRANCH  17  25
ENDBRANCH   1  17
TORSDOF 4
