REMARK  Name = ZINC02063294
REMARK  5 active torsions:
REMARK  status: ('A' for Active; 'I' for Inactive)
REMARK    1  A    between atoms: C_1  and  C_2
REMARK    2  A    between atoms: C_2  and  C_3
REMARK    3  A    between atoms: C_2  and  C_4
REMARK    4  A    between atoms: C_2  and  C_5
REMARK    5  A    between atoms: C_17  and  C_20
REMARK                            x       y       z     vdW  Elec       q    Type
REMARK                         _______ _______ _______ _____ _____    ______ ____
ROOT
ATOM      1  C   UNL     1      -3.784   4.756   7.044  0.00  0.00    -0.000 C 
ATOM      2  C   UNL     1      -2.498   5.467   6.614  0.00  0.00    +0.009 C 
ATOM      3  C   UNL     1      -2.674   6.056   5.213  0.00  0.00    +0.037 C 
ATOM      4  C   UNL     1      -3.165   4.959   4.277  0.00  0.00    -0.023 A 
ATOM      5  C   UNL     1      -3.725   3.830   4.766  0.00  0.00    -0.004 A 
ATOM      6  S   UNL     1      -4.135   2.865   3.335  0.00  0.00    -0.078 S 
ATOM      7  C   UNL     1      -3.577   3.936   2.121  0.00  0.00    +0.080 A 
ATOM      8  C   UNL     1      -3.071   5.037   2.827  0.00  0.00    +0.068 A 
ATOM      9  C   UNL     1      -2.495   6.151   2.039  0.00  0.00    +0.248 C 
ATOM     10  O   UNL     1      -2.138   7.186   2.571  0.00  0.00    -0.270 OA
ATOM     11  N   UNL     1      -2.381   5.971   0.707  0.00  0.00    -0.289 N 
ATOM     12  C   UNL     1      -2.564   4.680   0.050  0.00  0.00    +0.190 C 
ATOM     13  N   UNL     1      -3.568   3.860   0.752  0.00  0.00    -0.316 N 
ATOM     14  C   UNL     1      -3.947   3.481   6.204  0.00  0.00    +0.046 C 
ATOM     15  H   UNL     1      -2.167   6.740   0.156  0.00  0.00    +0.151 HD
ATOM     16  H   UNL     1      -4.191   3.294   0.269  0.00  0.00    +0.149 HD
ENDROOT
BRANCH  12  17
ATOM     17  C   UNL     1      -1.249   3.944   0.034  0.00  0.00    -0.008 A 
ATOM     18  C   UNL     1      -0.061   4.652   0.027  0.00  0.00    +0.007 A 
ATOM     19  C   UNL     1       1.145   3.977   0.012  0.00  0.00    +0.001 A 
ATOM     20  C   UNL     1       1.165   2.595   0.005  0.00  0.00    +0.015 A 
ATOM     21  C   UNL     1      -0.024   1.887   0.012  0.00  0.00    +0.018 A 
ATOM     22  C   UNL     1      -1.231   2.562   0.022  0.00  0.00    +0.022 A 
ATOM     23 BR   UNL     1       0.002  -0.004   0.002  0.00  0.00    -0.050 Br
ENDBRANCH  12  17
BRANCH   1  25
ATOM     24  C   UNL     1      -3.513   5.657   9.359  0.00  0.00    +0.011 C 
ATOM     25  C   UNL     1      -3.694   4.386   8.526  0.00  0.00    -0.035 C 
ATOM     26  C   UNL     1      -4.980   3.675   8.953  0.00  0.00    +0.011 C 
ATOM     27  C   UNL     1      -2.500   3.456   8.748  0.00  0.00    +0.011 C 
ENDBRANCH   1  25
TORSDOF 2
