REMARK  Name = ZINC35641198
REMARK  15 active torsions:
REMARK  status: ('A' for Active; 'I' for Inactive)
REMARK    1  A    between atoms: C_1  and  C_2
REMARK    2  A    between atoms: C_2  and  N_3
REMARK    3  A    between atoms: N_6  and  C_9
REMARK    4  A    between atoms: C_9  and  C_10
REMARK    5  A    between atoms: C_11  and  C_30
REMARK    6  A    between atoms: C_12  and  C_20
REMARK    7  A    between atoms: N_17  and  C_18
REMARK    8  A    between atoms: C_18  and  C_19
REMARK    9  A    between atoms: C_23  and  C_26
REMARK   10  A    between atoms: C_26  and  C_27
REMARK   11  A    between atoms: C_26  and  C_28
REMARK   12  A    between atoms: C_26  and  C_29
REMARK   13  A    between atoms: C_30  and  O_32
REMARK   14  A    between atoms: O_32  and  C_33
REMARK   15  A    between atoms: C_33  and  C_34
REMARK                            x       y       z     vdW  Elec       q    Type
REMARK                         _______ _______ _______ _____ _____    ______ ____
ROOT
ATOM      1  C   UNL     1       1.381  -4.016  -4.929  0.00  0.00    +0.041 C 
ATOM      2  C   UNL     1       0.713  -4.468  -6.012  0.00  0.00    +0.080 C 
ATOM      3  C   UNL     1       0.476  -5.961  -6.122  0.00  0.00    +0.144 C 
ATOM      4  N   UNL     1       0.998  -6.801  -5.031  0.00  0.00    -0.288 N 
ATOM      5  C   UNL     1       1.647  -6.202  -4.013  0.00  0.00    +0.307 C 
ATOM      6  O   UNL     1       2.081  -6.887  -3.108  0.00  0.00    -0.252 OA
ATOM      7  N   UNL     1       1.833  -4.876  -3.969  0.00  0.00    -0.258 N 
ATOM      8  H   UNL     1       0.878  -7.764  -5.045  0.00  0.00    +0.151 HD
ENDROOT
BRANCH   3   9
ATOM      9  C   UNL     1      -1.010  -6.190  -6.213  0.00  0.00    -0.022 A 
ATOM     10  C   UNL     1      -1.786  -6.161  -5.069  0.00  0.00    +0.006 A 
ATOM     11  C   UNL     1      -3.150  -6.371  -5.153  0.00  0.00    +0.004 A 
ATOM     12  C   UNL     1      -3.738  -6.609  -6.381  0.00  0.00    -0.042 A 
ATOM     13  C   UNL     1      -2.963  -6.637  -7.525  0.00  0.00    +0.004 A 
ATOM     14  C   UNL     1      -1.600  -6.423  -7.442  0.00  0.00    +0.006 A 
BRANCH  12  15
ATOM     15  C   UNL     1      -5.225  -6.840  -6.472  0.00  0.00    -0.013 C 
ATOM     16  C   UNL     1      -5.964  -5.611  -5.940  0.00  0.00    +0.015 C 
ATOM     17  C   UNL     1      -5.615  -7.077  -7.932  0.00  0.00    +0.015 C 
ATOM     18  C   UNL     1      -5.603  -8.064  -5.637  0.00  0.00    +0.015 C 
ENDBRANCH  12  15
ENDBRANCH   3   9
BRANCH   7  19
ATOM     19  C   UNL     1       2.556  -4.317  -2.824  0.00  0.00    +0.111 C 
ATOM     20  C   UNL     1       1.561  -3.966  -1.716  0.00  0.00    +0.025 C 
ENDBRANCH   7  19
BRANCH   2  21
ATOM     21  C   UNL     1       0.249  -3.579  -7.009  0.00  0.00    +0.339 C 
ATOM     22  O   UNL     1       0.550  -2.401  -6.962  0.00  0.00    -0.245 OA
BRANCH  21  23
ATOM     23  O   UNL     1      -0.527  -4.037  -8.014  0.00  0.00    -0.462 OA
BRANCH  23  24
ATOM     24  C   UNL     1      -0.959  -3.083  -8.986  0.00  0.00    +0.229 C 
ATOM     25  C   UNL     1      -1.822  -3.782 -10.038  0.00  0.00    +0.048 C 
ENDBRANCH  23  24
ENDBRANCH  21  23
ENDBRANCH   2  21
BRANCH   1  26
ATOM     26  C   UNL     1       1.638  -2.538  -4.780  0.00  0.00    +0.136 C 
BRANCH  26  30
ATOM     27  N   UNL     1       4.889  -0.824  -6.869  0.00  0.00    +0.381 N 
ATOM     28  C   UNL     1       4.779  -0.562  -5.428  0.00  0.00    -0.063 C 
ATOM     29  C   UNL     1       3.344  -0.829  -4.969  0.00  0.00    +0.066 C 
ATOM     30  N   UNL     1       2.992  -2.226  -5.258  0.00  0.00    -0.300 NA
ATOM     31  C   UNL     1       3.121  -2.510  -6.695  0.00  0.00    +0.066 C 
ATOM     32  C   UNL     1       4.558  -2.229  -7.139  0.00  0.00    -0.063 C 
ATOM     33  H   UNL     1       4.248  -0.226  -7.369  0.00  0.00    -0.082 HD
BRANCH  27  35
ATOM     34  C   UNL     1       6.564   0.941  -7.146  0.00  0.00    -0.017 C 
ATOM     35  C   UNL     1       6.262  -0.550  -7.312  0.00  0.00    -0.082 C 
ENDBRANCH  27  35
ENDBRANCH  26  30
ENDBRANCH   1  26
TORSDOF 9
