REMARK  Name = ZINC53066311
REMARK  11 active torsions:
REMARK  status: ('A' for Active; 'I' for Inactive)
REMARK    1  A    between atoms: C_1  and  C_2
REMARK    2  A    between atoms: C_2  and  C_3
REMARK    3  A    between atoms: C_3  and  C_4
REMARK    4  A    between atoms: C_3  and  C_6
REMARK    5  A    between atoms: C_3  and  N_8
REMARK    6  A    between atoms: C_4  and  C_5
REMARK    7  A    between atoms: C_6  and  O_7
REMARK    8  A    between atoms: N_8  and  C_9
REMARK    9  A    between atoms: C_9  and  C_10
REMARK   10  A    between atoms: C_15  and  O_16
REMARK   11  A    between atoms: O_16  and  C_17
REMARK                            x       y       z     vdW  Elec       q    Type
REMARK                         _______ _______ _______ _____ _____    ______ ____
ROOT
ATOM      1  N   UNL     1      -2.144  -0.047  -1.177  0.00  0.00    +0.387 N 
ATOM      2  H   UNL     1      -3.090  -0.396  -1.170  0.00  0.00    -0.085 HD
ATOM      3  H   UNL     1      -2.158   0.962  -1.172  0.00  0.00    -0.085 HD
ENDROOT
BRANCH   1   4
ATOM      4  C   UNL     1      -1.433  -0.534   0.013  0.00  0.00    -0.045 C 
BRANCH   4   6
ATOM      5  C   UNL     1      -0.019   1.526   0.010  0.00  0.00    +0.002 C 
ATOM      6  C   UNL     1       0.002  -0.004   0.002  0.00  0.00    -0.014 C 
ENDBRANCH   4   6
BRANCH   4   7
ATOM      7  C   UNL     1      -1.413  -2.063   0.004  0.00  0.00    -0.014 C 
ATOM      8  C   UNL     1      -2.844  -2.592  -0.110  0.00  0.00    +0.002 C 
ENDBRANCH   4   7
BRANCH   4   9
ATOM      9  C   UNL     1      -2.149  -0.040   1.272  0.00  0.00    +0.143 C 
BRANCH   9  10
ATOM     10  O   UNL     1      -1.458  -0.514   2.429  0.00  0.00    -0.396 OA
ATOM     11  H   UNL     1      -1.858  -0.238   3.266  0.00  0.00    +0.209 HD
ENDBRANCH   9  10
ENDBRANCH   4   9
ENDBRANCH   1   4
BRANCH   1  12
ATOM     12  C   UNL     1      -1.456  -0.521  -2.386  0.00  0.00    -0.042 C 
BRANCH  12  13
ATOM     13  C   UNL     1      -2.185  -0.022  -3.607  0.00  0.00    -0.021 A 
ATOM     14  C   UNL     1      -3.052  -0.857  -4.284  0.00  0.00    +0.020 A 
ATOM     15  C   UNL     1      -3.722  -0.400  -5.405  0.00  0.00    +0.019 A 
ATOM     16  C   UNL     1      -3.525   0.895  -5.850  0.00  0.00    +0.034 A 
ATOM     17  C   UNL     1      -2.658   1.734  -5.176  0.00  0.00    +0.061 A 
ATOM     18  C   UNL     1      -1.990   1.279  -4.048  0.00  0.00    +0.135 A 
ATOM     19 BR   UNL     1      -2.388   3.504  -5.786  0.00  0.00    -0.046 Br
ATOM     20 BR   UNL     1      -4.907  -1.547  -6.330  0.00  0.00    -0.050 Br
BRANCH  18  21
ATOM     21  O   UNL     1      -1.142   2.104  -3.379  0.00  0.00    -0.494 OA
ATOM     22  C   UNL     1       0.225   2.105  -3.795  0.00  0.00    +0.277 C 
ENDBRANCH  18  21
ENDBRANCH  12  13
ENDBRANCH   1  12
TORSDOF 8
