REMARK  Name = ZINC23635237
REMARK  13 active torsions:
REMARK  status: ('A' for Active; 'I' for Inactive)
REMARK    1  A    between atoms: C_1  and  C_2
REMARK    2  A    between atoms: C_2  and  C_4
REMARK    3  A    between atoms: C_2  and  S_16
REMARK    4  A    between atoms: S_16  and  C_17
REMARK    5  A    between atoms: N_27  and  C_28
REMARK    6  A    between atoms: C_28  and  C_29
REMARK    7  A    between atoms: C_29  and  N_30
REMARK    8  A    between atoms: N_30  and  C_31
REMARK    9  A    between atoms: N_30  and  C_34
REMARK   10  A    between atoms: C_31  and  C_32
REMARK   11  A    between atoms: C_31  and  C_33
REMARK   12  A    between atoms: C_34  and  C_35
REMARK   13  A    between atoms: C_34  and  C_36
REMARK                            x       y       z     vdW  Elec       q    Type
REMARK                         _______ _______ _______ _____ _____    ______ ____
ROOT
ATOM      1  C   UNL     1       0.632  -3.959  -1.363  0.00  0.00    +0.173 A 
ATOM      2  N   UNL     1      -0.466  -4.288  -0.727  0.00  0.00    -0.223 NA
ATOM      3  C   UNL     1      -1.670  -3.813  -1.103  0.00  0.00    +0.079 A 
ATOM      4  C   UNL     1      -2.841  -4.163  -0.425  0.00  0.00    +0.028 A 
ATOM      5  C   UNL     1      -4.040  -3.658  -0.840  0.00  0.00    +0.002 A 
ATOM      6  C   UNL     1      -4.115  -2.799  -1.929  0.00  0.00    +0.001 A 
ATOM      7  C   UNL     1      -2.988  -2.438  -2.614  0.00  0.00    +0.015 A 
ATOM      8  C   UNL     1      -1.750  -2.938  -2.211  0.00  0.00    +0.065 A 
ATOM      9  C   UNL     1      -0.506  -2.584  -2.908  0.00  0.00    +0.262 A 
ATOM     10  O   UNL     1      -0.511  -1.836  -3.868  0.00  0.00    -0.267 OA
ATOM     11  N   UNL     1       0.646  -3.117  -2.438  0.00  0.00    -0.289 N 
ENDROOT
BRANCH   1  12
ATOM     12  S   UNL     1       2.161  -4.629  -0.800  0.00  0.00    -0.077 S 
BRANCH  12  14
ATOM     13  C   UNL     1       1.128  -4.786   1.728  0.00  0.00    +0.027 C 
ATOM     14  C   UNL     1       1.693  -5.667   0.612  0.00  0.00    +0.117 C 
BRANCH  14  15
ATOM     15  C   UNL     1       2.906  -6.404   1.118  0.00  0.00    +0.124 A 
ATOM     16  N   UNL     1       4.131  -5.863   0.888  0.00  0.00    -0.309 N 
ATOM     17  H   UNL     1       4.203  -5.023   0.408  0.00  0.00    +0.170 HD
ATOM     18  C   UNL     1       5.251  -6.485   1.323  0.00  0.00    +0.259 A 
ATOM     19  O   UNL     1       6.355  -6.012   1.124  0.00  0.00    -0.267 OA
ATOM     20  C   UNL     1       5.084  -7.755   2.044  0.00  0.00    +0.065 A 
ATOM     21  C   UNL     1       6.172  -8.475   2.532  0.00  0.00    +0.015 A 
ATOM     22  C   UNL     1       5.958  -9.660   3.201  0.00  0.00    +0.001 A 
ATOM     23  C   UNL     1       4.668 -10.141   3.391  0.00  0.00    +0.002 A 
ATOM     24  C   UNL     1       3.579  -9.445   2.916  0.00  0.00    +0.028 A 
ATOM     25  C   UNL     1       3.771  -8.241   2.236  0.00  0.00    +0.078 A 
ATOM     26  N   UNL     1       2.727  -7.520   1.756  0.00  0.00    -0.233 NA
ENDBRANCH  14  15
ENDBRANCH  12  14
ENDBRANCH   1  12
BRANCH  11  27
ATOM     27  C   UNL     1       1.917  -2.793  -3.091  0.00  0.00    +0.109 C 
BRANCH  27  28
ATOM     28  C   UNL     1       2.192  -3.807  -4.203  0.00  0.00    -0.056 C 
BRANCH  28  29
ATOM     29  N   UNL     1       3.513  -3.545  -4.790  0.00  0.00    +0.384 N 
ATOM     30  H   UNL     1       4.174  -3.346  -4.054  0.00  0.00    -0.081 HD
BRANCH  29  31
ATOM     31  C   UNL     1       3.958  -4.725  -5.543  0.00  0.00    -0.074 C 
ATOM     32  C   UNL     1       5.255  -4.397  -6.285  0.00  0.00    -0.014 C 
ATOM     33  C   UNL     1       4.203  -5.885  -4.575  0.00  0.00    -0.014 C 
ENDBRANCH  29  31
BRANCH  29  34
ATOM     34  C   UNL     1       3.426  -2.391  -5.694  0.00  0.00    -0.074 C 
ATOM     35  C   UNL     1       2.228  -2.565  -6.630  0.00  0.00    -0.014 C 
ATOM     36  C   UNL     1       3.251  -1.111  -4.874  0.00  0.00    -0.014 C 
ENDBRANCH  29  34
ENDBRANCH  28  29
ENDBRANCH  27  28
ENDBRANCH  11  27
TORSDOF 8
