REMARK  Name = ZINC06726367
REMARK  6 active torsions:
REMARK  status: ('A' for Active; 'I' for Inactive)
REMARK    1  A    between atoms: C_1  and  C_2
REMARK    2  A    between atoms: C_2  and  C_3
REMARK    3  A    between atoms: C_3  and  C_5
REMARK    4  A    between atoms: C_3  and  C_6
REMARK    5  A    between atoms: C_9  and  N_12
REMARK    6  A    between atoms: C_21  and  C_23
REMARK                            x       y       z     vdW  Elec       q    Type
REMARK                         _______ _______ _______ _____ _____    ______ ____
ROOT
ATOM      1  N   UNL     1      -1.416  -6.198   0.419  0.00  0.00    -0.269 N 
ATOM      2  C   UNL     1      -1.871  -6.788   1.542  0.00  0.00    +0.307 C 
ATOM      3  O   UNL     1      -2.377  -6.117   2.420  0.00  0.00    -0.252 OA
ATOM      4  N   UNL     1      -1.763  -8.123   1.692  0.00  0.00    -0.282 N 
ATOM      5  C   UNL     1      -0.993  -8.925   0.730  0.00  0.00    +0.128 C 
ATOM      6  C   UNL     1       0.067  -9.725   1.497  0.00  0.00    +0.127 C 
ATOM      7  N   UNL     1      -0.584 -10.405   2.626  0.00  0.00    -0.296 N 
ATOM      8  C   UNL     1      -1.354  -9.604   3.587  0.00  0.00    +0.127 C 
ATOM      9  C   UNL     1      -2.409  -8.803   2.823  0.00  0.00    +0.128 C 
ATOM     10  C   UNL     1      -0.476 -11.741   2.775  0.00  0.00    +0.245 C 
ATOM     11  O   UNL     1       0.162 -12.391   1.975  0.00  0.00    -0.273 OA
ATOM     12  H   UNL     1      -1.131  -6.740  -0.333  0.00  0.00    +0.156 HD
ENDROOT
BRANCH   1  16
ATOM     13  C   UNL     1      -1.240  -2.042   0.175  0.00  0.00    -0.044 A 
ATOM     14  C   UNL     1      -0.422  -2.816  -0.628  0.00  0.00    +0.006 A 
ATOM     15  C   UNL     1      -0.478  -4.193  -0.549  0.00  0.00    +0.023 A 
ATOM     16  C   UNL     1      -1.357  -4.802   0.337  0.00  0.00    +0.035 A 
ATOM     17  C   UNL     1      -2.177  -4.022   1.143  0.00  0.00    +0.023 A 
ATOM     18  C   UNL     1      -2.112  -2.645   1.063  0.00  0.00    +0.006 A 
BRANCH  13  19
ATOM     19  C   UNL     1      -1.176  -0.539   0.087  0.00  0.00    +0.016 C 
ATOM     20  C   UNL     1      -1.533  -0.096  -1.333  0.00  0.00    +0.012 C 
BRANCH  19  22
ATOM     21  C   UNL     1       0.274   1.461   0.460  0.00  0.00    +0.004 C 
ATOM     22  C   UNL     1       0.239  -0.068   0.428  0.00  0.00    +0.004 C 
ENDBRANCH  19  22
ENDBRANCH  13  19
ENDBRANCH   1  16
BRANCH  10  23
ATOM     23  C   UNL     1      -1.149 -12.425   3.937  0.00  0.00    +0.204 C 
ATOM     24  C   UNL     1      -0.511 -11.956   5.262  0.00  0.00    +0.043 C 
ATOM     25  C   UNL     1      -0.474 -13.268   6.093  0.00  0.00    +0.031 C 
ATOM     26  C   UNL     1      -0.218 -14.314   4.978  0.00  0.00    +0.161 C 
ATOM     27  O   UNL     1      -0.962 -13.842   3.842  0.00  0.00    -0.367 OA
ENDBRANCH  10  23
TORSDOF 4
