REMARK  Name = ZINC01368316
REMARK  11 active torsions:
REMARK  status: ('A' for Active; 'I' for Inactive)
REMARK    1  A    between atoms: C_1  and  C_2
REMARK    2  A    between atoms: C_2  and  C_3
REMARK    3  A    between atoms: C_2  and  C_4
REMARK    4  A    between atoms: C_2  and  C_5
REMARK    5  A    between atoms: N_7  and  C_8
REMARK    6  A    between atoms: N_7  and  C_16
REMARK    7  A    between atoms: C_8  and  C_9
REMARK    8  A    between atoms: C_9  and  C_10
REMARK    9  A    between atoms: C_16  and  C_17
REMARK   10  A    between atoms: N_19  and  C_20
REMARK   11  A    between atoms: C_21  and  C_29
REMARK                            x       y       z     vdW  Elec       q    Type
REMARK                         _______ _______ _______ _____ _____    ______ ____
ROOT
ATOM      1  C   UNL     1      -0.324   2.674  -2.744  0.00  0.00    +0.235 C 
ATOM      2  O   UNL     1      -1.496   2.699  -3.051  0.00  0.00    -0.274 OA
ATOM      3  N   UNL     1       0.599   3.217  -3.563  0.00  0.00    -0.278 N 
ATOM      4  H   UNL     1       1.537   3.197  -3.318  0.00  0.00    +0.155 HD
ENDROOT
BRANCH   3   5
ATOM      5  C   UNL     1       0.207   3.805  -4.756  0.00  0.00    +0.084 A 
ATOM      6  C   UNL     1       1.000   4.415  -5.718  0.00  0.00    +0.068 A 
ATOM      7  C   UNL     1       0.335   4.954  -6.893  0.00  0.00    -0.023 A 
ATOM      8  C   UNL     1      -1.007   4.808  -6.912  0.00  0.00    -0.004 A 
ATOM      9  S   UNL     1      -1.392   3.962  -5.405  0.00  0.00    -0.077 S 
ATOM     10  C   UNL     1      -1.951   5.266  -7.981  0.00  0.00    +0.043 C 
ATOM     11  C   UNL     1      -1.210   6.263  -8.884  0.00  0.00    +0.005 C 
ATOM     12  C   UNL     1       0.150   5.670  -9.262  0.00  0.00    +0.005 C 
ATOM     13  C   UNL     1       1.066   5.646  -8.037  0.00  0.00    +0.037 C 
BRANCH   6  14
ATOM     14  C   UNL     1       2.454   4.509  -5.557  0.00  0.00    +0.244 C 
ATOM     15  O   UNL     1       3.172   3.623  -5.984  0.00  0.00    -0.270 OA
ATOM     16  N   UNL     1       2.996   5.576  -4.937  0.00  0.00    -0.325 N 
ATOM     17  H   UNL     1       2.424   6.282  -4.597  0.00  0.00    +0.145 HD
ATOM     18  H   UNL     1       3.958   5.638  -4.831  0.00  0.00    +0.145 HD
ENDBRANCH   6  14
ENDBRANCH   3   5
BRANCH   1  19
ATOM     19  C   UNL     1       0.103   2.035  -1.448  0.00  0.00    +0.203 C 
BRANCH  19  22
ATOM     20  C   UNL     1      -1.665   2.266   0.214  0.00  0.00    +0.221 C 
ATOM     21  O   UNL     1      -2.586   1.808   0.856  0.00  0.00    -0.275 OA
ATOM     22  N   UNL     1      -1.077   1.524  -0.745  0.00  0.00    -0.292 N 
BRANCH  20  24
ATOM     23  C   UNL     1      -2.208   4.405   1.344  0.00  0.00    +0.020 C 
ATOM     24  C   UNL     1      -1.178   3.666   0.487  0.00  0.00    +0.039 C 
ATOM     25  C   UNL     1       0.157   3.606   1.232  0.00  0.00    +0.020 C 
ATOM     26  C   UNL     1      -0.990   4.408  -0.838  0.00  0.00    +0.020 C 
ENDBRANCH  20  24
BRANCH  22  27
ATOM     27  C   UNL     1      -1.620   0.207  -1.088  0.00  0.00    +0.113 C 
BRANCH  27  28
ATOM     28  C   UNL     1      -0.876  -0.873  -0.301  0.00  0.00    +0.054 C 
BRANCH  28  29
ATOM     29  C   UNL     1      -1.513  -2.213  -0.561  0.00  0.00    -0.046 A 
ATOM     30  C   UNL     1      -2.538  -2.661   0.252  0.00  0.00    +0.004 A 
ATOM     31  C   UNL     1      -3.126  -3.888   0.010  0.00  0.00    +0.000 A 
ATOM     32  C   UNL     1      -2.683  -4.673  -1.038  0.00  0.00    +0.000 A 
ATOM     33  C   UNL     1      -1.654  -4.228  -1.847  0.00  0.00    +0.000 A 
ATOM     34  C   UNL     1      -1.070  -2.998  -1.609  0.00  0.00    +0.004 A 
ENDBRANCH  28  29
ENDBRANCH  27  28
ENDBRANCH  22  27
ENDBRANCH  19  22
ENDBRANCH   1  19
TORSDOF 8
