REMARK  Name = ZINC63303081
REMARK  3 active torsions:
REMARK  status: ('A' for Active; 'I' for Inactive)
REMARK    1  A    between atoms: N_6  and  S_16
REMARK    2  A    between atoms: S_16  and  C_19
REMARK    3  A    between atoms: C_22  and  N_25
REMARK                            x       y       z     vdW  Elec       q    Type
REMARK                         _______ _______ _______ _____ _____    ______ ____
ROOT
ATOM      1  C   UNL     1       0.021   1.330   0.002  0.00  0.00    +0.002 A 
ATOM      2  C   UNL     1       1.144   2.079  -0.005  0.00  0.00    +0.010 A 
ATOM      3  C   UNL     1       2.457   1.423  -0.010  0.00  0.00    +0.002 A 
ATOM      4  C   UNL     1       3.717   1.876   0.050  0.00  0.00    -0.023 C 
ATOM      5  C   UNL     1       4.248   3.267   0.294  0.00  0.00    +0.143 C 
ATOM      6  N   UNL     1       5.324   3.116   1.297  0.00  0.00    -0.172 NA
ATOM      7  C   UNL     1       6.301   2.034   1.128  0.00  0.00    +0.112 C 
ATOM      8  C   UNL     1       5.596   0.675   1.075  0.00  0.00    +0.046 C 
ATOM      9  C   UNL     1       4.623   0.666  -0.108  0.00  0.00    +0.109 C 
ATOM     10  N   UNL     1       3.731  -0.491  -0.063  0.00  0.00    -0.377 N 
ATOM     11  C   UNL     1       2.491  -0.061  -0.029  0.00  0.00    +0.057 A 
ATOM     12  C   UNL     1       1.209  -0.771  -0.011  0.00  0.00    +0.041 A 
ATOM     13  C   UNL     1       0.053  -0.071   0.003  0.00  0.00    +0.017 A 
ATOM     14 BR   UNL     1       1.172  -2.662  -0.010  0.00  0.00    -0.048 Br
ATOM     15  H   UNL     1       4.008  -1.421  -0.059  0.00  0.00    +0.160 HD
ENDROOT
BRANCH   6  16
ATOM     16  S   UNL     1       5.425   4.149   2.587  0.00  0.00    +0.061 S 
ATOM     17  O   UNL     1       6.780   4.132   3.016  0.00  0.00    -0.153 OA
ATOM     18  O   UNL     1       4.764   5.346   2.201  0.00  0.00    -0.153 OA
BRANCH  16  19
ATOM     19  C   UNL     1       4.474   3.446   3.893  0.00  0.00    +0.106 A 
ATOM     20  C   UNL     1       3.130   3.751   4.008  0.00  0.00    +0.030 A 
ATOM     21  C   UNL     1       2.381   3.202   5.031  0.00  0.00    +0.025 A 
ATOM     22  C   UNL     1       2.980   2.343   5.943  0.00  0.00    +0.036 A 
ATOM     23  C   UNL     1       4.329   2.038   5.824  0.00  0.00    +0.025 A 
ATOM     24  C   UNL     1       5.071   2.587   4.796  0.00  0.00    +0.030 A 
BRANCH  22  25
ATOM     25  N   UNL     1       2.224   1.785   6.981  0.00  0.00    -0.271 N 
ATOM     26  C   UNL     1       2.729   0.782   7.926  0.00  0.00    +0.114 C 
ATOM     27  C   UNL     1       1.737   0.796   9.110  0.00  0.00    +0.029 C 
ATOM     28  C   UNL     1       0.447   1.316   8.435  0.00  0.00    +0.098 C 
ATOM     29  C   UNL     1       0.945   2.104   7.243  0.00  0.00    +0.220 C 
ATOM     30  O   UNL     1       0.285   2.904   6.615  0.00  0.00    -0.275 OA
ENDBRANCH  22  25
ENDBRANCH  16  19
ENDBRANCH   6  16
TORSDOF 3
