REMARK  Name = ZINC09696469
REMARK  11 active torsions:
REMARK  status: ('A' for Active; 'I' for Inactive)
REMARK    1  A    between atoms: C_1  and  C_2
REMARK    2  A    between atoms: C_2  and  C_3
REMARK    3  A    between atoms: C_3  and  C_5
REMARK    4  A    between atoms: C_3  and  C_6
REMARK    5  A    between atoms: C_11  and  O_12
REMARK    6  A    between atoms: O_12  and  C_13
REMARK    7  A    between atoms: C_13  and  C_15
REMARK    8  A    between atoms: C_13  and  C_16
REMARK    9  A    between atoms: N_18  and  C_19
REMARK   10  A    between atoms: C_22  and  S_25
REMARK   11  A    between atoms: S_25  and  N_28
REMARK                            x       y       z     vdW  Elec       q    Type
REMARK                         _______ _______ _______ _____ _____    ______ ____
ROOT
ATOM      1  C   UNL     1      -1.307   7.152   0.706  0.00  0.00    +0.258 C 
ATOM      2  O   UNL     1      -0.288   7.538   1.237  0.00  0.00    -0.271 OA
ATOM      3  N   UNL     1      -2.392   7.952   0.668  0.00  0.00    -0.282 N 
ATOM      4  H   UNL     1      -3.229   7.616   0.312  0.00  0.00    +0.155 HD
ENDROOT
BRANCH   3   5
ATOM      5  C   UNL     1      -2.310   9.265   1.145  0.00  0.00    +0.034 A 
ATOM      6  C   UNL     1      -3.413   9.857   1.745  0.00  0.00    +0.025 A 
ATOM      7  C   UNL     1      -3.328  11.152   2.219  0.00  0.00    +0.030 A 
ATOM      8  C   UNL     1      -2.148  11.861   2.086  0.00  0.00    +0.109 A 
ATOM      9  C   UNL     1      -1.050  11.276   1.483  0.00  0.00    +0.030 A 
ATOM     10  C   UNL     1      -1.128   9.980   1.012  0.00  0.00    +0.025 A 
BRANCH   8  11
ATOM     11  S   UNL     1      -2.045  13.515   2.686  0.00  0.00    +0.074 S 
ATOM     12  O   UNL     1      -3.036  13.643   3.696  0.00  0.00    -0.150 OA
ATOM     13  O   UNL     1      -0.670  13.773   2.931  0.00  0.00    -0.150 OA
BRANCH  11  14
ATOM     14  N   UNL     1      -2.501  14.515   1.447  0.00  0.00    -0.194 N 
ATOM     15  C   UNL     1      -3.799  14.473   0.964  0.00  0.00    +0.177 A 
ATOM     16  N   UNL     1      -4.804  13.710   1.352  0.00  0.00    -0.232 NA
ATOM     17  C   UNL     1      -5.990  13.802   0.782  0.00  0.00    +0.120 A 
ATOM     18  C   UNL     1      -6.156  14.693  -0.225  0.00  0.00    +0.068 A 
ATOM     19  S   UNL     1      -4.520  15.405  -0.311  0.00  0.00    -0.059 S 
ATOM     20  H   UNL     1      -1.859  15.130   1.059  0.00  0.00    +0.176 HD
ENDBRANCH  11  14
ENDBRANCH   8  11
ENDBRANCH   3   5
BRANCH   1  21
ATOM     21  C   UNL     1      -1.361   5.779   0.087  0.00  0.00    +0.256 C 
ATOM     22  C   UNL     1      -1.553   5.909  -1.426  0.00  0.00    +0.062 C 
BRANCH  21  23
ATOM     23  O   UNL     1      -0.140   5.088   0.354  0.00  0.00    -0.480 OA
BRANCH  23  29
ATOM     24  C   UNL     1       0.934   2.995   0.708  0.00  0.00    -0.003 A 
ATOM     25  C   UNL     1       0.886   1.614   0.697  0.00  0.00    +0.007 A 
ATOM     26  C   UNL     1      -0.276   0.965   0.322  0.00  0.00    +0.001 A 
ATOM     27  C   UNL     1      -1.391   1.695  -0.047  0.00  0.00    +0.004 A 
ATOM     28  C   UNL     1      -1.349   3.076  -0.032  0.00  0.00    +0.046 A 
ATOM     29  C   UNL     1      -0.184   3.730   0.344  0.00  0.00    +0.125 A 
BRANCH  24  30
ATOM     30  C   UNL     1       2.201   3.702   1.116  0.00  0.00    +0.019 C 
ATOM     31  C   UNL     1       2.566   3.308   2.549  0.00  0.00    +0.012 C 
BRANCH  30  33
ATOM     32  C   UNL     1       4.589   4.111   0.507  0.00  0.00    +0.004 C 
ATOM     33  C   UNL     1       3.336   3.301   0.172  0.00  0.00    +0.004 C 
ENDBRANCH  30  33
ENDBRANCH  24  30
ENDBRANCH  23  29
ENDBRANCH  21  23
ENDBRANCH   1  21
TORSDOF 8
