REMARK  Name = ZINC11982235
REMARK  6 active torsions:
REMARK  status: ('A' for Active; 'I' for Inactive)
REMARK    1  A    between atoms: C_4  and  C_7
REMARK    2  A    between atoms: C_7  and  C_10
REMARK    3  A    between atoms: C_15  and  C_18
REMARK    4  A    between atoms: C_18  and  C_32
REMARK    5  A    between atoms: N_21  and  C_25
REMARK    6  A    between atoms: C_25  and  C_26
REMARK                            x       y       z     vdW  Elec       q    Type
REMARK                         _______ _______ _______ _____ _____    ______ ____
ROOT
ATOM      1  C   UNL     1       6.171   0.403  -0.871  0.00  0.00    +0.142 C 
ATOM      2  C   UNL     1       7.361  -0.260  -0.206  0.00  0.00    +0.251 C 
ATOM      3  O   UNL     1       7.938   0.107   0.796  0.00  0.00    -0.272 OA
ATOM      4  N   UNL     1       7.645  -1.341  -0.959  0.00  0.00    -0.221 N 
ATOM      5  C   UNL     1       6.808  -1.452  -1.997  0.00  0.00    +0.310 C 
ATOM      6  O   UNL     1       6.865  -2.347  -2.817  0.00  0.00    -0.252 OA
ATOM      7  N   UNL     1       5.897  -0.463  -2.031  0.00  0.00    -0.281 N 
ATOM      8  H   UNL     1       5.196  -0.344  -2.691  0.00  0.00    +0.152 HD
ENDROOT
BRANCH   1  14
ATOM      9  C   UNL     1       1.090  -0.748   0.733  0.00  0.00    +0.226 C 
ATOM     10  O   UNL     1       0.855  -1.826   1.236  0.00  0.00    -0.275 OA
ATOM     11  N   UNL     1       2.322  -0.210   0.836  0.00  0.00    -0.301 N 
ATOM     12  C   UNL     1       2.592   1.143   0.332  0.00  0.00    +0.108 C 
ATOM     13  C   UNL     1       3.781   1.089  -0.626  0.00  0.00    +0.025 C 
ATOM     14  C   UNL     1       4.970   0.430   0.076  0.00  0.00    +0.029 C 
ATOM     15  C   UNL     1       4.601  -1.002   0.473  0.00  0.00    +0.025 C 
ATOM     16  C   UNL     1       3.421  -0.969   1.448  0.00  0.00    +0.108 C 
BRANCH   9  17
ATOM     17  C   UNL     1       0.005  -0.009  -0.007  0.00  0.00    +0.072 C 
ATOM     18  C   UNL     1      -1.435  -0.203   0.472  0.00  0.00    +0.022 C 
ATOM     19  C   UNL     1      -0.713   1.120   0.735  0.00  0.00    +0.022 C 
BRANCH  17  23
ATOM     20  C   UNL     1       0.639   0.479  -4.203  0.00  0.00    +0.000 A 
ATOM     21  C   UNL     1       1.165  -0.618  -3.548  0.00  0.00    +0.000 A 
ATOM     22  C   UNL     1       0.960  -0.776  -2.190  0.00  0.00    +0.004 A 
ATOM     23  C   UNL     1       0.229   0.163  -1.487  0.00  0.00    -0.032 A 
ATOM     24  C   UNL     1      -0.301   1.258  -2.144  0.00  0.00    +0.004 A 
ATOM     25  C   UNL     1      -0.092   1.419  -3.501  0.00  0.00    +0.000 A 
ENDBRANCH  17  23
ENDBRANCH   9  17
ENDBRANCH   1  14
BRANCH   1  26
ATOM     26  C   UNL     1       6.523   1.798  -1.319  0.00  0.00    +0.003 A 
ATOM     27  C   UNL     1       7.100   2.013  -2.561  0.00  0.00    +0.009 A 
ATOM     28  C   UNL     1       7.402   3.313  -2.933  0.00  0.00    +0.020 A 
ATOM     29  C   UNL     1       7.130   4.345  -2.054  0.00  0.00    +0.111 A 
ATOM     30  N   UNL     1       6.585   4.104  -0.878  0.00  0.00    -0.263 NA
ATOM     31  C   UNL     1       6.280   2.880  -0.494  0.00  0.00    +0.117 A 
ENDBRANCH   1  26
BRANCH   4  32
ATOM     32  C   UNL     1       8.734  -2.278  -0.675  0.00  0.00    +0.149 C 
BRANCH  32  33
ATOM     33  C   UNL     1       8.219  -3.400   0.228  0.00  0.00    +0.136 C 
ATOM     34  C   UNL     1       9.386  -4.330   0.626  0.00  0.00    +0.035 C 
ATOM     35  C   UNL     1       8.723  -5.733   0.570  0.00  0.00    +0.031 C 
ATOM     36  C   UNL     1       7.729  -5.543  -0.603  0.00  0.00    +0.160 C 
ATOM     37  O   UNL     1       7.257  -4.191  -0.479  0.00  0.00    -0.375 OA
ENDBRANCH  32  33
ENDBRANCH   4  32
TORSDOF 6
