REMARK  Name = ZINC59464055
REMARK  6 active torsions:
REMARK  status: ('A' for Active; 'I' for Inactive)
REMARK    1  A    between atoms: C_1  and  S_2
REMARK    2  A    between atoms: S_2  and  N_5
REMARK    3  A    between atoms: N_5  and  C_6
REMARK    4  A    between atoms: N_5  and  C_23
REMARK    5  A    between atoms: C_6  and  C_7
REMARK    6  A    between atoms: N_9  and  N_10
REMARK                            x       y       z     vdW  Elec       q    Type
REMARK                         _______ _______ _______ _____ _____    ______ ____
ROOT
ATOM      1  C   UNL     1       2.416  -0.579  -1.073  0.00  0.00    +0.228 C 
ENDROOT
BRANCH   1   2
ATOM      2  C   UNL     1       2.723  -2.037  -0.842  0.00  0.00    +0.251 C 
ATOM      3  O   UNL     1       1.826  -2.853  -0.845  0.00  0.00    -0.272 OA
ATOM      4  N   UNL     1       3.994  -2.433  -0.631  0.00  0.00    -0.206 N 
ATOM      5  H   UNL     1       4.711  -1.780  -0.628  0.00  0.00    +0.177 HD
BRANCH   4   6
ATOM      6  N   UNL     1       4.279  -3.787  -0.416  0.00  0.00    -0.189 NA
ATOM      7  C   UNL     1       5.486  -4.164  -0.215  0.00  0.00    +0.037 C 
ATOM      8  C   UNL     1       6.599  -3.148  -0.205  0.00  0.00    +0.052 C 
ATOM      9  C   UNL     1       6.249  -2.017   0.763  0.00  0.00    +0.006 C 
ATOM     10  C   UNL     1       7.315  -1.932   1.857  0.00  0.00    +0.000 C 
ATOM     11  C   UNL     1       6.639  -1.930   3.230  0.00  0.00    +0.000 C 
ATOM     12  C   UNL     1       7.261  -3.020   4.106  0.00  0.00    +0.000 C 
ATOM     13  C   UNL     1       6.157  -3.932   4.645  0.00  0.00    +0.000 C 
ATOM     14  C   UNL     1       6.501  -5.389   4.333  0.00  0.00    +0.000 C 
ATOM     15  C   UNL     1       5.324  -6.047   3.609  0.00  0.00    +0.000 C 
ATOM     16  C   UNL     1       5.810  -6.648   2.288  0.00  0.00    +0.000 C 
ATOM     17  C   UNL     1       4.918  -6.157   1.146  0.00  0.00    +0.006 C 
ATOM     18  C   UNL     1       5.792  -5.621   0.016  0.00  0.00    +0.052 C 
ENDBRANCH   4   6
ENDBRANCH   1   2
BRANCH   1  19
ATOM     19  N   UNL     1       0.975  -0.409  -1.275  0.00  0.00    -0.198 N 
BRANCH  19  20
ATOM     20  C   UNL     1       0.423  -0.589  -2.542  0.00  0.00    +0.059 A 
ATOM     21  C   UNL     1       0.064  -1.849  -2.983  0.00  0.00    +0.025 A 
ATOM     22  C   UNL     1      -0.490  -2.061  -4.245  0.00  0.00    +0.006 A 
ATOM     23  C   UNL     1      -0.697  -1.015  -5.094  0.00  0.00    -0.039 A 
ATOM     24  C   UNL     1      -0.342   0.260  -4.666  0.00  0.00    -0.010 A 
ATOM     25  C   UNL     1       0.214   0.511  -3.399  0.00  0.00    +0.005 A 
ATOM     26  C   UNL     1       0.528   1.839  -3.071  0.00  0.00    +0.010 A 
ATOM     27  C   UNL     1       0.279   2.820  -3.987  0.00  0.00    +0.001 A 
ATOM     28  C   UNL     1      -0.279   2.549  -5.238  0.00  0.00    +0.004 A 
ATOM     29  C   UNL     1      -0.587   1.270  -5.591  0.00  0.00    -0.039 A 
ATOM     30  C   UNL     1      -1.186   0.625  -6.816  0.00  0.00    +0.040 C 
ATOM     31  C   UNL     1      -1.260  -0.882  -6.489  0.00  0.00    +0.040 C 
ENDBRANCH  19  20
BRANCH  19  33
ATOM     32  C   UNL     1      -0.022   1.810   0.012  0.00  0.00    +0.218 C 
ATOM     33  S   UNL     1       0.002  -0.004   0.002  0.00  0.00    +0.043 S 
ATOM     34  O   UNL     1       0.687  -0.491   1.148  0.00  0.00    -0.155 OA
ATOM     35  O   UNL     1      -1.280  -0.509  -0.345  0.00  0.00    -0.155 OA
ENDBRANCH  19  33
ENDBRANCH   1  19
TORSDOF 5
