REMARK  Name = ZINC23707187
REMARK  4 active torsions:
REMARK  status: ('A' for Active; 'I' for Inactive)
REMARK    1  A    between atoms: C_3  and  N_24
REMARK    2  A    between atoms: C_6  and  N_7
REMARK    3  A    between atoms: N_10  and  C_13
REMARK    4  A    between atoms: C_13  and  C_14
REMARK                            x       y       z     vdW  Elec       q    Type
REMARK                         _______ _______ _______ _____ _____    ______ ____
ROOT
ATOM      1  N   UNL     1      -1.171  -0.728  -0.031  0.00  0.00    -0.327 N 
ATOM      2  C   UNL     1      -2.461  -0.036   0.112  0.00  0.00    +0.120 C 
ATOM      3  C   UNL     1      -3.397  -0.516  -1.002  0.00  0.00    +0.104 C 
ATOM      4  N   UNL     1      -3.473  -1.983  -0.974  0.00  0.00    -0.291 NA
ATOM      5  C   UNL     1      -2.164  -2.590  -1.252  0.00  0.00    +0.104 C 
ATOM      6  C   UNL     1      -1.177  -2.193  -0.154  0.00  0.00    +0.120 C 
ENDROOT
BRANCH   1  12
ATOM      7  C   UNL     1       0.009   1.378  -0.057  0.00  0.00    +0.025 A 
ATOM      8  C   UNL     1       1.196   2.083  -0.080  0.00  0.00    +0.034 A 
ATOM      9  C   UNL     1       2.403   1.408  -0.100  0.00  0.00    +0.126 A 
ATOM     10  C   UNL     1       2.425   0.025  -0.098  0.00  0.00    +0.034 A 
ATOM     11  C   UNL     1       1.242  -0.686  -0.075  0.00  0.00    +0.025 A 
ATOM     12  C   UNL     1       0.028  -0.011  -0.054  0.00  0.00    +0.030 A 
BRANCH   9  13
ATOM     13  N   UNL     1       3.673   2.167  -0.125  0.00  0.00    +0.056 N 
ATOM     14  O   UNL     1       3.655   3.376  -0.128  0.00  0.00    -0.126 OA
ATOM     15  O   UNL     1       4.729   1.578  -0.143  0.00  0.00    -0.126 OA
ENDBRANCH   9  13
ENDBRANCH   1  12
BRANCH   4  16
ATOM     16  C   UNL     1      -4.491  -2.476  -1.912  0.00  0.00    +0.180 C 
BRANCH  16  17
ATOM     17  C   UNL     1      -4.713  -3.949  -1.684  0.00  0.00    +0.230 C 
ATOM     18  O   UNL     1      -4.166  -4.508  -0.758  0.00  0.00    -0.274 OA
ATOM     19  N   UNL     1      -5.521  -4.644  -2.509  0.00  0.00    -0.300 N 
ATOM     20  C   UNL     1      -5.840  -6.050  -2.225  0.00  0.00    +0.108 C 
ATOM     21  C   UNL     1      -6.709  -6.122  -0.976  0.00  0.00    +0.019 C 
ATOM     22  C   UNL     1      -8.122  -5.615  -1.315  0.00  0.00    +0.002 C 
ATOM     23  C   UNL     1      -8.116  -4.092  -1.368  0.00  0.00    +0.000 C 
ATOM     24  C   UNL     1      -8.387  -3.596  -2.800  0.00  0.00    +0.002 C 
ATOM     25  C   UNL     1      -7.564  -4.414  -3.794  0.00  0.00    +0.019 C 
ATOM     26  C   UNL     1      -6.092  -4.009  -3.685  0.00  0.00    +0.108 C 
ENDBRANCH  16  17
ENDBRANCH   4  16
TORSDOF 4
