REMARK  Name = ZINC03353231
REMARK  7 active torsions:
REMARK  status: ('A' for Active; 'I' for Inactive)
REMARK    1  A    between atoms: C_1  and  N_57
REMARK    2  A    between atoms: C_2  and  C_3
REMARK    3  A    between atoms: C_2  and  N_57
REMARK    4  A    between atoms: C_8  and  N_9
REMARK    5  A    between atoms: N_9  and  S_10
REMARK    6  A    between atoms: S_10  and  C_13
REMARK    7  A    between atoms: C_23  and  N_57
REMARK                            x       y       z     vdW  Elec       q    Type
REMARK                         _______ _______ _______ _____ _____    ______ ____
ROOT
ATOM      1  C   UNL     1       4.059  -0.016  -3.789  0.00  0.00    -0.042 A 
ATOM      2  C   UNL     1       4.237   1.076  -4.618  0.00  0.00    +0.003 A 
ATOM      3  C   UNL     1       4.881   2.205  -4.147  0.00  0.00    +0.000 A 
ATOM      4  C   UNL     1       5.346   2.248  -2.845  0.00  0.00    +0.002 A 
ATOM      5  C   UNL     1       5.168   1.162  -2.011  0.00  0.00    +0.025 A 
ATOM      6  C   UNL     1       4.520   0.026  -2.480  0.00  0.00    +0.049 A 
ENDROOT
BRANCH   6   7
ATOM      7  N   UNL     1       4.338  -1.074  -1.639  0.00  0.00    -0.216 N 
ATOM      8  H   UNL     1       4.387  -1.973  -1.999  0.00  0.00    +0.174 HD
BRANCH   7   9
ATOM      9  S   UNL     1       4.040  -0.842  -0.026  0.00  0.00    +0.072 S 
ATOM     10  O   UNL     1       5.078  -0.004   0.463  0.00  0.00    -0.150 OA
ATOM     11  O   UNL     1       3.773  -2.124   0.525  0.00  0.00    -0.150 OA
BRANCH   9  12
ATOM     12  C   UNL     1       2.545   0.082   0.100  0.00  0.00    +0.112 A 
ATOM     13  C   UNL     1       1.332  -0.576   0.179  0.00  0.00    +0.032 A 
ATOM     14  C   UNL     1       0.157   0.145   0.277  0.00  0.00    +0.051 A 
ATOM     15  C   UNL     1       0.192   1.531   0.295  0.00  0.00    +0.162 A 
ATOM     16  C   UNL     1       1.412   2.193   0.218  0.00  0.00    +0.164 A 
ATOM     17  C   UNL     1       2.587   1.463   0.119  0.00  0.00    +0.078 A 
ATOM     18  O   UNL     1       1.470   3.552   0.243  0.00  0.00    -0.485 OA
ATOM     19  C   UNL     1       0.253   4.253  -0.033  0.00  0.00    +0.270 C 
ATOM     20  C   UNL     1      -0.874   3.601   0.780  0.00  0.00    +0.270 C 
ATOM     21  O   UNL     1      -0.974   2.228   0.384  0.00  0.00    -0.485 OA
ENDBRANCH   9  12
ENDBRANCH   7   9
ENDBRANCH   6   7
BRANCH   1  22
ATOM     22  C   UNL     1       3.362  -1.248  -4.305  0.00  0.00    -0.041 C 
BRANCH  22  24
ATOM     23  C   UNL     1       1.216  -0.139  -4.463  0.00  0.00    -0.095 C 
ATOM     24  N   UNL     1       1.964  -1.242  -3.824  0.00  0.00    +0.382 N 
ATOM     25  H   UNL     1       1.963  -1.101  -2.807  0.00  0.00    -0.081 HD
BRANCH  24  26
ATOM     26  C   UNL     1       1.319  -2.535  -4.130  0.00  0.00    -0.069 C 
ATOM     27  C   UNL     1       1.234  -2.748  -5.643  0.00  0.00    -0.015 C 
ATOM     28  C   UNL     1       0.562  -4.091  -5.933  0.00  0.00    -0.002 C 
ATOM     29  C   UNL     1      -0.848  -4.095  -5.338  0.00  0.00    -0.000 C 
ATOM     30  C   UNL     1      -0.763  -3.882  -3.825  0.00  0.00    -0.002 C 
ATOM     31  C   UNL     1      -0.091  -2.539  -3.535  0.00  0.00    -0.015 C 
ENDBRANCH  24  26
ENDBRANCH  22  24
ENDBRANCH   1  22
TORSDOF 6
