REMARK  Name = ZINC39933839
REMARK  3 active torsions:
REMARK  status: ('A' for Active; 'I' for Inactive)
REMARK    1  A    between atoms: C_1  and  C_2
REMARK    2  A    between atoms: C_3  and  N_24
REMARK    3  A    between atoms: C_4  and  C_17
REMARK                            x       y       z     vdW  Elec       q    Type
REMARK                         _______ _______ _______ _____ _____    ______ ____
ROOT
ATOM      1  C   UNL     1      -0.018   1.503   0.010  0.00  0.00    +0.063 C 
ATOM      2  C   UNL     1       0.002  -0.004   0.002  0.00  0.00    +0.032 C 
ATOM      3  C   UNL     1      -1.142  -0.644   0.004  0.00  0.00    +0.132 C 
ATOM      4  C   UNL     1      -1.254  -2.145  -0.011  0.00  0.00    +0.112 C 
ATOM      5  C   UNL     1       0.100  -2.744   0.276  0.00  0.00    +0.035 C 
ATOM      6  C   UNL     1       1.254  -1.996   0.264  0.00  0.00    +0.047 C 
ATOM      7  N   UNL     1       1.232  -0.649  -0.013  0.00  0.00    -0.316 N 
ATOM      8  C   UNL     1       2.390  -2.869   0.574  0.00  0.00    +0.007 A 
ATOM      9  C   UNL     1       3.749  -2.618   0.682  0.00  0.00    +0.010 A 
ATOM     10  C   UNL     1       4.571  -3.702   1.001  0.00  0.00    +0.001 A 
ATOM     11  C   UNL     1       4.064  -4.965   1.199  0.00  0.00    +0.001 A 
ATOM     12  C   UNL     1       2.696  -5.236   1.092  0.00  0.00    +0.012 A 
ATOM     13  C   UNL     1       1.872  -4.173   0.778  0.00  0.00    +0.031 A 
ATOM     14  C   UNL     1       0.407  -4.084   0.586  0.00  0.00    +0.193 C 
ATOM     15  O   UNL     1      -0.387  -5.001   0.679  0.00  0.00    -0.287 OA
ATOM     16  H   UNL     1       2.049  -0.165  -0.209  0.00  0.00    +0.152 HD
ENDROOT
BRANCH   4  17
ATOM     17  C   UNL     1      -1.731  -2.601  -1.366  0.00  0.00    +0.001 A 
ATOM     18  C   UNL     1      -0.984  -2.316  -2.494  0.00  0.00    +0.007 A 
ATOM     19  C   UNL     1      -1.422  -2.734  -3.737  0.00  0.00    +0.000 A 
ATOM     20  C   UNL     1      -2.606  -3.437  -3.854  0.00  0.00    +0.003 A 
ATOM     21  C   UNL     1      -3.354  -3.724  -2.728  0.00  0.00    +0.038 A 
ATOM     22  C   UNL     1      -2.914  -3.310  -1.481  0.00  0.00    +0.128 A 
ATOM     23  F   UNL     1      -3.642  -3.594  -0.379  0.00  0.00    -0.205 F 
ENDBRANCH   4  17
BRANCH   3  24
ATOM     24  N   UNL     1      -2.390   0.151   0.022  0.00  0.00    +0.055 N 
ATOM     25  O   UNL     1      -2.337   1.359   0.035  0.00  0.00    -0.126 OA
ATOM     26  O   UNL     1      -3.463  -0.407   0.025  0.00  0.00    -0.126 OA
ENDBRANCH   3  24
TORSDOF 2
