REMARK  Name = ZINC67252104
REMARK  5 active torsions:
REMARK  status: ('A' for Active; 'I' for Inactive)
REMARK    1  A    between atoms: C_5  and  N_7
REMARK    2  A    between atoms: N_10  and  C_11
REMARK    3  A    between atoms: C_11  and  C_12
REMARK    4  A    between atoms: C_12  and  C_13
REMARK    5  A    between atoms: C_13  and  C_14
REMARK                            x       y       z     vdW  Elec       q    Type
REMARK                         _______ _______ _______ _____ _____    ______ ____
ROOT
ATOM      1  N   UNL     1       1.237  -2.074  -0.019  0.00  0.00    -0.269 N 
ATOM      2  C   UNL     1       0.085  -2.766   0.086  0.00  0.00    +0.304 C 
ATOM      3  O   UNL     1      -0.979  -2.178   0.098  0.00  0.00    -0.253 OA
ATOM      4  N   UNL     1       0.113  -4.110   0.179  0.00  0.00    -0.299 N 
ATOM      5  H   UNL     1       2.080  -2.545  -0.111  0.00  0.00    +0.156 HD
ATOM      6  H   UNL     1       0.962  -4.579   0.169  0.00  0.00    +0.150 HD
ENDROOT
BRANCH   1  11
ATOM      7  C   UNL     1       0.153   1.370   0.645  0.00  0.00    +0.002 A 
ATOM      8  C   UNL     1       1.172   2.079   0.043  0.00  0.00    +0.004 A 
ATOM      9  C   UNL     1       2.221   1.419  -0.585  0.00  0.00    -0.042 A 
ATOM     10  C   UNL     1       2.248   0.044  -0.603  0.00  0.00    -0.023 A 
ATOM     11  C   UNL     1       1.217  -0.674   0.003  0.00  0.00    +0.038 A 
ATOM     12  C   UNL     1       0.172  -0.010   0.626  0.00  0.00    +0.023 A 
ATOM     13  C   UNL     1       3.361  -0.738  -1.250  0.00  0.00    +0.037 C 
ATOM     14  C   UNL     1       4.151   0.148  -2.211  0.00  0.00    +0.005 C 
ATOM     15  C   UNL     1       4.552   1.429  -1.471  0.00  0.00    +0.005 C 
ATOM     16  C   UNL     1       3.294   2.259  -1.228  0.00  0.00    +0.035 C 
ENDBRANCH   1  11
BRANCH   4  17
ATOM     17  C   UNL     1      -1.138  -4.863   0.293  0.00  0.00    +0.106 C 
BRANCH  17  18
ATOM     18  C   UNL     1      -0.828  -6.358   0.382  0.00  0.00    +0.026 C 
BRANCH  18  19
ATOM     19  C   UNL     1      -2.135  -7.144   0.502  0.00  0.00    +0.078 C 
BRANCH  19  20
ATOM     20  C   UNL     1      -1.829  -8.617   0.590  0.00  0.00    +0.134 A 
ATOM     21  N   UNL     1      -1.718  -9.448  -0.413  0.00  0.00    -0.134 NA
ATOM     22  N   UNL     1      -1.443 -10.626   0.028  0.00  0.00    -0.134 NA
ATOM     23  C   UNL     1      -1.364 -10.598   1.328  0.00  0.00    +0.133 A 
ATOM     24  N   UNL     1      -1.613  -9.326   1.720  0.00  0.00    -0.315 N 
ATOM     25  C   UNL     1      -1.655  -8.832   3.096  0.00  0.00    +0.125 C 
ATOM     26  C   UNL     1      -0.736  -9.688   3.972  0.00  0.00    +0.022 C 
ATOM     27  C   UNL     1      -1.519 -10.873   4.536  0.00  0.00    +0.002 C 
ATOM     28  C   UNL     1      -2.038 -11.757   3.406  0.00  0.00    +0.008 C 
ATOM     29  C   UNL     1      -1.045 -11.748   2.247  0.00  0.00    +0.076 C 
ENDBRANCH  19  20
ENDBRANCH  18  19
ENDBRANCH  17  18
ENDBRANCH   4  17
TORSDOF 5
