REMARK  Name = ZINC36960547
REMARK  3 active torsions:
REMARK  status: ('A' for Active; 'I' for Inactive)
REMARK    1  A    between atoms: C_5  and  S_6
REMARK    2  A    between atoms: S_6  and  N_9
REMARK    3  A    between atoms: C_13  and  N_15
REMARK                            x       y       z     vdW  Elec       q    Type
REMARK                         _______ _______ _______ _____ _____    ______ ____
ROOT
ATOM      1  S   UNL     1      -1.352  -1.132   0.010  0.00  0.00    +0.066 S 
ATOM      2  O   UNL     1      -0.861  -2.352   0.549  0.00  0.00    -0.152 OA
ATOM      3  O   UNL     1      -2.455  -0.438   0.576  0.00  0.00    -0.152 OA
ENDROOT
BRANCH   1   8
ATOM      4  C   UNL     1      -0.016   1.351   0.009  0.00  0.00    +0.037 A 
ATOM      5  C   UNL     1       1.183   2.038   0.002  0.00  0.00    +0.025 A 
ATOM      6  C   UNL     1       2.343   1.335  -0.013  0.00  0.00    +0.057 A 
ATOM      7  S   UNL     1       1.753  -0.350  -0.017  0.00  0.00    -0.062 S 
ATOM      8  C   UNL     1       0.002  -0.004   0.002  0.00  0.00    +0.144 A 
ATOM      9 BR   UNL     1       4.123   1.974  -0.027  0.00  0.00    -0.043 Br
ENDBRANCH   1   8
BRANCH   1  10
ATOM     10  N   UNL     1      -1.744  -1.437  -1.570  0.00  0.00    -0.191 NA
ATOM     11  C   UNL     1      -2.709  -0.671  -2.379  0.00  0.00    +0.107 C 
ATOM     12  C   UNL     1      -2.275  -0.910  -3.846  0.00  0.00    +0.017 C 
ATOM     13  C   UNL     1      -1.822  -2.393  -3.799  0.00  0.00    +0.002 C 
ATOM     14  C   UNL     1      -1.182  -2.513  -2.400  0.00  0.00    +0.019 C 
BRANCH  14  15
ATOM     15  N   UNL     1      -1.509  -3.819  -1.814  0.00  0.00    +0.389 N 
ATOM     16  H   UNL     1      -2.512  -3.925  -1.766  0.00  0.00    -0.088 HD
ATOM     17  H   UNL     1      -1.121  -4.552  -2.388  0.00  0.00    -0.088 HD
ATOM     18  H   UNL     1      -1.120  -3.878  -0.884  0.00  0.00    -0.088 HD
ENDBRANCH  14  15
ENDBRANCH   1  10
TORSDOF 3
