REMARK  Name = ZINC20528252
REMARK  7 active torsions:
REMARK  status: ('A' for Active; 'I' for Inactive)
REMARK    1  A    between atoms: C_5  and  C_7
REMARK    2  A    between atoms: N_8  and  N_9
REMARK    3  A    between atoms: C_13  and  S_16
REMARK    4  A    between atoms: N_14  and  N_15
REMARK    5  A    between atoms: S_16  and  C_17
REMARK    6  A    between atoms: C_17  and  C_18
REMARK    7  A    between atoms: N_20  and  C_21
REMARK                            x       y       z     vdW  Elec       q    Type
REMARK                         _______ _______ _______ _____ _____    ______ ____
ROOT
ATOM      1  N   UNL     1      -3.754   5.856   0.131  0.00  0.00    -0.204 N 
ATOM      2  C   UNL     1      -3.767   7.243   0.127  0.00  0.00    +0.254 A 
ATOM      3  N   UNL     1      -2.714   8.024   0.124  0.00  0.00    -0.109 NA
ATOM      4  N   UNL     1      -3.159   9.352   0.118  0.00  0.00    -0.119 NA
ATOM      5  C   UNL     1      -4.471   9.339   0.126  0.00  0.00    +0.210 A 
ATOM      6  N   UNL     1      -4.881   8.036   0.132  0.00  0.00    -0.211 N 
ATOM      7  H   UNL     1      -4.701   5.297   0.139  0.00  0.00    +0.177 HD
ENDROOT
BRANCH   6   8
ATOM      8  N   UNL     1      -6.176   7.602   0.141  0.00  0.00    -0.294 N 
ATOM      9  H   UNL     1      -7.000   8.330   0.144  0.00  0.00    +0.163 HD
ATOM     10  H   UNL     1      -6.394   6.524   0.145  0.00  0.00    +0.163 HD
ENDBRANCH   6   8
BRANCH   1  12
ATOM     11  C   UNL     1      -2.522   3.868   0.129  0.00  0.00    +0.139 C 
ATOM     12  N   UNL     1      -2.534   5.167   0.126  0.00  0.00    -0.187 NA
BRANCH  11  17
ATOM     13  C   UNL     1      -0.017   1.074   0.120  0.00  0.00    +0.001 A 
ATOM     14  C   UNL     1       1.173   1.780   0.112  0.00  0.00    +0.001 A 
ATOM     15  C   UNL     1       1.165   3.163   0.108  0.00  0.00    +0.020 A 
ATOM     16  C   UNL     1      -0.032   3.850   0.114  0.00  0.00    +0.050 A 
ATOM     17  C   UNL     1      -1.238   3.143   0.123  0.00  0.00    +0.013 A 
ATOM     18  C   UNL     1      -1.222   1.746   0.121  0.00  0.00    +0.011 A 
ATOM     19 CL   UNL     1      -0.041   5.586   0.109  0.00  0.00    -0.083 Cl
ENDBRANCH  11  17
ENDBRANCH   1  12
BRANCH   5  20
ATOM     20  S   UNL     1      -5.520  10.755   0.129  0.00  0.00    -0.075 S 
BRANCH  20  21
ATOM     21  C   UNL     1      -4.367  12.155   0.117  0.00  0.00    +0.173 C 
BRANCH  21  22
ATOM     22  C   UNL     1      -5.145  13.446   0.119  0.00  0.00    +0.228 C 
ATOM     23  O   UNL     1      -6.358  13.424   0.127  0.00  0.00    -0.275 OA
ATOM     24  N   UNL     1      -4.493  14.626   0.111  0.00  0.00    -0.284 N 
ATOM     25  H   UNL     1      -3.396  14.648   0.179  0.00  0.00    +0.155 HD
BRANCH  24  26
ATOM     26  C   UNL     1      -5.213  15.823   0.018  0.00  0.00    +0.052 A 
ATOM     27  C   UNL     1      -6.458  15.935   0.622  0.00  0.00    +0.026 A 
ATOM     28  C   UNL     1      -7.167  17.117   0.529  0.00  0.00    +0.022 A 
ATOM     29  C   UNL     1      -6.636  18.190  -0.165  0.00  0.00    +0.042 A 
ATOM     30  C   UNL     1      -5.396  18.083  -0.768  0.00  0.00    +0.041 A 
ATOM     31  C   UNL     1      -4.681  16.904  -0.674  0.00  0.00    +0.064 A 
ATOM     32 CL   UNL     1      -3.121  16.771  -1.425  0.00  0.00    -0.082 Cl
ATOM     33 CL   UNL     1      -7.530  19.674  -0.280  0.00  0.00    -0.083 Cl
ENDBRANCH  24  26
ENDBRANCH  21  22
ENDBRANCH  20  21
ENDBRANCH   5  20
TORSDOF 7
