REMARK  Name = ZINC35157731
REMARK  17 active torsions:
REMARK  status: ('A' for Active; 'I' for Inactive)
REMARK    1  A    between atoms: C_1  and  C_2
REMARK    2  A    between atoms: C_2  and  N_3
REMARK    3  A    between atoms: N_3  and  C_4
REMARK    4  A    between atoms: N_3  and  C_6
REMARK    5  A    between atoms: C_4  and  C_5
REMARK    6  A    between atoms: C_6  and  C_7
REMARK    7  A    between atoms: C_7  and  C_8
REMARK    8  A    between atoms: C_8  and  C_9
REMARK    9  A    between atoms: C_9  and  C_11
REMARK   10  A    between atoms: C_9  and  N_12
REMARK   11  A    between atoms: C_13  and  C_15
REMARK   12  A    between atoms: C_15  and  C_17
REMARK   13  A    between atoms: C_15  and  S_18
REMARK   14  A    between atoms: S_18  and  C_19
REMARK   15  A    between atoms: C_25  and  C_38
REMARK   16  A    between atoms: N_29  and  C_30
REMARK   17  A    between atoms: C_30  and  C_31
REMARK                            x       y       z     vdW  Elec       q    Type
REMARK                         _______ _______ _______ _____ _____    ______ ____
ROOT
ATOM      1  C   UNL     1       7.504  -1.918   6.866  0.00  0.00    +0.212 A 
ATOM      2  N   UNL     1       7.992  -1.364   7.968  0.00  0.00    -0.201 NA
ATOM      3  C   UNL     1       9.192  -0.793   7.933  0.00  0.00    +0.165 A 
ATOM      4  C   UNL     1       9.901  -0.799   6.713  0.00  0.00    +0.138 A 
ATOM      5  C   UNL     1      11.175  -0.107   6.972  0.00  0.00    +0.029 A 
ATOM      6  C   UNL     1      12.279   0.202   6.180  0.00  0.00    +0.015 A 
ATOM      7  C   UNL     1      13.348   0.878   6.728  0.00  0.00    -0.050 A 
ATOM      8  C   UNL     1      13.327   1.252   8.063  0.00  0.00    +0.005 A 
ATOM      9  C   UNL     1      12.241   0.953   8.858  0.00  0.00    +0.027 A 
ATOM     10  C   UNL     1      11.153   0.271   8.323  0.00  0.00    +0.053 A 
ATOM     11  N   UNL     1       9.955  -0.151   8.877  0.00  0.00    -0.319 N 
ATOM     12  C   UNL     1      14.543   1.212   5.873  0.00  0.00    +0.044 C 
ATOM     13  N   UNL     1       9.358  -1.369   5.648  0.00  0.00    -0.143 NA
ATOM     14  N   UNL     1       8.194  -1.915   5.729  0.00  0.00    -0.122 NA
ENDROOT
BRANCH   1  15
ATOM     15  S   UNL     1       5.914  -2.676   6.910  0.00  0.00    -0.072 S 
BRANCH  15  16
ATOM     16  C   UNL     1       5.673  -3.288   5.220  0.00  0.00    +0.137 C 
ATOM     17  C   UNL     1       6.703  -4.379   4.920  0.00  0.00    +0.029 C 
BRANCH  16  19
ATOM     18  N   UNL     1       3.729  -4.002   3.866  0.00  0.00    -0.312 N 
ATOM     19  C   UNL     1       4.284  -3.859   5.086  0.00  0.00    +0.226 C 
ATOM     20  O   UNL     1       3.667  -4.190   6.076  0.00  0.00    -0.275 OA
ATOM     21  H   UNL     1       4.223  -3.737   3.075  0.00  0.00    +0.149 HD
BRANCH  18  22
ATOM     22  C   UNL     1       2.379  -4.556   3.736  0.00  0.00    +0.070 C 
ATOM     23  C   UNL     1       2.455  -6.084   3.719  0.00  0.00    +0.028 C 
BRANCH  22  24
ATOM     24  C   UNL     1       1.748  -4.062   2.433  0.00  0.00    +0.020 C 
BRANCH  24  25
ATOM     25  C   UNL     1       1.558  -2.546   2.502  0.00  0.00    -0.017 C 
BRANCH  25  26
ATOM     26  C   UNL     1       0.926  -2.051   1.199  0.00  0.00    -0.079 C 
BRANCH  26  27
ATOM     27  N   UNL     1       0.643  -0.614   1.306  0.00  0.00    +0.379 N 
ATOM     28  H   UNL     1       0.074  -0.444   2.122  0.00  0.00    -0.082 HD
BRANCH  27  30
ATOM     29  C   UNL     1       1.607   1.609   1.663  0.00  0.00    -0.017 C 
ATOM     30  C   UNL     1       1.905   0.127   1.426  0.00  0.00    -0.082 C 
ENDBRANCH  27  30
BRANCH  27  31
ATOM     31  C   UNL     1      -0.076  -0.166   0.106  0.00  0.00    -0.082 C 
ATOM     32  C   UNL     1      -1.460  -0.817   0.068  0.00  0.00    -0.017 C 
ENDBRANCH  27  31
ENDBRANCH  26  27
ENDBRANCH  25  26
ENDBRANCH  24  25
ENDBRANCH  22  24
ENDBRANCH  18  22
ENDBRANCH  16  19
ENDBRANCH  15  16
ENDBRANCH   1  15
BRANCH  11  33
ATOM     33  C   UNL     1       9.558   0.058  10.271  0.00  0.00    +0.162 C 
BRANCH  33  34
ATOM     34  C   UNL     1      10.023  -1.108  11.106  0.00  0.00    +0.007 A 
ATOM     35  C   UNL     1       9.165  -2.162  11.359  0.00  0.00    +0.008 A 
ATOM     36  C   UNL     1       9.591  -3.231  12.125  0.00  0.00    +0.000 A 
ATOM     37  C   UNL     1      10.875  -3.248  12.637  0.00  0.00    +0.003 A 
ATOM     38  C   UNL     1      11.734  -2.196  12.385  0.00  0.00    +0.039 A 
ATOM     39  C   UNL     1      11.310  -1.126  11.614  0.00  0.00    +0.128 A 
ATOM     40  F   UNL     1      12.151  -0.099  11.362  0.00  0.00    -0.205 F 
ENDBRANCH  33  34
ENDBRANCH  11  33
TORSDOF 12
