REMARK  Name = ZINC39708465
REMARK  10 active torsions:
REMARK  status: ('A' for Active; 'I' for Inactive)
REMARK    1  A    between atoms: C_1  and  C_2
REMARK    2  A    between atoms: C_2  and  C_3
REMARK    3  A    between atoms: C_3  and  C_5
REMARK    4  A    between atoms: C_3  and  S_6
REMARK    5  A    between atoms: S_6  and  C_7
REMARK    6  A    between atoms: C_10  and  C_22
REMARK    7  A    between atoms: N_11  and  C_12
REMARK    8  A    between atoms: C_15  and  C_18
REMARK    9  A    between atoms: C_22  and  N_23
REMARK   10  A    between atoms: C_24  and  C_26
REMARK                            x       y       z     vdW  Elec       q    Type
REMARK                         _______ _______ _______ _____ _____    ______ ____
ROOT
ATOM      1  C   UNL     1      -3.900  -0.616   1.373  0.00  0.00    +0.196 A 
ATOM      2  N   UNL     1      -4.404  -1.219   0.321  0.00  0.00    -0.122 NA
ATOM      3  N   UNL     1      -5.648  -1.473   0.515  0.00  0.00    -0.132 NA
ATOM      4  C   UNL     1      -6.013  -1.051   1.693  0.00  0.00    +0.156 A 
ATOM      5  N   UNL     1      -4.911  -0.495   2.286  0.00  0.00    -0.273 N 
ENDROOT
BRANCH   5   6
ATOM      6  C   UNL     1      -4.836   0.082   3.562  0.00  0.00    +0.050 A 
ATOM      7  C   UNL     1      -5.019  -0.703   4.692  0.00  0.00    +0.027 A 
ATOM      8  C   UNL     1      -4.944  -0.133   5.948  0.00  0.00    +0.014 A 
ATOM      9  C   UNL     1      -4.686   1.219   6.080  0.00  0.00    +0.055 A 
ATOM     10  C   UNL     1      -4.503   2.004   4.956  0.00  0.00    +0.014 A 
ATOM     11  C   UNL     1      -4.572   1.438   3.698  0.00  0.00    +0.027 A 
BRANCH   9  12
ATOM     12  C   UNL     1      -4.606   1.839   7.452  0.00  0.00    +0.417 C 
ATOM     13  F   UNL     1      -3.286   1.781   7.913  0.00  0.00    -0.166 F 
ATOM     14  F   UNL     1      -5.018   3.174   7.385  0.00  0.00    -0.166 F 
ATOM     15  F   UNL     1      -5.438   1.137   8.330  0.00  0.00    -0.166 F 
ENDBRANCH   9  12
ENDBRANCH   5   6
BRANCH   1  16
ATOM     16  S   UNL     1      -2.236  -0.073   1.573  0.00  0.00    -0.083 S 
BRANCH  16  17
ATOM     17  C   UNL     1      -1.433  -0.534   0.013  0.00  0.00    +0.051 C 
ATOM     18  C   UNL     1      -1.416  -2.058  -0.121  0.00  0.00    +0.019 C 
BRANCH  17  20
ATOM     19  C   UNL     1      -0.019   1.526   0.010  0.00  0.00    +0.005 C 
ATOM     20  C   UNL     1       0.002  -0.004   0.002  0.00  0.00    +0.011 C 
ENDBRANCH  17  20
ENDBRANCH  16  17
ENDBRANCH   1  16
BRANCH   4  21
ATOM     21  C   UNL     1      -7.391  -1.161   2.294  0.00  0.00    +0.181 C 
BRANCH  21  22
ATOM     22  N   UNL     1      -7.503  -2.422   3.031  0.00  0.00    -0.308 N 
ATOM     23  C   UNL     1      -8.655  -2.737   3.656  0.00  0.00    +0.220 C 
ATOM     24  O   UNL     1      -9.599  -1.977   3.608  0.00  0.00    -0.275 OA
ATOM     25  H   UNL     1      -6.749  -3.030   3.070  0.00  0.00    +0.149 HD
BRANCH  23  26
ATOM     26  C   UNL     1      -8.771  -4.034   4.414  0.00  0.00    +0.048 C 
ATOM     27  C   UNL     1      -8.536  -5.206   3.459  0.00  0.00    +0.019 C 
ATOM     28  C   UNL     1      -8.653  -6.523   4.229  0.00  0.00    -0.009 C 
ATOM     29  C   UNL     1     -10.052  -6.635   4.839  0.00  0.00    +0.007 C 
ATOM     30  C   UNL     1     -10.287  -5.463   5.794  0.00  0.00    -0.009 C 
ATOM     31  C   UNL     1     -10.170  -4.146   5.024  0.00  0.00    +0.019 C 
ATOM     32  C   UNL     1      -9.240  -5.496   6.910  0.00  0.00    +0.007 C 
ATOM     33  C   UNL     1      -7.841  -5.385   6.300  0.00  0.00    -0.009 C 
ATOM     34  C   UNL     1      -7.606  -6.556   5.345  0.00  0.00    +0.007 C 
ATOM     35  C   UNL     1      -7.724  -4.068   5.530  0.00  0.00    +0.019 C 
ENDBRANCH  23  26
ENDBRANCH  21  22
ENDBRANCH   4  21
TORSDOF 8
