REMARK  Name = ZINC08849250
REMARK  11 active torsions:
REMARK  status: ('A' for Active; 'I' for Inactive)
REMARK    1  A    between atoms: C_1  and  C_2
REMARK    2  A    between atoms: C_2  and  C_3
REMARK    3  A    between atoms: C_3  and  C_33
REMARK    4  A    between atoms: N_6  and  N_10
REMARK    5  A    between atoms: C_11  and  C_13
REMARK    6  A    between atoms: C_13  and  N_61
REMARK    7  A    between atoms: C_18  and  O_31
REMARK    8  A    between atoms: C_19  and  O_29
REMARK    9  A    between atoms: C_22  and  C_24
REMARK   10  A    between atoms: O_29  and  C_30
REMARK   11  A    between atoms: O_31  and  C_32
REMARK                            x       y       z     vdW  Elec       q    Type
REMARK                         _______ _______ _______ _____ _____    ______ ____
ROOT
ATOM      1  C   UNL     1       0.523   7.735  -0.273  0.00  0.00    -0.072 C 
ATOM      2  C   UNL     1       0.492   6.396  -1.010  0.00  0.00    +0.017 C 
ATOM      3  C   UNL     1       0.057   5.300  -0.071  0.00  0.00    -0.043 A 
ATOM      4  C   UNL     1       0.305   3.984  -0.433  0.00  0.00    +0.053 A 
ATOM      5  C   UNL     1      -0.087   2.946   0.393  0.00  0.00    +0.162 A 
ATOM      6  C   UNL     1      -0.723   3.227   1.598  0.00  0.00    +0.162 A 
ATOM      7  C   UNL     1      -0.961   4.541   1.958  0.00  0.00    +0.052 A 
ATOM      8  C   UNL     1      -0.571   5.579   1.124  0.00  0.00    -0.049 A 
ATOM      9  C   UNL     1      -0.850   6.993   1.564  0.00  0.00    +0.001 C 
ATOM     10  N   UNL     1      -0.777   7.904   0.410  0.00  0.00    +0.393 N 
ATOM     11  H   UNL     1      -1.533   7.676  -0.246  0.00  0.00    -0.080 HD
ENDROOT
BRANCH   9  12
ATOM     12  C   UNL     1      -2.234   7.066   2.156  0.00  0.00    -0.019 A 
ATOM     13  C   UNL     1      -2.606   7.065   3.459  0.00  0.00    +0.010 A 
ATOM     14  C   UNL     1      -3.950   7.145   3.772  0.00  0.00    +0.008 A 
ATOM     15  C   UNL     1      -4.857   7.210   2.766  0.00  0.00    +0.045 A 
ATOM     16  S   UNL     1      -3.809   7.168   1.321  0.00  0.00    -0.103 S 
ENDBRANCH   9  12
BRANCH   6  17
ATOM     17  O   UNL     1      -1.109   2.213   2.419  0.00  0.00    -0.491 OA
ATOM     18  C   UNL     1      -1.756   2.578   3.640  0.00  0.00    +0.277 C 
ENDBRANCH   6  17
BRANCH   5  19
ATOM     19  O   UNL     1       0.153   1.657   0.030  0.00  0.00    -0.491 OA
ATOM     20  C   UNL     1       0.809   1.446  -1.221  0.00  0.00    +0.277 C 
ENDBRANCH   5  19
BRANCH  10  21
ATOM     21  C   UNL     1      -0.936   9.305   0.859  0.00  0.00    +0.021 C 
BRANCH  21  23
ATOM     22  N   UNL     1       0.331  10.979   2.168  0.00  0.00    -0.225 N 
ATOM     23  C   UNL     1       0.216   9.704   1.745  0.00  0.00    +0.213 C 
ATOM     24  O   UNL     1       1.039   8.878   2.079  0.00  0.00    -0.276 OA
ATOM     25  H   UNL     1      -0.327  11.639   1.901  0.00  0.00    +0.173 HD
BRANCH  22  29
ATOM     26  C   UNL     1       3.357  12.220   3.791  0.00  0.00    +0.111 C 
ATOM     27  C   UNL     1       2.470  12.057   2.573  0.00  0.00    +0.263 C 
ATOM     28  O   UNL     1       2.678  12.475   1.454  0.00  0.00    -0.271 OA
ATOM     29  N   UNL     1       1.402  11.350   2.992  0.00  0.00    -0.137 N 
ATOM     30  C   UNL     1       1.487  11.051   4.293  0.00  0.00    +0.326 C 
ATOM     31  O   UNL     1       0.641  10.423   4.899  0.00  0.00    -0.251 OA
ATOM     32  N   UNL     1       2.616  11.520   4.855  0.00  0.00    -0.284 N 
ATOM     33  C   UNL     1       4.717  11.559   3.559  0.00  0.00    +0.041 C 
ATOM     34  H   UNL     1       2.887  11.421   5.781  0.00  0.00    +0.151 HD
BRANCH  26  36
ATOM     35  C   UNL     1       4.429  13.835   5.367  0.00  0.00    +0.006 C 
ATOM     36  C   UNL     1       3.531  13.700   4.136  0.00  0.00    +0.032 C 
ENDBRANCH  26  36
ENDBRANCH  22  29
ENDBRANCH  21  23
ENDBRANCH  10  21
TORSDOF 7
