REMARK  Name = ZINC50361106
REMARK  7 active torsions:
REMARK  status: ('A' for Active; 'I' for Inactive)
REMARK    1  A    between atoms: C_1  and  C_2
REMARK    2  A    between atoms: C_2  and  C_3
REMARK    3  A    between atoms: C_2  and  C_4
REMARK    4  A    between atoms: C_2  and  C_5
REMARK    5  A    between atoms: C_5  and  N_6
REMARK    6  A    between atoms: N_6  and  C_7
REMARK    7  A    between atoms: C_7  and  C_8
REMARK                            x       y       z     vdW  Elec       q    Type
REMARK                         _______ _______ _______ _____ _____    ______ ____
ROOT
ATOM      1  N   UNL     1       2.096   0.011  -1.267  0.00  0.00    +0.384 N 
ATOM      2  H   UNL     1       2.083   1.020  -1.262  0.00  0.00    -0.085 HD
ATOM      3  H   UNL     1       2.584  -0.323  -0.450  0.00  0.00    -0.085 HD
ENDROOT
BRANCH   1   4
ATOM      4  C   UNL     1       0.718  -0.497  -1.257  0.00  0.00    -0.076 C 
BRANCH   4   6
ATOM      5  C   UNL     1      -0.019   1.526   0.010  0.00  0.00    +0.009 C 
ATOM      6  C   UNL     1       0.002  -0.004   0.002  0.00  0.00    -0.053 C 
ATOM      7  C   UNL     1       0.742  -0.511   1.242  0.00  0.00    +0.009 C 
ATOM      8  C   UNL     1      -1.433  -0.534   0.013  0.00  0.00    +0.009 C 
ENDBRANCH   4   6
ENDBRANCH   1   4
BRANCH   1   9
ATOM      9  C   UNL     1       2.784  -0.463  -2.476  0.00  0.00    -0.007 C 
BRANCH   9  10
ATOM     10  C   UNL     1       4.198   0.059  -2.486  0.00  0.00    +0.091 A 
ATOM     11  C   UNL     1       5.269  -0.561  -1.959  0.00  0.00    +0.059 A 
ATOM     12  C   UNL     1       6.384   0.277  -2.193  0.00  0.00    +0.070 A 
ATOM     13  C   UNL     1       5.927   1.359  -2.851  0.00  0.00    +0.184 A 
ATOM     14  O   UNL     1       4.603   1.219  -3.030  0.00  0.00    -0.454 OA
ATOM     15 BR   UNL     1       6.972   2.825  -3.429  0.00  0.00    -0.007 Br
ATOM     16 BR   UNL     1       8.173  -0.059  -1.681  0.00  0.00    -0.046 Br
ENDBRANCH   9  10
ENDBRANCH   1   9
TORSDOF 4
