REMARK  Name = ZINC20919236
REMARK  12 active torsions:
REMARK  status: ('A' for Active; 'I' for Inactive)
REMARK    1  A    between atoms: C_1  and  C_2
REMARK    2  A    between atoms: C_2  and  C_3
REMARK    3  A    between atoms: C_2  and  C_4
REMARK    4  A    between atoms: C_7  and  C_9
REMARK    5  A    between atoms: C_9  and  S_10
REMARK    6  A    between atoms: S_10  and  C_11
REMARK    7  A    between atoms: N_15  and  N_16
REMARK    8  A    between atoms: N_17  and  N_18
REMARK    9  A    between atoms: C_19  and  C_20
REMARK   10  A    between atoms: C_19  and  C_27
REMARK   11  A    between atoms: C_20  and  C_21
REMARK   12  A    between atoms: C_27  and  C_28
REMARK                            x       y       z     vdW  Elec       q    Type
REMARK                         _______ _______ _______ _____ _____    ______ ____
ROOT
ATOM      1  C   UNL     1      -3.611   8.327  -0.212  0.00  0.00    +0.210 A 
ATOM      2  N   UNL     1      -3.978   8.869   0.924  0.00  0.00    -0.119 NA
ATOM      3  N   UNL     1      -4.757   9.997   0.634  0.00  0.00    -0.109 NA
ATOM      4  C   UNL     1      -4.841  10.106  -0.670  0.00  0.00    +0.254 A 
ATOM      5  N   UNL     1      -4.130   9.080  -1.226  0.00  0.00    -0.211 N 
ATOM      6  N   UNL     1      -5.527  11.094  -1.363  0.00  0.00    -0.204 N 
ATOM      7  H   UNL     1      -5.532  11.091  -2.463  0.00  0.00    +0.177 HD
ENDROOT
BRANCH   5   8
ATOM      8  N   UNL     1      -3.969   8.847  -2.563  0.00  0.00    -0.294 N 
ATOM      9  H   UNL     1      -4.433   9.521  -3.298  0.00  0.00    +0.163 HD
ATOM     10  H   UNL     1      -3.376   7.985  -2.903  0.00  0.00    +0.163 HD
ENDBRANCH   5   8
BRANCH   6  11
ATOM     11  N   UNL     1      -6.212  12.095  -0.662  0.00  0.00    -0.188 NA
ATOM     12  C   UNL     1      -6.844  13.006  -1.302  0.00  0.00    +0.045 C 
BRANCH  12  13
ATOM     13  C   UNL     1      -6.852  13.002  -2.809  0.00  0.00    +0.088 C 
BRANCH  13  14
ATOM     14  C   UNL     1      -8.024  12.194  -3.303  0.00  0.00    -0.042 A 
ATOM     15  C   UNL     1      -7.881  10.839  -3.536  0.00  0.00    +0.004 A 
ATOM     16  C   UNL     1      -8.957  10.098  -3.985  0.00  0.00    +0.000 A 
ATOM     17  C   UNL     1     -10.175  10.713  -4.210  0.00  0.00    +0.000 A 
ATOM     18  C   UNL     1     -10.316  12.069  -3.983  0.00  0.00    +0.000 A 
ATOM     19  C   UNL     1      -9.241  12.810  -3.529  0.00  0.00    +0.004 A 
ENDBRANCH  13  14
ENDBRANCH  12  13
BRANCH  12  20
ATOM     20  C   UNL     1      -7.581  14.083  -0.548  0.00  0.00    +0.088 C 
BRANCH  20  21
ATOM     21  C   UNL     1      -6.939  15.418  -0.823  0.00  0.00    -0.042 A 
ATOM     22  C   UNL     1      -5.920  15.877  -0.010  0.00  0.00    +0.004 A 
ATOM     23  C   UNL     1      -5.328  17.099  -0.266  0.00  0.00    +0.000 A 
ATOM     24  C   UNL     1      -5.763  17.869  -1.329  0.00  0.00    +0.000 A 
ATOM     25  C   UNL     1      -6.786  17.413  -2.139  0.00  0.00    +0.000 A 
ATOM     26  C   UNL     1      -7.374  16.188  -1.886  0.00  0.00    +0.004 A 
ENDBRANCH  20  21
ENDBRANCH  12  20
ENDBRANCH   6  11
BRANCH   1  27
ATOM     27  S   UNL     1      -2.617   6.883  -0.397  0.00  0.00    -0.075 S 
BRANCH  27  28
ATOM     28  C   UNL     1      -2.258   6.376   1.307  0.00  0.00    +0.175 C 
BRANCH  28  32
ATOM     29  C   UNL     1      -0.749   3.086   1.275  0.00  0.00    +0.220 A 
ATOM     30  N   UNL     1       0.290   3.871   1.275  0.00  0.00    -0.112 NA
ATOM     31  N   UNL     1      -0.100   5.097   1.280  0.00  0.00    -0.112 NA
ATOM     32  C   UNL     1      -1.403   5.136   1.292  0.00  0.00    +0.227 A 
ATOM     33  O   UNL     1      -1.843   3.866   1.290  0.00  0.00    -0.424 OA
BRANCH  29  35
ATOM     34  C   UNL     1      -0.013   1.086   0.008  0.00  0.00    +0.017 C 
ATOM     35  C   UNL     1      -0.729   1.579   1.267  0.00  0.00    +0.071 C 
ATOM     36  C   UNL     1       0.011   1.072   2.506  0.00  0.00    +0.017 C 
ENDBRANCH  29  35
ENDBRANCH  28  32
ENDBRANCH  27  28
ENDBRANCH   1  27
TORSDOF 10
