REMARK  Name = ZINC63698428
REMARK  4 active torsions:
REMARK  status: ('A' for Active; 'I' for Inactive)
REMARK    1  A    between atoms: C_1  and  C_2
REMARK    2  A    between atoms: C_4  and  N_18
REMARK    3  A    between atoms: C_7  and  C_8
REMARK    4  A    between atoms: C_19  and  C_21
REMARK                            x       y       z     vdW  Elec       q    Type
REMARK                         _______ _______ _______ _____ _____    ______ ____
ROOT
ATOM      1  C   UNL     1      -0.401   1.478   0.017  0.00  0.00    +0.044 C 
ATOM      2  C   UNL     1      -0.186  -0.014   0.004  0.00  0.00    -0.043 A 
ATOM      3  C   UNL     1      -0.178  -0.699  -1.195  0.00  0.00    +0.027 A 
ATOM      4  C   UNL     1       0.019  -2.074  -1.206  0.00  0.00    +0.034 A 
ATOM      5  C   UNL     1       0.208  -2.755  -0.011  0.00  0.00    +0.023 A 
ATOM      6  C   UNL     1       0.198  -2.064   1.185  0.00  0.00    +0.008 A 
ATOM      7  C   UNL     1       0.007  -0.694   1.192  0.00  0.00    -0.014 A 
ENDROOT
BRANCH   7   8
ATOM      8  C   UNL     1       0.004   0.057   2.498  0.00  0.00    +0.164 C 
ATOM      9  N   UNL     1       0.493  -0.788   3.596  0.00  0.00    -0.327 N 
ATOM     10  C   UNL     1      -0.387  -1.060   4.642  0.00  0.00    +0.042 A 
ATOM     11  C   UNL     1      -0.098  -1.845   5.772  0.00  0.00    +0.024 A 
ATOM     12  C   UNL     1      -1.039  -2.056   6.753  0.00  0.00    +0.002 A 
ATOM     13  C   UNL     1      -2.302  -1.501   6.662  0.00  0.00    +0.001 A 
ATOM     14  C   UNL     1      -2.615  -0.723   5.560  0.00  0.00    +0.016 A 
ATOM     15  C   UNL     1      -1.673  -0.513   4.578  0.00  0.00    +0.031 A 
ATOM     16  S   UNL     1      -1.712   0.407   3.055  0.00  0.00    -0.096 S 
ATOM     17  H   UNL     1       1.396  -1.143   3.593  0.00  0.00    +0.147 HD
ENDBRANCH   7   8
BRANCH   4  18
ATOM     18  N   UNL     1       0.028  -2.771  -2.420  0.00  0.00    -0.284 N 
ATOM     19  C   UNL     1       0.507  -2.181  -3.532  0.00  0.00    +0.244 C 
ATOM     20  O   UNL     1       1.019  -1.084  -3.465  0.00  0.00    -0.273 OA
ATOM     21  H   UNL     1      -0.311  -3.679  -2.459  0.00  0.00    +0.155 HD
BRANCH  19  22
ATOM     22  C   UNL     1       0.408  -2.885  -4.861  0.00  0.00    +0.190 C 
ATOM     23  C   UNL     1       1.200  -4.174  -4.829  0.00  0.00    +0.016 C 
ATOM     24  C   UNL     1       2.151  -4.053  -5.783  0.00  0.00    -0.004 A 
ATOM     25  C   UNL     1       3.219  -4.949  -6.241  0.00  0.00    +0.010 A 
ATOM     26  C   UNL     1       4.034  -4.542  -7.240  0.00  0.00    +0.001 A 
ATOM     27  C   UNL     1       3.884  -3.288  -7.848  0.00  0.00    +0.002 A 
ATOM     28  C   UNL     1       2.926  -2.410  -7.483  0.00  0.00    +0.026 A 
ATOM     29  C   UNL     1       2.013  -2.735  -6.442  0.00  0.00    +0.043 A 
ATOM     30  N   UNL     1       1.015  -2.065  -5.915  0.00  0.00    -0.370 N 
ATOM     31  H   UNL     1       0.726  -1.177  -6.178  0.00  0.00    +0.161 HD
ENDBRANCH  19  22
ENDBRANCH   4  18
TORSDOF 3
