REMARK  Name = ZINC09542128
REMARK  6 active torsions:
REMARK  status: ('A' for Active; 'I' for Inactive)
REMARK    1  A    between atoms: C_1  and  C_2
REMARK    2  A    between atoms: C_2  and  C_3
REMARK    3  A    between atoms: C_6  and  C_9
REMARK    4  A    between atoms: C_11  and  C_24
REMARK    5  A    between atoms: C_13  and  C_16
REMARK    6  A    between atoms: C_21  and  O_22
REMARK                            x       y       z     vdW  Elec       q    Type
REMARK                         _______ _______ _______ _____ _____    ______ ____
ROOT
ATOM      1  C   UNL     1      -1.909   2.001  -1.185  0.00  0.00    +0.040 C 
ATOM      2  N   UNL     1      -0.707   1.563  -1.181  0.00  0.00    -0.299 NA
ATOM      3  C   UNL     1      -0.013   1.086   0.008  0.00  0.00    +0.081 C 
ATOM      4  C   UNL     1      -2.125   1.236   1.163  0.00  0.00    -0.028 C 
ATOM      5  C   UNL     1      -2.755   2.086   0.055  0.00  0.00    +0.044 C 
ATOM      6  N   UNL     1      -0.686   1.556   1.228  0.00  0.00    +0.401 N 
ATOM      7  H   UNL     1      -0.567   2.572   1.313  0.00  0.00    -0.081 HD
ATOM      8  H   UNL     1      -0.271   1.094   2.046  0.00  0.00    -0.081 HD
ENDROOT
BRANCH   4   9
ATOM      9  C   UNL     1      -2.774   1.560   2.484  0.00  0.00    -0.018 A 
ATOM     10  C   UNL     1      -2.195   2.486   3.330  0.00  0.00    +0.020 A 
ATOM     11  C   UNL     1      -2.794   2.788   4.540  0.00  0.00    +0.018 A 
ATOM     12  C   UNL     1      -3.967   2.155   4.911  0.00  0.00    +0.019 A 
ATOM     13  C   UNL     1      -4.546   1.224   4.070  0.00  0.00    +0.047 A 
ATOM     14  C   UNL     1      -3.950   0.924   2.853  0.00  0.00    +0.119 A 
ATOM     15 BR   UNL     1      -2.003   4.061   5.693  0.00  0.00    -0.050 Br
BRANCH  14  16
ATOM     16  O   UNL     1      -4.519   0.009   2.025  0.00  0.00    -0.507 OA
ATOM     17  H   UNL     1      -4.215  -0.897   2.172  0.00  0.00    +0.292 HD
ENDBRANCH  14  16
ENDBRANCH   4   9
BRANCH   3  18
ATOM     18  C   UNL     1       1.403   1.601  -0.003  0.00  0.00    -0.039 A 
ATOM     19  C   UNL     1       2.041   1.844  -1.205  0.00  0.00    +0.004 A 
ATOM     20  C   UNL     1       3.340   2.318  -1.216  0.00  0.00    +0.001 A 
ATOM     21  C   UNL     1       4.001   2.549  -0.024  0.00  0.00    +0.015 A 
ATOM     22  C   UNL     1       3.363   2.306   1.179  0.00  0.00    +0.018 A 
ATOM     23  C   UNL     1       2.062   1.837   1.189  0.00  0.00    +0.019 A 
ATOM     24 BR   UNL     1       4.268   2.621   2.810  0.00  0.00    -0.050 Br
ENDBRANCH   3  18
BRANCH   1  28
ATOM     25  C   UNL     1      -3.589   3.272  -4.870  0.00  0.00    -0.048 A 
ATOM     26  C   UNL     1      -2.291   2.794  -4.834  0.00  0.00    +0.004 A 
ATOM     27  C   UNL     1      -1.739   2.380  -3.640  0.00  0.00    +0.010 A 
ATOM     28  C   UNL     1      -2.493   2.443  -2.466  0.00  0.00    -0.004 A 
ATOM     29  C   UNL     1      -3.804   2.922  -2.511  0.00  0.00    +0.010 A 
ATOM     30  C   UNL     1      -4.342   3.338  -3.711  0.00  0.00    +0.004 A 
BRANCH  25  32
ATOM     31  C   UNL     1      -4.873   2.539  -6.861  0.00  0.00    +0.009 C 
ATOM     32  C   UNL     1      -4.186   3.723  -6.179  0.00  0.00    +0.032 C 
ENDBRANCH  25  32
ENDBRANCH   1  28
TORSDOF 5
