REMARK  Name = ZINC13414409
REMARK  14 active torsions:
REMARK  status: ('A' for Active; 'I' for Inactive)
REMARK    1  A    between atoms: C_1  and  C_2
REMARK    2  A    between atoms: C_2  and  C_4
REMARK    3  A    between atoms: C_2  and  C_10
REMARK    4  A    between atoms: C_4  and  C_5
REMARK    5  A    between atoms: C_5  and  C_6
REMARK    6  A    between atoms: C_7  and  C_8
REMARK    7  A    between atoms: C_7  and  C_9
REMARK    8  A    between atoms: C_14  and  C_39
REMARK    9  A    between atoms: C_15  and  C_38
REMARK   10  A    between atoms: C_29  and  O_34
REMARK   11  A    between atoms: C_31  and  C_32
REMARK   12  A    between atoms: C_31  and  C_33
REMARK   13  A    between atoms: O_34  and  C_35
REMARK   14  A    between atoms: C_35  and  C_37
REMARK                            x       y       z     vdW  Elec       q    Type
REMARK                         _______ _______ _______ _____ _____    ______ ____
ROOT
ATOM      1  C   UNL     1       0.211   1.846   2.348  0.00  0.00    -0.002 C 
ATOM      2  C   UNL     1       1.479   2.739   2.413  0.00  0.00    +0.005 C 
ATOM      3  C   UNL     1       1.765   3.000   3.913  0.00  0.00    +0.008 C 
ATOM      4  C   UNL     1       0.807   2.067   4.653  0.00  0.00    -0.023 C 
ATOM      5  C   UNL     1      -0.430   2.040   3.734  0.00  0.00    -0.023 C 
ATOM      6  C   UNL     1      -1.339   0.916   4.184  0.00  0.00    +0.008 C 
ATOM      7  C   UNL     1      -1.873   1.218   5.577  0.00  0.00    +0.008 C 
ATOM      8  C   UNL     1      -0.871   1.833   6.559  0.00  0.00    -0.019 C 
ATOM      9  C   UNL     1       0.447   2.368   6.054  0.00  0.00    +0.002 C 
ATOM     10  C   UNL     1       0.972   3.620   6.661  0.00  0.00    +0.005 C 
ATOM     11  C   UNL     1       0.580   3.874   8.095  0.00  0.00    +0.005 C 
ATOM     12  C   UNL     1      -0.882   3.709   8.430  0.00  0.00    +0.005 C 
ATOM     13  C   UNL     1      -1.520   2.499   7.777  0.00  0.00    -0.019 C 
ATOM     14  C   UNL     1      -0.788   1.152   7.943  0.00  0.00    +0.015 C 
ATOM     15  C   UNL     1      -3.045   2.375   7.934  0.00  0.00    +0.011 C 
ATOM     16  C   UNL     1      -3.705   3.698   7.547  0.00  0.00    +0.046 C 
ATOM     17  C   UNL     1      -3.166   4.793   8.464  0.00  0.00    +0.182 C 
ATOM     18  C   UNL     1      -1.668   4.998   8.239  0.00  0.00    +0.006 C 
ATOM     19  C   UNL     1      -1.454   5.596   6.849  0.00  0.00    +0.015 C 
ATOM     20  C   UNL     1      -1.194   6.031   9.281  0.00  0.00    +0.015 C 
ATOM     21  C   UNL     1      -1.180   3.383   3.760  0.00  0.00    +0.012 C 
ATOM     22  C   UNL     1       1.472   0.688   4.649  0.00  0.00    +0.012 C 
ENDROOT
BRANCH   1  24
ATOM     23  C   UNL     1      -2.058   1.582   1.330  0.00  0.00    +0.008 C 
ATOM     24  C   UNL     1      -0.737   2.349   1.253  0.00  0.00    -0.010 C 
BRANCH  24  25
ATOM     25  C   UNL     1      -0.096   2.126  -0.118  0.00  0.00    +0.007 C 
BRANCH  25  26
ATOM     26  C   UNL     1      -0.985   2.740  -1.202  0.00  0.00    +0.027 C 
BRANCH  26  27
ATOM     27  C   UNL     1      -0.353   2.520  -2.553  0.00  0.00    -0.028 C 
ATOM     28  C   UNL     1      -1.035   1.935  -3.507  0.00  0.00    -0.080 C 
ATOM     29  C   UNL     1      -2.490   1.605  -3.300  0.00  0.00    +0.038 C 
ATOM     30  C   UNL     1      -0.362   1.591  -4.811  0.00  0.00    +0.038 C 
ENDBRANCH  26  27
ENDBRANCH  25  26
ENDBRANCH  24  25
ENDBRANCH   1  24
BRANCH  17  31
ATOM     31  O   UNL     1      -3.863   6.040   8.192  0.00  0.00    -0.461 OA
BRANCH  31  32
ATOM     32  C   UNL     1      -4.979   6.281   8.898  0.00  0.00    +0.304 C 
ATOM     33  O   UNL     1      -5.362   5.478   9.716  0.00  0.00    -0.251 OA
ATOM     34  C   UNL     1      -5.755   7.553   8.670  0.00  0.00    +0.136 C 
ENDBRANCH  31  32
ENDBRANCH  17  31
TORSDOF 6
