REMARK  Name = ZINC12246350
REMARK  11 active torsions:
REMARK  status: ('A' for Active; 'I' for Inactive)
REMARK    1  A    between atoms: C_1  and  C_2
REMARK    2  A    between atoms: C_3  and  C_4
REMARK    3  A    between atoms: C_4  and  N_5
REMARK    4  A    between atoms: C_8  and  C_12
REMARK    5  A    between atoms: C_8  and  C_21
REMARK    6  A    between atoms: C_12  and  C_13
REMARK    7  A    between atoms: C_13  and  C_14
REMARK    8  A    between atoms: C_14  and  C_15
REMARK    9  A    between atoms: C_26  and  C_27
REMARK   10  A    between atoms: C_26  and  N_72
REMARK   11  A    between atoms: N_35  and  C_36
REMARK                            x       y       z     vdW  Elec       q    Type
REMARK                         _______ _______ _______ _____ _____    ______ ____
ROOT
ATOM      1  N   UNL     1      -0.570   4.804  -0.622  0.00  0.00    -0.212 N 
ATOM      2  C   UNL     1      -1.481   4.079   0.057  0.00  0.00    +0.248 C 
ATOM      3  O   UNL     1      -2.640   3.890  -0.246  0.00  0.00    -0.273 OA
ATOM      4  C   UNL     1      -0.756   3.549   1.278  0.00  0.00    +0.115 C 
ATOM      5  N   UNL     1       0.608   4.087   1.131  0.00  0.00    -0.285 N 
ATOM      6  C   UNL     1       0.618   4.805  -0.007  0.00  0.00    +0.310 C 
ATOM      7  O   UNL     1       1.597   5.389  -0.429  0.00  0.00    -0.252 OA
ATOM      8  H   UNL     1       1.354   3.949   1.736  0.00  0.00    +0.151 HD
ENDROOT
BRANCH   4   9
ATOM      9  C   UNL     1      -1.404   4.070   2.562  0.00  0.00    +0.018 C 
ATOM     10  C   UNL     1      -2.799   3.457   2.716  0.00  0.00    -0.013 C 
ATOM     11  C   UNL     1      -3.466   4.029   3.969  0.00  0.00    -0.078 C 
ATOM     12  C   UNL     1      -2.233   6.104   3.750  0.00  0.00    -0.078 C 
ATOM     13  C   UNL     1      -1.529   5.594   2.490  0.00  0.00    -0.013 C 
ATOM     14  N   UNL     1      -3.579   5.497   3.826  0.00  0.00    +0.384 N 
ATOM     15  H   UNL     1      -4.089   5.709   2.961  0.00  0.00    -0.081 HD
BRANCH  14  16
ATOM     16  C   UNL     1      -4.322   6.059   4.972  0.00  0.00    -0.003 C 
BRANCH  16  17
ATOM     17  C   UNL     1      -5.570   5.246   5.199  0.00  0.00    +0.094 A 
ATOM     18  N   UNL     1      -5.656   4.216   5.989  0.00  0.00    -0.234 NA
ATOM     19  C   UNL     1      -6.920   3.721   5.959  0.00  0.00    +0.089 A 
ATOM     20  C   UNL     1      -7.551   2.651   6.598  0.00  0.00    +0.030 A 
ATOM     21  C   UNL     1      -8.871   2.397   6.356  0.00  0.00    +0.002 A 
ATOM     22  C   UNL     1      -9.596   3.192   5.480  0.00  0.00    +0.002 A 
ATOM     23  C   UNL     1      -8.994   4.252   4.837  0.00  0.00    +0.028 A 
ATOM     24  C   UNL     1      -7.653   4.526   5.071  0.00  0.00    +0.069 A 
ATOM     25  N   UNL     1      -6.773   5.485   4.610  0.00  0.00    -0.332 N 
ATOM     26  C   UNL     1      -7.078   6.559   3.662  0.00  0.00    +0.150 C 
ENDBRANCH  16  17
ENDBRANCH  14  16
ENDBRANCH   4   9
BRANCH   1  27
ATOM     27  C   UNL     1      -0.846   5.503  -1.880  0.00  0.00    +0.206 C 
BRANCH  27  30
ATOM     28  C   UNL     1      -0.070   2.989  -5.048  0.00  0.00    +0.106 C 
ATOM     29  C   UNL     1      -0.347   3.887  -3.915  0.00  0.00    -0.104 C 
ATOM     30  C   UNL     1      -0.569   4.604  -3.012  0.00  0.00    -0.083 C 
ENDBRANCH  27  30
ENDBRANCH   1  27
BRANCH   4  31
ATOM     31  C   UNL     1      -0.735   2.019   1.269  0.00  0.00    +0.036 C 
BRANCH  31  32
ATOM     32  C   UNL     1      -0.019   1.526   0.010  0.00  0.00    +0.007 C 
BRANCH  32  33
ATOM     33  C   UNL     1       0.002  -0.004   0.002  0.00  0.00    +0.035 C 
BRANCH  33  34
ATOM     34  C   UNL     1       0.707  -0.490  -1.238  0.00  0.00    -0.047 A 
ATOM     35  C   UNL     1      -0.012  -0.729  -2.394  0.00  0.00    +0.003 A 
ATOM     36  C   UNL     1       0.635  -1.170  -3.532  0.00  0.00    +0.000 A 
ATOM     37  C   UNL     1       2.001  -1.382  -3.512  0.00  0.00    +0.000 A 
ATOM     38  C   UNL     1       2.720  -1.148  -2.355  0.00  0.00    +0.000 A 
ATOM     39  C   UNL     1       2.073  -0.702  -1.218  0.00  0.00    +0.003 A 
ENDBRANCH  33  34
ENDBRANCH  32  33
ENDBRANCH  31  32
ENDBRANCH   4  31
TORSDOF 9
