REMARK  Name = ZINC02881935
REMARK  8 active torsions:
REMARK  status: ('A' for Active; 'I' for Inactive)
REMARK    1  A    between atoms: C_1  and  C_2
REMARK    2  A    between atoms: C_2  and  C_3
REMARK    3  A    between atoms: C_3  and  C_4
REMARK    4  A    between atoms: C_4  and  N_5
REMARK    5  A    between atoms: C_7  and  N_10
REMARK    6  A    between atoms: C_11  and  C_13
REMARK    7  A    between atoms: C_18  and  C_33
REMARK    8  A    between atoms: C_21  and  C_24
REMARK                            x       y       z     vdW  Elec       q    Type
REMARK                         _______ _______ _______ _____ _____    ______ ____
ROOT
ATOM      1  C   UNL     1       5.185  -5.285  -6.123  0.00  0.00    +0.149 A 
ATOM      2  C   UNL     1       5.534  -5.468  -7.480  0.00  0.00    +0.078 A 
ATOM      3  C   UNL     1       6.583  -6.313  -7.520  0.00  0.00    +0.119 A 
ATOM      4  N   UNL     1       6.900  -6.659  -6.237  0.00  0.00    -0.238 N 
ATOM      5  N   UNL     1       6.015  -6.000  -5.384  0.00  0.00    -0.164 NA
ATOM      6  C   UNL     1       7.998  -7.564  -5.886  0.00  0.00    +0.215 C 
ATOM      7  C   UNL     1       8.971  -7.644  -7.068  0.00  0.00    +0.063 C 
ATOM      8  C   UNL     1       8.200  -7.933  -8.361  0.00  0.00    +0.104 C 
ATOM      9  N   UNL     1       7.285  -6.804  -8.624  0.00  0.00    -0.322 N 
ATOM     10  H   UNL     1       7.178  -6.426  -9.511  0.00  0.00    +0.148 HD
ENDROOT
BRANCH   8  11
ATOM     11  C   UNL     1       9.168  -8.082  -9.505  0.00  0.00    -0.024 A 
ATOM     12  C   UNL     1       9.700  -6.958 -10.110  0.00  0.00    +0.009 A 
ATOM     13  C   UNL     1      10.589  -7.090 -11.160  0.00  0.00    +0.050 A 
ATOM     14  C   UNL     1      10.950  -8.350 -11.610  0.00  0.00    +0.166 A 
ATOM     15  C   UNL     1      10.414  -9.482 -11.001  0.00  0.00    +0.167 A 
ATOM     16  C   UNL     1       9.527  -9.343  -9.945  0.00  0.00    +0.055 A 
ATOM     17  O   UNL     1      10.918 -10.590 -11.618  0.00  0.00    -0.453 OA
ATOM     18  C   UNL     1      11.450 -10.123 -12.873  0.00  0.00    +0.466 C 
ATOM     19  O   UNL     1      11.790  -8.749 -12.609  0.00  0.00    -0.453 OA
ENDBRANCH   8  11
BRANCH   1  21
ATOM     20  N   UNL     1       3.863  -4.342  -4.291  0.00  0.00    -0.278 N 
ATOM     21  C   UNL     1       4.087  -4.435  -5.617  0.00  0.00    +0.268 C 
ATOM     22  O   UNL     1       3.386  -3.820  -6.397  0.00  0.00    -0.268 OA
ATOM     23  H   UNL     1       4.422  -4.833  -3.669  0.00  0.00    +0.155 HD
BRANCH  20  26
ATOM     24  N   UNL     1       1.425  -2.500  -2.470  0.00  0.00    -0.270 N 
ATOM     25  C   UNL     1       2.483  -3.350  -2.507  0.00  0.00    +0.131 A 
ATOM     26  C   UNL     1       2.818  -3.533  -3.810  0.00  0.00    +0.072 A 
ATOM     27  C   UNL     1       1.936  -2.771  -4.590  0.00  0.00    +0.157 A 
ATOM     28  N   UNL     1       1.101  -2.160  -3.790  0.00  0.00    -0.178 NA
BRANCH  24  29
ATOM     29  C   UNL     1       0.739  -2.027  -1.265  0.00  0.00    +0.143 C 
BRANCH  29  30
ATOM     30  C   UNL     1       0.718  -0.497  -1.257  0.00  0.00    +0.023 C 
BRANCH  30  32
ATOM     31  C   UNL     1      -0.019   1.526   0.010  0.00  0.00    +0.004 C 
ATOM     32  C   UNL     1       0.002  -0.004   0.002  0.00  0.00    -0.002 C 
ENDBRANCH  30  32
ENDBRANCH  29  30
ENDBRANCH  24  29
ENDBRANCH  20  26
ENDBRANCH   1  21
BRANCH   6  33
ATOM     33  C   UNL     1       8.729  -7.030  -4.653  0.00  0.00    +0.412 C 
ATOM     34  F   UNL     1       7.834  -6.947  -3.581  0.00  0.00    -0.168 F 
ATOM     35  F   UNL     1       9.776  -7.895  -4.320  0.00  0.00    -0.168 F 
ATOM     36  F   UNL     1       9.244  -5.759  -4.930  0.00  0.00    -0.168 F 
ENDBRANCH   6  33
TORSDOF 7
