REMARK  Name = ZINC09160722
REMARK  10 active torsions:
REMARK  status: ('A' for Active; 'I' for Inactive)
REMARK    1  A    between atoms: C_1  and  C_2
REMARK    2  A    between atoms: C_2  and  O_3
REMARK    3  A    between atoms: O_3  and  C_4
REMARK    4  A    between atoms: C_6  and  C_12
REMARK    5  A    between atoms: C_9  and  O_10
REMARK    6  A    between atoms: C_15  and  C_26
REMARK    7  A    between atoms: C_21  and  N_25
REMARK    8  A    between atoms: C_22  and  C_23
REMARK    9  A    between atoms: C_30  and  O_32
REMARK   10  A    between atoms: O_32  and  C_33
REMARK                            x       y       z     vdW  Elec       q    Type
REMARK                         _______ _______ _______ _____ _____    ______ ____
ROOT
ATOM      1  C   UNL     1       0.655  -4.954  -0.020  0.00  0.00    +0.102 C 
ATOM      2  C   UNL     1       0.636  -5.843   1.196  0.00  0.00    +0.054 A 
ATOM      3  C   UNL     1       0.869  -5.535   2.495  0.00  0.00    +0.074 A 
ATOM      4  N   UNL     1       0.731  -6.688   3.215  0.00  0.00    -0.273 N 
ATOM      5  H   UNL     1       0.839  -6.778   4.175  0.00  0.00    +0.189 HD
ATOM      6  N   UNL     1       0.408  -7.720   2.321  0.00  0.00    -0.135 NA
ATOM      7  C   UNL     1       0.351  -7.221   1.118  0.00  0.00    +0.245 A 
ATOM      8  O   UNL     1       0.076  -7.833  -0.065  0.00  0.00    -0.421 OA
ATOM      9  C   UNL     1       0.348  -7.152  -1.195  0.00  0.00    +0.201 C 
ATOM     10  C   UNL     1       0.625  -5.831  -1.246  0.00  0.00    +0.098 C 
ENDROOT
BRANCH   1  13
ATOM     11  C   UNL     1      -1.498  -1.849   0.006  0.00  0.00    +0.163 A 
ATOM     12  C   UNL     1      -0.389  -2.680  -0.003  0.00  0.00    +0.054 A 
ATOM     13  C   UNL     1      -0.553  -4.052  -0.009  0.00  0.00    -0.030 A 
ATOM     14  C   UNL     1      -1.822  -4.600  -0.006  0.00  0.00    +0.023 A 
ATOM     15  C   UNL     1      -2.934  -3.777   0.003  0.00  0.00    +0.063 A 
ATOM     16  C   UNL     1      -2.776  -2.400   0.016  0.00  0.00    +0.173 A 
ATOM     17 BR   UNL     1      -4.668  -4.531   0.006  0.00  0.00    -0.046 Br
BRANCH  16  18
ATOM     18  O   UNL     1      -3.868  -1.589   0.030  0.00  0.00    -0.503 OA
ATOM     19  H   UNL     1      -4.192  -1.350  -0.849  0.00  0.00    +0.292 HD
ENDBRANCH  16  18
BRANCH  11  20
ATOM     20  O   UNL     1      -1.339  -0.499   0.012  0.00  0.00    -0.489 OA
BRANCH  20  22
ATOM     21  C   UNL     1      -0.019   1.526   0.010  0.00  0.00    +0.048 C 
ATOM     22  C   UNL     1       0.002  -0.004   0.002  0.00  0.00    +0.226 C 
ENDBRANCH  20  22
ENDBRANCH  11  20
ENDBRANCH   1  13
BRANCH   3  23
ATOM     23  C   UNL     1       1.208  -4.199   3.033  0.00  0.00    +0.004 A 
ATOM     24  C   UNL     1       2.156  -3.405   2.388  0.00  0.00    +0.010 A 
ATOM     25  C   UNL     1       2.470  -2.159   2.892  0.00  0.00    +0.004 A 
ATOM     26  C   UNL     1       1.847  -1.694   4.035  0.00  0.00    +0.045 A 
ATOM     27  C   UNL     1       0.902  -2.477   4.684  0.00  0.00    +0.121 A 
ATOM     28  C   UNL     1       0.576  -3.727   4.183  0.00  0.00    +0.055 A 
BRANCH  27  29
ATOM     29  O   UNL     1       0.293  -2.016   5.808  0.00  0.00    -0.495 OA
ATOM     30  C   UNL     1       0.674  -0.717   6.265  0.00  0.00    +0.277 C 
ENDBRANCH  27  29
ENDBRANCH   3  23
BRANCH   9  31
ATOM     31  N   UNL     1       0.344  -7.849  -2.378  0.00  0.00    -0.328 N 
ATOM     32  H   UNL     1       0.150  -8.799  -2.380  0.00  0.00    +0.145 HD
ATOM     33  H   UNL     1       0.535  -7.391  -3.211  0.00  0.00    +0.145 HD
ENDBRANCH   9  31
BRANCH  10  34
ATOM     34  C   UNL     1       0.901  -5.237  -2.519  0.00  0.00    +0.101 C 
ATOM     35  N   UNL     1       1.120  -4.766  -3.529  0.00  0.00    -0.191 NA
ENDBRANCH  10  34
TORSDOF 8
