REMARK  Name = ZINC09288108
REMARK  4 active torsions:
REMARK  status: ('A' for Active; 'I' for Inactive)
REMARK    1  A    between atoms: C_7  and  S_24
REMARK    2  A    between atoms: C_8  and  C_11
REMARK    3  A    between atoms: N_16  and  C_19
REMARK    4  A    between atoms: S_24  and  C_25
REMARK                            x       y       z     vdW  Elec       q    Type
REMARK                         _______ _______ _______ _____ _____    ______ ____
ROOT
ATOM      1  C   UNL     1       3.919   3.100   3.193  0.00  0.00    +0.001 A 
ATOM      2  C   UNL     1       3.871   1.713   3.245  0.00  0.00    +0.002 A 
ATOM      3  C   UNL     1       3.486   0.982   2.144  0.00  0.00    +0.026 A 
ATOM      4  C   UNL     1       3.140   1.636   0.964  0.00  0.00    +0.048 A 
ATOM      5  C   UNL     1       3.196   3.041   0.915  0.00  0.00    +0.014 A 
ATOM      6  C   UNL     1       3.584   3.763   2.047  0.00  0.00    +0.011 A 
ATOM      7  C   UNL     1       2.777   3.431  -0.435  0.00  0.00    +0.050 A 
ATOM      8  C   UNL     1       2.505   2.261  -1.117  0.00  0.00    +0.117 A 
ATOM      9  N   UNL     1       2.726   1.184  -0.268  0.00  0.00    -0.350 N 
ATOM     10  H   UNL     1       2.606   0.252  -0.508  0.00  0.00    +0.166 HD
ENDROOT
BRANCH   8  11
ATOM     11  C   UNL     1       2.072   2.174  -2.463  0.00  0.00    +0.264 C 
ATOM     12  O   UNL     1       0.925   1.852  -2.714  0.00  0.00    -0.268 OA
ATOM     13  N   UNL     1       2.930   2.448  -3.466  0.00  0.00    -0.293 N 
ATOM     14  C   UNL     1       4.348   2.724  -3.192  0.00  0.00    +0.127 C 
ATOM     15  C   UNL     1       5.199   1.820  -4.098  0.00  0.00    +0.125 C 
ATOM     16  N   UNL     1       4.788   2.010  -5.495  0.00  0.00    -0.314 N 
ATOM     17  C   UNL     1       3.394   1.595  -5.702  0.00  0.00    +0.125 C 
ATOM     18  C   UNL     1       2.471   2.485  -4.863  0.00  0.00    +0.127 C 
BRANCH  16  19
ATOM     19  C   UNL     1       5.642   1.336  -6.361  0.00  0.00    +0.099 A 
ATOM     20  C   UNL     1       7.009   1.592  -6.320  0.00  0.00    +0.042 A 
ATOM     21  C   UNL     1       7.847   0.915  -7.187  0.00  0.00    +0.005 A 
ATOM     22  C   UNL     1       7.288   0.000  -8.070  0.00  0.00    +0.018 A 
ATOM     23  C   UNL     1       5.923  -0.204  -8.057  0.00  0.00    +0.084 A 
ATOM     24  N   UNL     1       5.070   0.439  -7.215  0.00  0.00    -0.350 N 
ATOM     25  H   UNL     1       4.059   0.260  -7.222  0.00  0.00    +0.166 HD
ENDBRANCH  16  19
ENDBRANCH   8  11
BRANCH   7  26
ATOM     26  S   UNL     1       2.652   5.071  -1.066  0.00  0.00    -0.087 S 
BRANCH  26  27
ATOM     27  C   UNL     1       0.978   5.433  -0.649  0.00  0.00    +0.013 A 
ATOM     28  C   UNL     1       0.201   4.480  -0.001  0.00  0.00    +0.016 A 
ATOM     29  C   UNL     1      -1.108   4.768   0.330  0.00  0.00    +0.021 A 
ATOM     30  C   UNL     1      -1.650   6.000   0.006  0.00  0.00    +0.041 A 
ATOM     31  C   UNL     1      -0.880   6.949  -0.643  0.00  0.00    +0.021 A 
ATOM     32  C   UNL     1       0.432   6.669  -0.971  0.00  0.00    +0.016 A 
ATOM     33 CL   UNL     1      -3.299   6.356   0.417  0.00  0.00    -0.084 Cl
ENDBRANCH  26  27
ENDBRANCH   7  26
TORSDOF 4
