REMARK  Name = ZINC35969338
REMARK  10 active torsions:
REMARK  status: ('A' for Active; 'I' for Inactive)
REMARK    1  A    between atoms: C_1  and  C_2
REMARK    2  A    between atoms: C_2  and  C_3
REMARK    3  A    between atoms: C_2  and  C_4
REMARK    4  A    between atoms: C_4  and  C_6
REMARK    5  A    between atoms: C_4  and  N_13
REMARK    6  A    between atoms: C_19  and  C_28
REMARK    7  A    between atoms: N_24  and  C_25
REMARK    8  A    between atoms: C_25  and  C_26
REMARK    9  A    between atoms: C_32  and  O_34
REMARK   10  A    between atoms: O_34  and  C_35
REMARK                            x       y       z     vdW  Elec       q    Type
REMARK                         _______ _______ _______ _____ _____    ______ ____
ROOT
ATOM      1  N   UNL     1      -1.262  -2.111   0.141  0.00  0.00    -0.280 N 
ATOM      2  C   UNL     1      -1.462  -3.235   1.068  0.00  0.00    +0.160 C 
ATOM      3  C   UNL     1      -0.752  -4.403   0.421  0.00  0.00    +0.043 C 
ATOM      4  C   UNL     1      -0.229  -3.939  -0.732  0.00  0.00    +0.058 C 
ATOM      5  C   UNL     1      -0.541  -2.573  -0.896  0.00  0.00    +0.247 C 
ATOM      6  O   UNL     1      -0.199  -1.900  -1.851  0.00  0.00    -0.270 OA
ATOM      7  C   UNL     1       0.548  -4.911  -1.596  0.00  0.00    +0.142 C 
ATOM      8  N   UNL     1       0.670  -6.293  -1.100  0.00  0.00    -0.288 N 
ATOM      9  C   UNL     1       0.091  -6.606   0.075  0.00  0.00    +0.307 C 
ATOM     10  O   UNL     1       0.186  -7.744   0.493  0.00  0.00    -0.252 OA
ATOM     11  N   UNL     1      -0.586  -5.705   0.799  0.00  0.00    -0.253 N 
ATOM     12  H   UNL     1       1.156  -6.961  -1.608  0.00  0.00    +0.151 HD
ENDROOT
BRANCH   7  13
ATOM     13  C   UNL     1       1.939  -4.360  -1.779  0.00  0.00    -0.019 A 
ATOM     14  C   UNL     1       2.884  -4.522  -0.782  0.00  0.00    +0.006 A 
ATOM     15  C   UNL     1       4.160  -4.018  -0.948  0.00  0.00    +0.004 A 
ATOM     16  C   UNL     1       4.495  -3.350  -2.110  0.00  0.00    +0.046 A 
ATOM     17  C   UNL     1       3.549  -3.186  -3.112  0.00  0.00    +0.129 A 
ATOM     18  C   UNL     1       2.270  -3.698  -2.946  0.00  0.00    +0.052 A 
BRANCH  17  19
ATOM     19  O   UNL     1       3.877  -2.530  -4.256  0.00  0.00    -0.456 OA
BRANCH  19  20
ATOM     20  C   UNL     1       2.890  -2.293  -5.160  0.00  0.00    +0.128 A 
ATOM     21  C   UNL     1       1.981  -1.266  -4.943  0.00  0.00    +0.046 A 
ATOM     22  C   UNL     1       0.979  -1.027  -5.863  0.00  0.00    +0.004 A 
ATOM     23  C   UNL     1       0.880  -1.809  -6.999  0.00  0.00    +0.000 A 
ATOM     24  C   UNL     1       1.784  -2.833  -7.217  0.00  0.00    +0.004 A 
ATOM     25  C   UNL     1       2.792  -3.072  -6.303  0.00  0.00    +0.046 A 
ENDBRANCH  19  20
ENDBRANCH  17  19
ENDBRANCH   7  13
BRANCH   1  26
ATOM     26  C   UNL     1      -1.761  -0.744   0.312  0.00  0.00    +0.165 C 
BRANCH  26  27
ATOM     27  C   UNL     1      -2.674  -0.395  -0.834  0.00  0.00    +0.236 C 
ATOM     28  O   UNL     1      -2.435  -0.811  -1.948  0.00  0.00    -0.274 OA
ATOM     29  N   UNL     1      -3.757   0.378  -0.621  0.00  0.00    -0.300 N 
ATOM     30  C   UNL     1      -4.221   0.862   0.688  0.00  0.00    +0.108 C 
ATOM     31  C   UNL     1      -5.504   1.684   0.444  0.00  0.00    +0.020 C 
ATOM     32  C   UNL     1      -6.007   1.147  -0.922  0.00  0.00    +0.020 C 
ATOM     33  C   UNL     1      -4.669   0.885  -1.663  0.00  0.00    +0.108 C 
ENDBRANCH  26  27
BRANCH  26  35
ATOM     34  C   UNL     1      -1.095   1.648   0.591  0.00  0.00    +0.009 C 
ATOM     35  C   UNL     1      -0.581   0.229   0.339  0.00  0.00    +0.012 C 
ATOM     36  C   UNL     1       0.385  -0.170   1.457  0.00  0.00    +0.009 C 
ENDBRANCH  26  35
ENDBRANCH   1  26
BRANCH  11  37
ATOM     37  C   UNL     1      -1.181  -6.140   2.065  0.00  0.00    +0.141 C 
BRANCH  37  38
ATOM     38  C   UNL     1      -2.581  -6.639   1.817  0.00  0.00    -0.015 C 
ATOM     39  C   UNL     1      -2.926  -7.842   2.205  0.00  0.00    +0.005 C 
ENDBRANCH  37  38
ENDBRANCH  11  37
TORSDOF 8
