REMARK  Name = ZINC38626315
REMARK  12 active torsions:
REMARK  status: ('A' for Active; 'I' for Inactive)
REMARK    1  A    between atoms: C_1  and  C_2
REMARK    2  A    between atoms: C_2  and  O_3
REMARK    3  A    between atoms: O_3  and  C_4
REMARK    4  A    between atoms: C_4  and  C_6
REMARK    5  A    between atoms: C_8  and  N_20
REMARK    6  A    between atoms: C_11  and  O_18
REMARK    7  A    between atoms: C_12  and  O_16
REMARK    8  A    between atoms: O_16  and  C_17
REMARK    9  A    between atoms: O_18  and  C_19
REMARK   10  A    between atoms: C_21  and  C_23
REMARK   11  A    between atoms: C_23  and  C_25
REMARK   12  A    between atoms: C_23  and  N_26
REMARK                            x       y       z     vdW  Elec       q    Type
REMARK                         _______ _______ _______ _____ _____    ______ ____
ROOT
ATOM      1  C   UNL     1       0.966  -3.685   4.492  0.00  0.00    +0.234 C 
ATOM      2  C   UNL     1       0.329  -2.540   3.737  0.00  0.00    +0.053 C 
ATOM      3  C   UNL     1       0.730  -2.686   2.423  0.00  0.00    +0.021 A 
ATOM      4  C   UNL     1       0.461  -1.930   1.254  0.00  0.00    +0.061 A 
ATOM      5  C   UNL     1       0.999  -2.311   0.068  0.00  0.00    +0.162 A 
ATOM      6  C   UNL     1       1.824  -3.447  -0.033  0.00  0.00    +0.163 A 
ATOM      7  C   UNL     1       2.121  -4.214   1.051  0.00  0.00    +0.075 A 
ATOM      8  C   UNL     1       1.594  -3.876   2.320  0.00  0.00    +0.049 A 
ATOM      9  N   UNL     1       1.730  -4.450   3.502  0.00  0.00    -0.367 N 
ATOM     10  H   UNL     1       2.251  -5.247   3.686  0.00  0.00    +0.161 HD
ENDROOT
BRANCH   2  11
ATOM     11  N   UNL     1      -0.477  -1.564   4.247  0.00  0.00    -0.288 N 
ATOM     12  C   UNL     1      -0.834  -1.596   5.547  0.00  0.00    +0.203 C 
ATOM     13  O   UNL     1      -0.416  -2.476   6.269  0.00  0.00    -0.277 OA
ATOM     14  H   UNL     1      -0.794  -0.848   3.675  0.00  0.00    +0.155 HD
BRANCH  12  15
ATOM     15  C   UNL     1      -1.751  -0.537   6.102  0.00  0.00    +0.016 C 
ATOM     16  C   UNL     1      -0.921   0.651   6.591  0.00  0.00    -0.004 C 
BRANCH  15  17
ATOM     17  N   UNL     1      -2.518  -1.094   7.225  0.00  0.00    +0.387 N 
ATOM     18  C   UNL     1      -3.416  -0.064   7.760  0.00  0.00    -0.073 C 
ATOM     19  C   UNL     1      -4.155  -0.612   8.983  0.00  0.00    +0.046 C 
ATOM     20  C   UNL     1      -4.965  -1.844   8.573  0.00  0.00    +0.167 C 
ATOM     21  C   UNL     1      -4.033  -2.881   7.941  0.00  0.00    +0.046 C 
ATOM     22  C   UNL     1      -3.300  -2.245   6.758  0.00  0.00    -0.073 C 
ATOM     23  O   UNL     1      -5.598  -2.410   9.731  0.00  0.00    -0.346 OA
ATOM     24  C   UNL     1      -6.934  -1.851   9.733  0.00  0.00    +0.191 C 
ATOM     25  C   UNL     1      -7.251  -1.788   8.218  0.00  0.00    +0.191 C 
ATOM     26  O   UNL     1      -5.975  -1.465   7.630  0.00  0.00    -0.346 OA
ATOM     27  H   UNL     1      -1.882  -1.392   7.950  0.00  0.00    -0.081 HD
ENDBRANCH  15  17
ENDBRANCH  12  15
ENDBRANCH   2  11
BRANCH   1  28
ATOM     28  C   UNL     1       1.886  -3.153   5.561  0.00  0.00    +0.336 C 
ATOM     29  O   UNL     1       2.957  -2.682   5.256  0.00  0.00    -0.248 OA
BRANCH  28  30
ATOM     30  O   UNL     1       1.517  -3.202   6.850  0.00  0.00    -0.463 OA
BRANCH  30  32
ATOM     31  C   UNL     1       1.849  -2.822   9.214  0.00  0.00    +0.048 C 
ATOM     32  C   UNL     1       2.439  -2.680   7.809  0.00  0.00    +0.229 C 
ENDBRANCH  30  32
ENDBRANCH  28  30
ENDBRANCH   1  28
BRANCH   6  33
ATOM     33  O   UNL     1       2.337  -3.785  -1.243  0.00  0.00    -0.491 OA
ATOM     34  C   UNL     1       3.168  -4.947  -1.293  0.00  0.00    +0.277 C 
ENDBRANCH   6  33
BRANCH   5  35
ATOM     35  O   UNL     1       0.735  -1.578  -1.048  0.00  0.00    -0.491 OA
ATOM     36  C   UNL     1      -0.108  -0.436  -0.889  0.00  0.00    +0.277 C 
ENDBRANCH   5  35
TORSDOF 8
