REMARK  Name = ZINC03307487
REMARK  12 active torsions:
REMARK  status: ('A' for Active; 'I' for Inactive)
REMARK    1  A    between atoms: C_1  and  N_2
REMARK    2  A    between atoms: C_3  and  N_34
REMARK    3  A    between atoms: C_4  and  C_11
REMARK    4  A    between atoms: N_7  and  C_10
REMARK    5  A    between atoms: C_11  and  C_13
REMARK    6  A    between atoms: C_13  and  S_14
REMARK    7  A    between atoms: S_14  and  C_15
REMARK    8  A    between atoms: C_18  and  C_28
REMARK    9  A    between atoms: N_19  and  C_20
REMARK   10  A    between atoms: C_20  and  C_21
REMARK   11  A    between atoms: C_21  and  C_22
REMARK   12  A    between atoms: C_28  and  C_29
REMARK                            x       y       z     vdW  Elec       q    Type
REMARK                         _______ _______ _______ _____ _____    ______ ____
ROOT
ATOM      1  C   UNL     1       1.084  -3.492  -3.384  0.00  0.00    +0.192 A 
ATOM      2  N   UNL     1       2.369  -3.235  -3.313  0.00  0.00    -0.122 NA
ATOM      3  N   UNL     1       2.662  -2.794  -2.142  0.00  0.00    -0.133 NA
ATOM      4  C   UNL     1       1.591  -2.744  -1.402  0.00  0.00    +0.139 A 
ATOM      5  N   UNL     1       0.548  -3.191  -2.165  0.00  0.00    -0.305 N 
ENDROOT
BRANCH   1   6
ATOM      6  S   UNL     1       0.216  -4.114  -4.786  0.00  0.00    -0.078 S 
BRANCH   6   7
ATOM      7  C   UNL     1       1.583  -4.256  -5.964  0.00  0.00    +0.157 C 
BRANCH   7   8
ATOM      8  C   UNL     1       1.062  -4.785  -7.276  0.00  0.00    +0.182 C 
ATOM      9  O   UNL     1      -0.119  -5.041  -7.402  0.00  0.00    -0.291 OA
BRANCH   8  13
ATOM     10  C   UNL     1       1.957  -6.380 -11.818  0.00  0.00    +0.155 C 
ATOM     11  N   UNL     1       2.402  -5.754 -10.570  0.00  0.00    -0.284 N 
ATOM     12  C   UNL     1       1.510  -5.589  -9.549  0.00  0.00    +0.116 A 
ATOM     13  C   UNL     1       1.946  -4.984  -8.357  0.00  0.00    +0.120 A 
ATOM     14  C   UNL     1       3.353  -4.569  -8.272  0.00  0.00    +0.269 A 
ATOM     15  O   UNL     1       3.786  -4.045  -7.263  0.00  0.00    -0.267 OA
ATOM     16  N   UNL     1       4.154  -4.782  -9.336  0.00  0.00    -0.263 N 
ATOM     17  C   UNL     1       3.680  -5.361 -10.451  0.00  0.00    +0.333 A 
ATOM     18  O   UNL     1       4.435  -5.535 -11.387  0.00  0.00    -0.246 OA
ATOM     19  C   UNL     1       5.561  -4.378  -9.274  0.00  0.00    +0.157 C 
BRANCH  12  20
ATOM     20  N   UNL     1       0.220  -5.998  -9.684  0.00  0.00    -0.344 N 
ATOM     21  H   UNL     1      -0.427  -5.802  -8.989  0.00  0.00    +0.144 HD
ATOM     22  H   UNL     1      -0.053  -6.487 -10.477  0.00  0.00    +0.144 HD
ENDBRANCH  12  20
ENDBRANCH   8  13
ENDBRANCH   7   8
ENDBRANCH   6   7
ENDBRANCH   1   6
BRANCH   5  23
ATOM     23  C   UNL     1      -0.854  -3.319  -1.759  0.00  0.00    +0.130 C 
BRANCH  23  24
ATOM     24  C   UNL     1      -1.594  -2.015  -2.065  0.00  0.00    +0.057 C 
BRANCH  24  25
ATOM     25  C   UNL     1      -3.036  -2.146  -1.648  0.00  0.00    -0.046 A 
ATOM     26  C   UNL     1      -3.976  -2.613  -2.547  0.00  0.00    +0.004 A 
ATOM     27  C   UNL     1      -5.298  -2.738  -2.163  0.00  0.00    +0.000 A 
ATOM     28  C   UNL     1      -5.682  -2.386  -0.882  0.00  0.00    +0.000 A 
ATOM     29  C   UNL     1      -4.743  -1.913   0.015  0.00  0.00    +0.000 A 
ATOM     30  C   UNL     1      -3.420  -1.793  -0.367  0.00  0.00    +0.004 A 
ENDBRANCH  24  25
ENDBRANCH  23  24
ENDBRANCH   5  23
BRANCH   4  31
ATOM     31  C   UNL     1       1.516  -2.284   0.031  0.00  0.00    +0.118 C 
BRANCH  31  32
ATOM     32  C   UNL     1       1.250  -0.801   0.070  0.00  0.00    -0.003 A 
ATOM     33  C   UNL     1       0.062  -0.148   0.097  0.00  0.00    +0.011 A 
ATOM     34  C   UNL     1       0.059   1.234   0.130  0.00  0.00    +0.008 A 
ATOM     35  C   UNL     1       1.242   1.895   0.134  0.00  0.00    +0.045 A 
ATOM     36  S   UNL     1       2.416   0.550   0.090  0.00  0.00    -0.101 S 
ENDBRANCH  31  32
ENDBRANCH   4  31
TORSDOF 10
