REMARK  Name = ZINC02303291
REMARK  9 active torsions:
REMARK  status: ('A' for Active; 'I' for Inactive)
REMARK    1  A    between atoms: C_1  and  C_2
REMARK    2  A    between atoms: C_2  and  N_3
REMARK    3  A    between atoms: N_3  and  C_4
REMARK    4  A    between atoms: N_3  and  C_6
REMARK    5  A    between atoms: C_4  and  C_5
REMARK    6  A    between atoms: C_6  and  C_7
REMARK    7  A    between atoms: C_7  and  N_8
REMARK    8  A    between atoms: N_8  and  C_9
REMARK    9  A    between atoms: N_16  and  C_19
REMARK                            x       y       z     vdW  Elec       q    Type
REMARK                         _______ _______ _______ _____ _____    ______ ____
ROOT
ATOM      1  C   UNL     1       3.232  -4.164  -0.998  0.00  0.00    +0.085 C 
ATOM      2  C   UNL     1       3.495  -5.521  -1.040  0.00  0.00    +0.113 C 
ATOM      3  C   UNL     1       2.836  -6.461  -0.115  0.00  0.00    +0.258 C 
ATOM      4  O   UNL     1       2.038  -6.066   0.714  0.00  0.00    -0.270 OA
ATOM      5  N   UNL     1       3.141  -7.771  -0.213  0.00  0.00    -0.235 N 
ATOM      6  C   UNL     1       4.019  -8.219  -1.122  0.00  0.00    +0.320 C 
ATOM      7  O   UNL     1       4.250  -9.412  -1.159  0.00  0.00    -0.251 OA
ATOM      8  N   UNL     1       4.654  -7.423  -1.993  0.00  0.00    -0.190 N 
ATOM      9  C   UNL     1       4.442  -6.090  -2.014  0.00  0.00    +0.265 C 
ATOM     10  O   UNL     1       5.021  -5.378  -2.813  0.00  0.00    -0.269 OA
ATOM     11  H   UNL     1       2.717  -8.403   0.387  0.00  0.00    +0.159 HD
ENDROOT
BRANCH   8  12
ATOM     12  C   UNL     1       5.554  -7.987  -2.907  0.00  0.00    +0.046 A 
ATOM     13  C   UNL     1       6.908  -7.692  -2.822  0.00  0.00    +0.025 A 
ATOM     14  C   UNL     1       7.793  -8.250  -3.724  0.00  0.00    +0.016 A 
ATOM     15  C   UNL     1       7.331  -9.101  -4.712  0.00  0.00    +0.013 A 
ATOM     16  C   UNL     1       5.983  -9.397  -4.799  0.00  0.00    +0.016 A 
ATOM     17  C   UNL     1       5.094  -8.847  -3.896  0.00  0.00    +0.025 A 
ATOM     18  I   UNL     1       8.677  -9.945  -6.078  0.00  0.00    -0.044 I 
ENDBRANCH   8  12
BRANCH   1  19
ATOM     19  N   UNL     1       2.471  -3.655  -0.008  0.00  0.00    -0.351 N 
ATOM     20  H   UNL     1       2.178  -4.224   0.720  0.00  0.00    +0.145 HD
BRANCH  19  21
ATOM     21  C   UNL     1       2.087  -2.241  -0.033  0.00  0.00    +0.082 C 
BRANCH  21  22
ATOM     22  C   UNL     1       1.232  -1.924   1.196  0.00  0.00    -0.060 C 
BRANCH  22  23
ATOM     23  N   UNL     1       0.846  -0.507   1.171  0.00  0.00    +0.380 N 
ATOM     24  H   UNL     1       1.674   0.066   1.098  0.00  0.00    -0.082 HD
BRANCH  23  26
ATOM     25  C   UNL     1      -0.314   1.243  -0.090  0.00  0.00    -0.017 C 
ATOM     26  C   UNL     1      -0.026  -0.256   0.016  0.00  0.00    -0.082 C 
ENDBRANCH  23  26
BRANCH  23  27
ATOM     27  C   UNL     1       0.128  -0.173   2.408  0.00  0.00    -0.082 C 
ATOM     28  C   UNL     1       1.079  -0.298   3.600  0.00  0.00    -0.017 C 
ENDBRANCH  23  27
ENDBRANCH  22  23
ENDBRANCH  21  22
ENDBRANCH  19  21
ENDBRANCH   1  19
TORSDOF 7
