REMARK  Name = ZINC00442510
REMARK  9 active torsions:
REMARK  status: ('A' for Active; 'I' for Inactive)
REMARK    1  A    between atoms: C_1  and  C_2
REMARK    2  A    between atoms: C_2  and  S_3
REMARK    3  A    between atoms: S_3  and  C_4
REMARK    4  A    between atoms: C_10  and  C_12
REMARK    5  A    between atoms: C_13  and  C_14
REMARK    6  A    between atoms: C_17  and  C_20
REMARK    7  A    between atoms: C_20  and  C_21
REMARK    8  A    between atoms: C_20  and  C_22
REMARK    9  A    between atoms: C_20  and  C_23
REMARK                            x       y       z     vdW  Elec       q    Type
REMARK                         _______ _______ _______ _____ _____    ______ ____
ROOT
ATOM      1  C   UNL     1       0.099   1.013   2.823  0.00  0.00    +0.160 A 
ATOM      2  N   UNL     1       1.191   0.263   2.792  0.00  0.00    -0.133 NA
ATOM      3  N   UNL     1       1.762  -0.128   3.846  0.00  0.00    -0.125 NA
ATOM      4  C   UNL     1       1.306   0.187   5.048  0.00  0.00    +0.189 A 
ATOM      5  S   UNL     1      -0.118   1.172   4.593  0.00  0.00    -0.024 S 
ATOM      6  N   UNL     1       1.797  -0.148   6.306  0.00  0.00    -0.260 N 
ATOM      7  C   UNL     1       2.904  -0.908   6.417  0.00  0.00    +0.243 C 
ATOM      8  O   UNL     1       3.475  -1.302   5.417  0.00  0.00    -0.270 OA
ATOM      9  H   UNL     1       1.342   0.166   7.103  0.00  0.00    +0.157 HD
ENDROOT
BRANCH   7  10
ATOM     10  C   UNL     1       3.421  -1.260   7.741  0.00  0.00    +0.068 C 
ATOM     11  C   UNL     1       4.529  -2.021   7.852  0.00  0.00    +0.013 C 
BRANCH  11  12
ATOM     12  C   UNL     1       5.048  -2.375   9.183  0.00  0.00    -0.025 A 
ATOM     13  C   UNL     1       4.398  -1.920  10.334  0.00  0.00    +0.008 A 
ATOM     14  C   UNL     1       4.887  -2.261  11.578  0.00  0.00    +0.005 A 
ATOM     15  C   UNL     1       6.025  -3.042  11.688  0.00  0.00    -0.042 A 
ATOM     16  C   UNL     1       6.677  -3.491  10.552  0.00  0.00    +0.005 A 
ATOM     17  C   UNL     1       6.197  -3.163   9.302  0.00  0.00    +0.008 A 
BRANCH  15  18
ATOM     18  C   UNL     1       6.557  -3.404  13.050  0.00  0.00    -0.013 C 
ATOM     19  C   UNL     1       7.981  -2.866  13.201  0.00  0.00    +0.015 C 
ATOM     20  C   UNL     1       5.662  -2.788  14.127  0.00  0.00    +0.015 C 
ATOM     21  C   UNL     1       6.567  -4.926  13.205  0.00  0.00    +0.015 C 
ENDBRANCH  15  18
ENDBRANCH  11  12
ENDBRANCH   7  10
BRANCH   1  22
ATOM     22  S   UNL     1      -0.862   1.671   1.500  0.00  0.00    -0.097 S 
BRANCH  22  24
ATOM     23  C   UNL     1      -0.753   1.593  -1.232  0.00  0.00    +0.016 C 
ATOM     24  C   UNL     1      -0.013   1.086   0.008  0.00  0.00    +0.073 C 
ENDBRANCH  22  24
ENDBRANCH   1  22
TORSDOF 5
