REMARK  Name = ZINC10961870
REMARK  11 active torsions:
REMARK  status: ('A' for Active; 'I' for Inactive)
REMARK    1  A    between atoms: C_1  and  O_2
REMARK    2  A    between atoms: O_2  and  C_3
REMARK    3  A    between atoms: C_3  and  C_4
REMARK    4  A    between atoms: C_4  and  N_5
REMARK    5  A    between atoms: N_5  and  C_6
REMARK    6  A    between atoms: C_7  and  N_22
REMARK    7  A    between atoms: N_8  and  C_15
REMARK    8  A    between atoms: C_15  and  C_16
REMARK    9  A    between atoms: C_23  and  C_25
REMARK   10  A    between atoms: C_25  and  S_26
REMARK   11  A    between atoms: S_26  and  C_27
REMARK                            x       y       z     vdW  Elec       q    Type
REMARK                         _______ _______ _______ _____ _____    ______ ____
ROOT
ATOM      1  N   UNL     1       2.603   3.361  -0.134  0.00  0.00    -0.261 N 
ATOM      2  C   UNL     1       2.961   4.662  -0.093  0.00  0.00    +0.230 C 
ATOM      3  O   UNL     1       2.109   5.526  -0.111  0.00  0.00    -0.274 OA
ENDROOT
BRANCH   1   4
ATOM      4  C   UNL     1       1.247   3.007  -0.298  0.00  0.00    +0.140 A 
ATOM      5  C   UNL     1       0.564   2.358   0.710  0.00  0.00    +0.128 A 
ATOM      6  N   UNL     1      -0.757   2.026   0.521  0.00  0.00    -0.276 N 
ATOM      7  C   UNL     1      -1.378   2.336  -0.632  0.00  0.00    +0.331 A 
ATOM      8  O   UNL     1      -2.548   2.038  -0.778  0.00  0.00    -0.246 OA
ATOM      9  N   UNL     1      -0.728   2.963  -1.627  0.00  0.00    -0.273 N 
ATOM     10  H   UNL     1      -1.210   3.175  -2.477  0.00  0.00    +0.173 HD
ATOM     11  C   UNL     1       0.567   3.311  -1.492  0.00  0.00    +0.277 A 
ATOM     12  O   UNL     1       1.147   3.884  -2.400  0.00  0.00    -0.266 OA
BRANCH   5  13
ATOM     13  N   UNL     1       1.197   2.046   1.890  0.00  0.00    -0.343 N 
ATOM     14  H   UNL     1       2.096   2.369   2.058  0.00  0.00    +0.144 HD
ATOM     15  H   UNL     1       0.745   1.503   2.554  0.00  0.00    +0.144 HD
ENDBRANCH   5  13
BRANCH   6  16
ATOM     16  C   UNL     1      -1.494   1.336   1.583  0.00  0.00    +0.163 C 
BRANCH  16  17
ATOM     17  C   UNL     1      -2.139   2.353   2.489  0.00  0.00    -0.028 A 
ATOM     18  C   UNL     1      -1.457   2.826   3.594  0.00  0.00    +0.005 A 
ATOM     19  C   UNL     1      -2.047   3.762   4.422  0.00  0.00    +0.000 A 
ATOM     20  C   UNL     1      -3.323   4.218   4.151  0.00  0.00    +0.000 A 
ATOM     21  C   UNL     1      -4.007   3.742   3.048  0.00  0.00    +0.000 A 
ATOM     22  C   UNL     1      -3.415   2.810   2.217  0.00  0.00    +0.005 A 
ENDBRANCH  16  17
ENDBRANCH   6  16
ENDBRANCH   1   4
BRANCH   1  23
ATOM     23  C   UNL     1       3.623   2.317  -0.007  0.00  0.00    +0.142 C 
BRANCH  23  24
ATOM     24  C   UNL     1       4.039   1.839  -1.400  0.00  0.00    +0.178 C 
BRANCH  24  26
ATOM     25  C   UNL     1       5.109   2.567  -3.418  0.00  0.00    +0.194 C 
ATOM     26  O   UNL     1       4.678   2.909  -2.099  0.00  0.00    -0.381 OA
ENDBRANCH  24  26
ENDBRANCH  23  24
ENDBRANCH   1  23
BRANCH   2  27
ATOM     27  C   UNL     1       4.418   5.041  -0.027  0.00  0.00    +0.172 C 
BRANCH  27  28
ATOM     28  S   UNL     1       4.570   6.844   0.015  0.00  0.00    -0.097 S 
BRANCH  28  29
ATOM     29  C   UNL     1       6.324   7.001   0.090  0.00  0.00    +0.098 A 
ATOM     30  C   UNL     1       6.896   8.281   0.133  0.00  0.00    +0.035 A 
ATOM     31  C   UNL     1       8.250   8.417   0.196  0.00  0.00    +0.012 A 
ATOM     32  C   UNL     1       9.040   7.248   0.205  0.00  0.00    +0.000 A 
ATOM     33  C   UNL     1      10.440   7.317   0.262  0.00  0.00    +0.010 A 
ATOM     34  C   UNL     1      11.171   6.168   0.268  0.00  0.00    +0.001 A 
ATOM     35  C   UNL     1      10.547   4.924   0.218  0.00  0.00    +0.002 A 
ATOM     36  C   UNL     1       9.190   4.821   0.162  0.00  0.00    +0.028 A 
ATOM     37  C   UNL     1       8.402   5.985   0.154  0.00  0.00    +0.072 A 
ATOM     38  N   UNL     1       7.068   5.913   0.098  0.00  0.00    -0.240 NA
ENDBRANCH  28  29
ENDBRANCH  27  28
ENDBRANCH   2  27
TORSDOF 10
