REMARK  Name = ZINC36066251
REMARK  8 active torsions:
REMARK  status: ('A' for Active; 'I' for Inactive)
REMARK    1  A    between atoms: C_1  and  C_2
REMARK    2  A    between atoms: C_2  and  C_3
REMARK    3  A    between atoms: C_3  and  C_5
REMARK    4  A    between atoms: C_3  and  N_6
REMARK    5  A    between atoms: C_7  and  C_32
REMARK    6  A    between atoms: C_15  and  C_21
REMARK    7  A    between atoms: N_23  and  C_24
REMARK    8  A    between atoms: N_34  and  C_35
REMARK                            x       y       z     vdW  Elec       q    Type
REMARK                         _______ _______ _______ _____ _____    ______ ____
ROOT
ATOM      1  N   UNL     1      -2.103   0.710   1.198  0.00  0.00    -0.284 N 
ATOM      2  C   UNL     1      -3.368   1.456   1.488  0.00  0.00    +0.199 C 
ATOM      3  C   UNL     1      -3.112   1.972   2.870  0.00  0.00    +0.127 C 
ATOM      4  C   UNL     1      -2.080   3.085   2.902  0.00  0.00    +0.009 C 
ATOM      5  C   UNL     1      -1.971   3.437   4.174  0.00  0.00    +0.004 C 
ATOM      6  C   UNL     1      -2.904   2.484   4.932  0.00  0.00    +0.155 C 
ATOM      7  O   UNL     1      -3.986   2.278   3.931  0.00  0.00    -0.358 OA
ATOM      8  C   UNL     1      -2.107   1.123   4.873  0.00  0.00    +0.123 C 
ATOM      9  C   UNL     1      -2.457   0.659   3.459  0.00  0.00    +0.128 C 
ATOM     10  C   UNL     1      -1.514   0.324   2.377  0.00  0.00    +0.224 C 
ATOM     11  O   UNL     1      -0.423  -0.192   2.505  0.00  0.00    -0.275 OA
ENDROOT
BRANCH   8  12
ATOM     12  C   UNL     1      -0.627   1.355   5.036  0.00  0.00    +0.224 C 
ATOM     13  O   UNL     1       0.137   1.046   4.146  0.00  0.00    -0.275 OA
ATOM     14  N   UNL     1      -0.152   1.907   6.170  0.00  0.00    -0.285 N 
ATOM     15  H   UNL     1      -0.754   2.091   6.909  0.00  0.00    +0.155 HD
BRANCH  14  16
ATOM     16  C   UNL     1       1.208   2.214   6.283  0.00  0.00    +0.036 A 
ATOM     17  C   UNL     1       1.611   3.337   6.992  0.00  0.00    +0.043 A 
ATOM     18  C   UNL     1       2.956   3.638   7.103  0.00  0.00    +0.044 A 
ATOM     19  C   UNL     1       3.900   2.820   6.507  0.00  0.00    +0.040 A 
ATOM     20  C   UNL     1       3.501   1.700   5.799  0.00  0.00    +0.044 A 
ATOM     21  C   UNL     1       2.158   1.392   5.690  0.00  0.00    +0.043 A 
ATOM     22 CL   UNL     1       4.689   0.677   5.052  0.00  0.00    -0.083 Cl
ATOM     23 CL   UNL     1       3.461   5.042   7.989  0.00  0.00    -0.083 Cl
ENDBRANCH  14  16
ENDBRANCH   8  12
BRANCH   2  24
ATOM     24  C   UNL     1      -3.559   2.591   0.515  0.00  0.00    +0.237 C 
ATOM     25  O   UNL     1      -2.599   3.082  -0.041  0.00  0.00    -0.274 OA
ATOM     26  N   UNL     1      -4.797   3.060   0.263  0.00  0.00    -0.311 N 
ATOM     27  H   UNL     1      -5.565   2.668   0.707  0.00  0.00    +0.149 HD
BRANCH  26  28
ATOM     28  C   UNL     1      -4.983   4.163  -0.683  0.00  0.00    +0.073 C 
ATOM     29  C   UNL     1      -4.785   5.496   0.042  0.00  0.00    +0.022 C 
ATOM     30  C   UNL     1      -4.979   6.648  -0.946  0.00  0.00    +0.002 C 
ATOM     31  C   UNL     1      -6.394   6.589  -1.526  0.00  0.00    +0.000 C 
ATOM     32  C   UNL     1      -6.592   5.257  -2.252  0.00  0.00    +0.002 C 
ATOM     33  C   UNL     1      -6.398   4.104  -1.264  0.00  0.00    +0.022 C 
ENDBRANCH  26  28
ENDBRANCH   2  24
BRANCH   1  34
ATOM     34  C   UNL     1      -1.577   0.428  -0.140  0.00  0.00    +0.074 C 
ATOM     35  C   UNL     1      -1.633  -1.078  -0.404  0.00  0.00    +0.028 C 
BRANCH  34  37
ATOM     36  C   UNL     1      -0.087   2.433  -0.108  0.00  0.00    +0.005 C 
ATOM     37  C   UNL     1      -0.128   0.909  -0.230  0.00  0.00    +0.019 C 
ENDBRANCH  34  37
ENDBRANCH   1  34
TORSDOF 6
