REMARK  Name = ZINC40530398
REMARK  11 active torsions:
REMARK  status: ('A' for Active; 'I' for Inactive)
REMARK    1  A    between atoms: C_1  and  C_2
REMARK    2  A    between atoms: C_2  and  C_3
REMARK    3  A    between atoms: C_3  and  O_4
REMARK    4  A    between atoms: O_4  and  C_5
REMARK    5  A    between atoms: C_8  and  C_11
REMARK    6  A    between atoms: C_16  and  O_25
REMARK    7  A    between atoms: C_20  and  N_24
REMARK    8  A    between atoms: C_21  and  C_22
REMARK    9  A    between atoms: O_25  and  C_26
REMARK   10  A    between atoms: C_26  and  C_28
REMARK   11  A    between atoms: C_29  and  C_38
REMARK                            x       y       z     vdW  Elec       q    Type
REMARK                         _______ _______ _______ _____ _____    ______ ____
ROOT
ATOM      1  C   UNL     1       3.324  -4.538   5.573  0.00  0.00    +0.098 C 
ATOM      2  C   UNL     1       4.472  -5.354   5.042  0.00  0.00    +0.008 A 
ATOM      3  C   UNL     1       5.601  -4.711   4.566  0.00  0.00    +0.012 A 
ATOM      4  C   UNL     1       6.664  -5.443   4.075  0.00  0.00    +0.047 A 
ATOM      5  C   UNL     1       6.603  -6.830   4.059  0.00  0.00    +0.136 A 
ATOM      6  C   UNL     1       5.474  -7.476   4.535  0.00  0.00    +0.093 A 
ATOM      7  C   UNL     1       4.405  -6.738   5.028  0.00  0.00    +0.138 A 
ATOM      8  O   UNL     1       3.308  -7.386   5.490  0.00  0.00    -0.441 OA
ATOM      9  C   UNL     1       2.450  -6.753   6.307  0.00  0.00    +0.199 C 
ATOM     10  C   UNL     1       2.409  -5.405   6.391  0.00  0.00    +0.098 C 
ENDROOT
BRANCH   1  14
ATOM     11  C   UNL     1       1.142  -2.868   2.300  0.00  0.00    +0.121 A 
ATOM     12  C   UNL     1       1.734  -2.034   3.238  0.00  0.00    +0.046 A 
ATOM     13  C   UNL     1       2.438  -2.576   4.295  0.00  0.00    +0.008 A 
ATOM     14  C   UNL     1       2.554  -3.949   4.419  0.00  0.00    -0.034 A 
ATOM     15  C   UNL     1       1.966  -4.782   3.485  0.00  0.00    +0.008 A 
ATOM     16  C   UNL     1       1.255  -4.244   2.430  0.00  0.00    +0.046 A 
BRANCH  11  17
ATOM     17  O   UNL     1       0.448  -2.337   1.259  0.00  0.00    -0.492 OA
BRANCH  17  18
ATOM     18  C   UNL     1       0.373  -0.911   1.189  0.00  0.00    +0.229 C 
BRANCH  18  20
ATOM     19  C   UNL     1      -0.522   1.023  -0.115  0.00  0.00    +0.007 C 
ATOM     20  C   UNL     1      -0.442  -0.503  -0.040  0.00  0.00    +0.038 C 
ENDBRANCH  18  20
ENDBRANCH  17  18
ENDBRANCH  11  17
ENDBRANCH   1  14
BRANCH   9  21
ATOM     21  N   UNL     1       1.591  -7.497   7.077  0.00  0.00    -0.328 N 
ATOM     22  H   UNL     1       1.609  -8.465   7.026  0.00  0.00    +0.145 HD
ATOM     23  H   UNL     1       0.966  -7.054   7.672  0.00  0.00    +0.145 HD
ENDBRANCH   9  21
BRANCH  10  24
ATOM     24  C   UNL     1       1.470  -4.790   7.281  0.00  0.00    +0.101 C 
ATOM     25  N   UNL     1       0.725  -4.303   7.987  0.00  0.00    -0.191 NA
ENDBRANCH  10  24
BRANCH   5  26
ATOM     26  O   UNL     1       7.648  -7.551   3.575  0.00  0.00    -0.420 OA
BRANCH  26  27
ATOM     27  C   UNL     1       7.477  -8.212   2.412  0.00  0.00    +0.380 C 
ATOM     28  O   UNL     1       6.451  -8.068   1.776  0.00  0.00    -0.241 OA
BRANCH  27  29
ATOM     29  C   UNL     1       8.530  -9.105   1.914  0.00  0.00    +0.216 A 
ATOM     30  C   UNL     1       8.471  -9.816   0.757  0.00  0.00    +0.010 A 
ATOM     31  C   UNL     1       9.729 -10.556   0.671  0.00  0.00    +0.025 A 
ATOM     32  C   UNL     1      10.272 -11.448  -0.257  0.00  0.00    +0.032 A 
ATOM     33  C   UNL     1      11.511 -11.983  -0.037  0.00  0.00    +0.042 A 
ATOM     34  C   UNL     1      12.231 -11.645   1.102  0.00  0.00    +0.023 A 
ATOM     35  C   UNL     1      11.712 -10.767   2.029  0.00  0.00    +0.048 A 
ATOM     36  C   UNL     1      10.454 -10.210   1.826  0.00  0.00    +0.136 A 
ATOM     37  O   UNL     1       9.706  -9.341   2.533  0.00  0.00    -0.448 OA
ATOM     38 CL   UNL     1      12.188 -13.091  -1.189  0.00  0.00    -0.084 Cl
ATOM     39  C   UNL     1       7.338  -9.836  -0.237  0.00  0.00    +0.048 C 
ENDBRANCH  27  29
ENDBRANCH  26  27
ENDBRANCH   5  26
TORSDOF 9
