REMARK  Name = ZINC02417214
REMARK  11 active torsions:
REMARK  status: ('A' for Active; 'I' for Inactive)
REMARK    1  A    between atoms: C_1  and  C_2
REMARK    2  A    between atoms: C_2  and  C_3
REMARK    3  A    between atoms: C_2  and  C_4
REMARK    4  A    between atoms: C_4  and  C_5
REMARK    5  A    between atoms: C_11  and  S_15
REMARK    6  A    between atoms: S_15  and  C_16
REMARK    7  A    between atoms: C_16  and  C_17
REMARK    8  A    between atoms: N_19  and  C_20
REMARK    9  A    between atoms: C_20  and  C_21
REMARK   10  A    between atoms: C_31  and  C_34
REMARK   11  A    between atoms: C_31  and  C_35
REMARK                            x       y       z     vdW  Elec       q    Type
REMARK                         _______ _______ _______ _____ _____    ______ ____
ROOT
ATOM      1  C   UNL     1       0.209 -10.165   7.395  0.00  0.00    +0.048 A 
ATOM      2  C   UNL     1       0.205  -9.328   8.503  0.00  0.00    +0.003 A 
ATOM      3  C   UNL     1       0.187  -7.966   8.330  0.00  0.00    -0.026 A 
ATOM      4  C   UNL     1       0.168  -7.434   7.020  0.00  0.00    +0.037 A 
ATOM      5  C   UNL     1       0.147  -6.013   6.625  0.00  0.00    +0.092 A 
ATOM      6  C   UNL     1       0.130  -5.761   5.248  0.00  0.00    +0.072 A 
ATOM      7  C   UNL     1       0.108  -4.461   4.761  0.00  0.00    +0.115 A 
ATOM      8  N   UNL     1       0.108  -3.457   5.639  0.00  0.00    -0.228 NA
ATOM      9  C   UNL     1       0.119  -3.712   6.934  0.00  0.00    +0.223 A 
ATOM     10  N   UNL     1       0.140  -4.925   7.428  0.00  0.00    -0.234 NA
ATOM     11  S   UNL     1       0.145  -7.367   4.499  0.00  0.00    -0.064 S 
ATOM     12  C   UNL     1       0.172  -8.365   5.967  0.00  0.00    +0.111 A 
ATOM     13  N   UNL     1       0.193  -9.665   6.176  0.00  0.00    -0.244 NA
ATOM     14  C   UNL     1       0.190  -7.015   9.496  0.00  0.00    +0.070 C 
ATOM     15  C   UNL     1      -0.201  -7.765  10.772  0.00  0.00    +0.068 C 
ATOM     16  O   UNL     1       0.582  -8.962  10.852  0.00  0.00    -0.369 OA
ATOM     17  C   UNL     1       0.218  -9.941   9.880  0.00  0.00    +0.197 C 
ATOM     18  C   UNL     1       0.078  -6.885  11.992  0.00  0.00    +0.041 C 
ATOM     19  C   UNL     1      -1.687  -8.126  10.721  0.00  0.00    +0.041 C 
ENDROOT
BRANCH   1  20
ATOM     20  C   UNL     1       0.233 -11.660   7.588  0.00  0.00    +0.058 C 
BRANCH  20  22
ATOM     21  C   UNL     1      -1.180 -13.715   7.734  0.00  0.00    +0.007 C 
ATOM     22  C   UNL     1      -1.201 -12.187   7.663  0.00  0.00    -0.011 C 
ATOM     23  C   UNL     1      -1.885 -11.628   8.913  0.00  0.00    +0.007 C 
ENDBRANCH  20  22
ENDBRANCH   1  20
BRANCH   7  24
ATOM     24  S   UNL     1       0.087  -4.146   3.027  0.00  0.00    -0.095 S 
BRANCH  24  25
ATOM     25  C   UNL     1       0.063  -2.336   3.037  0.00  0.00    +0.171 C 
BRANCH  25  26
ATOM     26  C   UNL     1       0.042  -1.826   1.619  0.00  0.00    +0.224 C 
ATOM     27  O   UNL     1       0.044  -2.609   0.693  0.00  0.00    -0.275 OA
ATOM     28  N   UNL     1       0.022  -0.500   1.381  0.00  0.00    -0.311 N 
ATOM     29  H   UNL     1       0.020   0.127   2.121  0.00  0.00    +0.149 HD
BRANCH  28  30
ATOM     30  C   UNL     1       0.002  -0.004   0.002  0.00  0.00    +0.139 C 
BRANCH  30  31
ATOM     31  C   UNL     1      -0.018   1.503   0.010  0.00  0.00    -0.030 A 
ATOM     32  C   UNL     1      -1.225   2.178   0.020  0.00  0.00    +0.005 A 
ATOM     33  C   UNL     1      -1.244   3.560   0.032  0.00  0.00    +0.000 A 
ATOM     34  C   UNL     1      -0.056   4.267   0.025  0.00  0.00    +0.000 A 
ATOM     35  C   UNL     1       1.151   3.592   0.010  0.00  0.00    +0.000 A 
ATOM     36  C   UNL     1       1.169   2.210   0.003  0.00  0.00    +0.005 A 
ENDBRANCH  30  31
ENDBRANCH  28  30
ENDBRANCH  25  26
ENDBRANCH  24  25
ENDBRANCH   7  24
TORSDOF 7
