REMARK  Name = ZINC04116305
REMARK  5 active torsions:
REMARK  status: ('A' for Active; 'I' for Inactive)
REMARK    1  A    between atoms: C_1  and  C_2
REMARK    2  A    between atoms: C_7  and  C_17
REMARK    3  A    between atoms: C_29  and  C_31
REMARK    4  A    between atoms: C_31  and  O_33
REMARK    5  A    between atoms: O_33  and  C_34
REMARK                            x       y       z     vdW  Elec       q    Type
REMARK                         _______ _______ _______ _____ _____    ______ ____
ROOT
ATOM      1  C   UNL     1       3.493   3.604   1.159  0.00  0.00    +0.009 C 
ATOM      2  C   UNL     1       2.778   4.269  -0.019  0.00  0.00    +0.013 C 
ATOM      3  C   UNL     1       2.757   5.785   0.177  0.00  0.00    +0.055 C 
ATOM      4  C   UNL     1       2.033   6.128   1.469  0.00  0.00    +0.017 C 
ATOM      5  C   UNL     1       1.008   5.371   1.894  0.00  0.00    +0.037 C 
ATOM      6  C   UNL     1       0.180   5.616   3.133  0.00  0.00    +0.138 C 
ATOM      7  N   UNL     1       0.725   6.613   4.030  0.00  0.00    -0.331 N 
ATOM      8  C   UNL     1       0.842   7.946   3.640  0.00  0.00    +0.049 A 
ATOM      9  C   UNL     1       0.069   8.939   4.221  0.00  0.00    +0.025 A 
ATOM     10  C   UNL     1       0.139  10.231   3.728  0.00  0.00    +0.002 A 
ATOM     11  C   UNL     1       0.972  10.531   2.667  0.00  0.00    +0.002 A 
ATOM     12  C   UNL     1       1.761   9.546   2.098  0.00  0.00    +0.025 A 
ATOM     13  C   UNL     1       1.705   8.257   2.600  0.00  0.00    +0.052 A 
ATOM     14  N   UNL     1       2.502   7.231   2.105  0.00  0.00    -0.316 N 
ATOM     15  C   UNL     1       0.617   4.224   1.163  0.00  0.00    +0.177 C 
ATOM     16  O   UNL     1      -0.326   3.570   1.562  0.00  0.00    -0.291 OA
ATOM     17  C   UNL     1       1.324   3.787  -0.084  0.00  0.00    +0.171 C 
ATOM     18  H   UNL     1       1.015   6.349   4.917  0.00  0.00    +0.147 HD
ATOM     19  H   UNL     1       3.461   7.310   2.222  0.00  0.00    +0.152 HD
ENDROOT
BRANCH   6  20
ATOM     20  C   UNL     1      -1.197   6.057   2.709  0.00  0.00    +0.002 A 
ATOM     21  C   UNL     1      -1.554   6.503   1.494  0.00  0.00    +0.089 A 
ATOM     22  N   UNL     1      -2.887   6.809   1.482  0.00  0.00    -0.360 N 
ATOM     23  H   UNL     1      -3.374   7.150   0.715  0.00  0.00    +0.165 HD
ATOM     24  C   UNL     1      -3.435   6.561   2.721  0.00  0.00    +0.047 A 
ATOM     25  C   UNL     1      -2.402   6.074   3.542  0.00  0.00    +0.005 A 
ATOM     26  C   UNL     1      -2.667   5.740   4.871  0.00  0.00    +0.010 A 
ATOM     27  C   UNL     1      -3.934   5.878   5.365  0.00  0.00    +0.001 A 
ATOM     28  C   UNL     1      -4.958   6.353   4.558  0.00  0.00    +0.002 A 
ATOM     29  C   UNL     1      -4.717   6.694   3.244  0.00  0.00    +0.026 A 
ENDBRANCH   6  20
BRANCH  17  30
ATOM     30  C   UNL     1       1.294   2.284  -0.182  0.00  0.00    +0.318 C 
ATOM     31  O   UNL     1       2.328   1.659  -0.213  0.00  0.00    -0.250 OA
BRANCH  30  32
ATOM     32  O   UNL     1       0.118   1.638  -0.234  0.00  0.00    -0.467 OA
ATOM     33  C   UNL     1       0.165   0.189  -0.327  0.00  0.00    +0.280 C 
ENDBRANCH  30  32
ENDBRANCH  17  30
TORSDOF 3
