REMARK  Name = ZINC06606292
REMARK  5 active torsions:
REMARK  status: ('A' for Active; 'I' for Inactive)
REMARK    1  A    between atoms: C_4  and  O_14
REMARK    2  A    between atoms: C_5  and  C_7
REMARK    3  A    between atoms: O_14  and  C_15
REMARK    4  A    between atoms: C_15  and  C_16
REMARK    5  A    between atoms: N_18  and  C_19
REMARK                            x       y       z     vdW  Elec       q    Type
REMARK                         _______ _______ _______ _____ _____    ______ ____
ROOT
ATOM      1  C   UNL     1       6.894  -0.097  -1.164  0.00  0.00    +0.001 A 
ATOM      2  C   UNL     1       8.017   0.702  -1.028  0.00  0.00    +0.004 A 
ATOM      3  C   UNL     1       7.896   2.078  -0.984  0.00  0.00    +0.046 A 
ATOM      4  C   UNL     1       6.646   2.669  -1.075  0.00  0.00    +0.128 A 
ATOM      5  C   UNL     1       5.505   1.864  -1.214  0.00  0.00    +0.018 A 
ATOM      6  C   UNL     1       5.642   0.472  -1.251  0.00  0.00    +0.011 A 
ENDROOT
BRANCH   5   7
ATOM      7  C   UNL     1       4.174   2.479  -1.312  0.00  0.00    +0.030 C 
ATOM      8  C   UNL     1       3.077   1.786  -0.922  0.00  0.00    +0.055 C 
ATOM      9  C   UNL     1       1.645   2.133  -1.067  0.00  0.00    +0.111 C 
ATOM     10  N   UNL     1       0.761   1.227  -0.572  0.00  0.00    -0.262 N 
ATOM     11  C   UNL     1       1.191   0.091   0.011  0.00  0.00    +0.282 C 
ATOM     12  O   UNL     1       0.524  -0.804   0.495  0.00  0.00    -0.262 OA
ATOM     13  S   UNL     1       2.968   0.207  -0.094  0.00  0.00    -0.028 S 
ATOM     14  H   UNL     1       0.331   3.529  -1.763  0.00  0.00    +0.157 HD
ATOM     15  H   UNL     1      -0.191   1.399  -0.642  0.00  0.00    +0.157 HD
ATOM     16  N   UNL     1       1.314   3.276  -1.656  0.00  0.00    -0.386 N 
ATOM     17  H   UNL     1       2.046   3.906  -2.004  0.00  0.00    +0.157 HD
ENDBRANCH   5   7
BRANCH   4  18
ATOM     18  O   UNL     1       6.526   4.021  -1.031  0.00  0.00    -0.482 OA
BRANCH  18  19
ATOM     19  C   UNL     1       7.731   4.775  -0.889  0.00  0.00    +0.324 C 
BRANCH  19  20
ATOM     20  C   UNL     1       7.404   6.245  -0.859  0.00  0.00    +0.255 C 
ATOM     21  O   UNL     1       6.251   6.612  -0.951  0.00  0.00    -0.272 OA
ATOM     22  N   UNL     1       8.391   7.154  -0.731  0.00  0.00    -0.283 N 
ATOM     23  H   UNL     1       9.318   6.866  -0.732  0.00  0.00    +0.155 HD
BRANCH  22  24
ATOM     24  C   UNL     1       8.080   8.512  -0.597  0.00  0.00    +0.034 A 
ATOM     25  C   UNL     1       8.910   9.474  -1.157  0.00  0.00    +0.025 A 
ATOM     26  C   UNL     1       8.598  10.813  -1.028  0.00  0.00    +0.022 A 
ATOM     27  C   UNL     1       7.465  11.197  -0.332  0.00  0.00    +0.041 A 
ATOM     28  C   UNL     1       6.639  10.240   0.232  0.00  0.00    +0.022 A 
ATOM     29  C   UNL     1       6.944   8.899   0.101  0.00  0.00    +0.025 A 
ATOM     30 CL   UNL     1       7.079  12.881  -0.166  0.00  0.00    -0.084 Cl
ENDBRANCH  22  24
ENDBRANCH  19  20
ENDBRANCH  18  19
ENDBRANCH   4  18
TORSDOF 5
