REMARK  Name = ZINC15947374
REMARK  6 active torsions:
REMARK  status: ('A' for Active; 'I' for Inactive)
REMARK    1  A    between atoms: C_1  and  C_2
REMARK    2  A    between atoms: C_5  and  C_9
REMARK    3  A    between atoms: C_12  and  C_14
REMARK    4  A    between atoms: N_23  and  C_26
REMARK    5  A    between atoms: C_26  and  C_27
REMARK    6  A    between atoms: C_33  and  O_35
REMARK                            x       y       z     vdW  Elec       q    Type
REMARK                         _______ _______ _______ _____ _____    ______ ____
ROOT
ATOM      1  C   UNL     1       0.102  -7.510  -1.676  0.00  0.00    +0.260 C 
ATOM      2  N   UNL     1      -0.578  -7.143  -2.931  0.00  0.00    -0.311 N 
ATOM      3  C   UNL     1      -1.951  -7.241  -2.932  0.00  0.00    +0.080 A 
ATOM      4  C   UNL     1      -2.633  -8.103  -2.063  0.00  0.00    +0.067 A 
ATOM      5  C   UNL     1      -4.077  -8.085  -2.172  0.00  0.00    -0.027 A 
ATOM      6  C   UNL     1      -4.563  -7.238  -3.111  0.00  0.00    -0.021 A 
ATOM      7  S   UNL     1      -3.128  -6.486  -3.824  0.00  0.00    -0.080 S 
ATOM      8  C   UNL     1      -6.005  -7.020  -3.442  0.00  0.00    -0.035 C 
ATOM      9  N   UNL     1      -6.787  -8.129  -2.867  0.00  0.00    +0.386 N 
ATOM     10  C   UNL     1      -6.430  -8.302  -1.452  0.00  0.00    -0.073 C 
ATOM     11  C   UNL     1      -5.034  -8.921  -1.331  0.00  0.00    +0.018 C 
ATOM     12  C   UNL     1      -1.814  -8.934  -1.143  0.00  0.00    +0.220 C 
ATOM     13  N   UNL     1      -0.550  -8.637  -1.022  0.00  0.00    -0.220 NA
ATOM     14  H   UNL     1      -0.085  -6.850  -3.714  0.00  0.00    +0.149 HD
ATOM     15  H   UNL     1      -6.585  -8.980  -3.370  0.00  0.00    -0.081 HD
ENDROOT
BRANCH   1  19
ATOM     16  C   UNL     1       0.060  -4.252  -0.023  0.00  0.00    +0.135 A 
ATOM     17  C   UNL     1       0.071  -5.056   1.073  0.00  0.00    +0.050 A 
ATOM     18  C   UNL     1       0.088  -6.384   0.602  0.00  0.00    +0.049 A 
ATOM     19  C   UNL     1       0.087  -6.325  -0.745  0.00  0.00    +0.148 A 
ATOM     20  O   UNL     1       0.064  -5.035  -1.118  0.00  0.00    -0.456 OA
BRANCH  16  25
ATOM     21  C   UNL     1      -0.018   1.503   0.010  0.00  0.00    +0.045 C 
ATOM     22  C   UNL     1       0.002  -0.004   0.002  0.00  0.00    -0.032 A 
ATOM     23  C   UNL     1       0.006  -0.686  -1.202  0.00  0.00    +0.005 A 
ATOM     24  C   UNL     1       0.024  -2.066  -1.217  0.00  0.00    +0.012 A 
ATOM     25  C   UNL     1       0.040  -2.774  -0.014  0.00  0.00    +0.019 A 
ATOM     26  C   UNL     1       0.037  -2.081   1.198  0.00  0.00    +0.031 A 
ATOM     27  C   UNL     1       0.023  -0.700   1.199  0.00  0.00    +0.045 A 
ATOM     28 CL   UNL     1       0.025   0.165   2.704  0.00  0.00    -0.083 Cl
ENDBRANCH  16  25
ENDBRANCH   1  19
BRANCH  12  29
ATOM     29  O   UNL     1      -2.361  -9.963  -0.455  0.00  0.00    -0.492 OA
ATOM     30  H   UNL     1      -1.736 -10.434   0.112  0.00  0.00    +0.294 HD
ENDBRANCH  12  29
BRANCH   9  31
ATOM     31  C   UNL     1      -8.220  -7.826  -2.976  0.00  0.00    -0.043 C 
BRANCH  31  32
ATOM     32  C   UNL     1      -8.613  -7.773  -4.430  0.00  0.00    -0.064 A 
ATOM     33  C   UNL     1      -8.538  -6.579  -5.123  0.00  0.00    +0.002 A 
ATOM     34  C   UNL     1      -8.898  -6.531  -6.457  0.00  0.00    +0.000 A 
ATOM     35  C   UNL     1      -9.333  -7.676  -7.097  0.00  0.00    +0.000 A 
ATOM     36  C   UNL     1      -9.408  -8.870  -6.404  0.00  0.00    +0.000 A 
ATOM     37  C   UNL     1      -9.043  -8.919  -5.072  0.00  0.00    +0.002 A 
ENDBRANCH  31  32
ENDBRANCH   9  31
TORSDOF 5
