REMARK  Name = ZINC00869168
REMARK  7 active torsions:
REMARK  status: ('A' for Active; 'I' for Inactive)
REMARK    1  A    between atoms: C_1  and  C_2
REMARK    2  A    between atoms: C_2  and  O_3
REMARK    3  A    between atoms: O_3  and  C_4
REMARK    4  A    between atoms: C_6  and  C_11
REMARK    5  A    between atoms: C_9  and  O_10
REMARK    6  A    between atoms: N_15  and  C_22
REMARK    7  A    between atoms: N_18  and  C_21
REMARK                            x       y       z     vdW  Elec       q    Type
REMARK                         _______ _______ _______ _____ _____    ______ ____
ROOT
ATOM      1  C   UNL     1      -1.350   2.110   0.020  0.00  0.00    +0.093 C 
ATOM      2  C   UNL     1      -0.017   1.406   0.010  0.00  0.00    +0.067 A 
ATOM      3  C   UNL     1       1.165   2.079   0.002  0.00  0.00    +0.116 A 
ATOM      4  N   UNL     1       2.346   1.371  -0.022  0.00  0.00    -0.284 N 
ATOM      5  C   UNL     1       2.338   0.026  -0.031  0.00  0.00    +0.333 A 
ATOM      6  O   UNL     1       3.392  -0.580  -0.051  0.00  0.00    -0.246 OA
ATOM      7  N   UNL     1       1.179  -0.657  -0.017  0.00  0.00    -0.264 N 
ATOM      8  C   UNL     1       0.002  -0.004   0.002  0.00  0.00    +0.262 A 
ATOM      9  O   UNL     1      -1.044  -0.630   0.012  0.00  0.00    -0.267 OA
ATOM     10  C   UNL     1       1.198  -2.122  -0.023  0.00  0.00    +0.157 C 
ATOM     11  C   UNL     1       3.623   2.089  -0.040  0.00  0.00    +0.155 C 
ATOM     12  N   UNL     1       1.226   3.456   0.024  0.00  0.00    -0.299 N 
ATOM     13  C   UNL     1       0.089   4.159   0.351  0.00  0.00    +0.048 C 
ATOM     14  C   UNL     1      -1.147   3.563   0.364  0.00  0.00    +0.034 C 
ATOM     15  C   UNL     1      -2.127   4.510   0.734  0.00  0.00    +0.193 C 
ATOM     16  O   UNL     1      -3.321   4.306   0.841  0.00  0.00    -0.287 OA
ATOM     17  C   UNL     1      -1.436   5.797   0.968  0.00  0.00    +0.031 A 
ATOM     18  C   UNL     1      -0.057   5.569   0.726  0.00  0.00    +0.007 A 
ATOM     19  C   UNL     1       0.869   6.591   0.861  0.00  0.00    +0.010 A 
ATOM     20  C   UNL     1       0.379   7.844   1.244  0.00  0.00    +0.001 A 
ATOM     21  C   UNL     1      -0.958   8.061   1.478  0.00  0.00    +0.001 A 
ATOM     22  C   UNL     1      -1.906   7.040   1.345  0.00  0.00    +0.012 A 
ATOM     23  H   UNL     1       2.052   3.919  -0.186  0.00  0.00    +0.154 HD
ENDROOT
BRANCH   1  26
ATOM     24  C   UNL     1      -3.803   1.275  -2.729  0.00  0.00    +0.162 A 
ATOM     25  C   UNL     1      -3.215   1.378  -1.479  0.00  0.00    +0.054 A 
ATOM     26  C   UNL     1      -1.988   1.998  -1.341  0.00  0.00    -0.031 A 
ATOM     27  C   UNL     1      -1.346   2.522  -2.448  0.00  0.00    +0.008 A 
ATOM     28  C   UNL     1      -1.924   2.417  -3.699  0.00  0.00    +0.049 A 
ATOM     29  C   UNL     1      -3.154   1.797  -3.845  0.00  0.00    +0.158 A 
BRANCH  29  30
ATOM     30  O   UNL     1      -3.727   1.698  -5.074  0.00  0.00    -0.503 OA
ATOM     31  H   UNL     1      -4.298   2.444  -5.303  0.00  0.00    +0.292 HD
ENDBRANCH  29  30
BRANCH  24  32
ATOM     32  O   UNL     1      -5.010   0.664  -2.867  0.00  0.00    -0.489 OA
BRANCH  32  34
ATOM     33  C   UNL     1      -6.959  -0.495  -2.030  0.00  0.00    +0.048 C 
ATOM     34  C   UNL     1      -5.617   0.151  -1.679  0.00  0.00    +0.226 C 
ENDBRANCH  32  34
ENDBRANCH  24  32
ENDBRANCH   1  26
TORSDOF 4
