REMARK  Name = ZINC21224579
REMARK  7 active torsions:
REMARK  status: ('A' for Active; 'I' for Inactive)
REMARK    1  A    between atoms: C_1  and  C_2
REMARK    2  A    between atoms: C_5  and  C_8
REMARK    3  A    between atoms: C_13  and  C_18
REMARK    4  A    between atoms: C_21  and  O_24
REMARK    5  A    between atoms: O_24  and  C_25
REMARK    6  A    between atoms: C_25  and  C_26
REMARK    7  A    between atoms: C_25  and  C_27
REMARK                            x       y       z     vdW  Elec       q    Type
REMARK                         _______ _______ _______ _____ _____    ______ ____
ROOT
ATOM      1  C   UNL     1      -2.708   2.947   4.766  0.00  0.00    +0.136 C 
ATOM      2  C   UNL     1      -3.367   1.766   5.438  0.00  0.00    +0.036 C 
ATOM      3  C   UNL     1      -4.687   1.536   5.511  0.00  0.00    +0.017 C 
ATOM      4  C   UNL     1      -5.213   0.280   6.188  0.00  0.00    +0.059 C 
ATOM      5  C   UNL     1      -4.292  -0.113   7.341  0.00  0.00    +0.032 C 
ATOM      6  C   UNL     1      -2.897  -0.369   6.759  0.00  0.00    +0.088 C 
ATOM      7  C   UNL     1      -2.451   0.860   6.025  0.00  0.00    +0.163 C 
ATOM      8  O   UNL     1      -1.261   1.087   5.932  0.00  0.00    -0.292 OA
ATOM      9  N   UNL     1      -5.647   2.350   5.003  0.00  0.00    -0.316 N 
ATOM     10  C   UNL     1      -5.623   2.902   3.727  0.00  0.00    +0.052 A 
ATOM     11  C   UNL     1      -6.596   2.621   2.783  0.00  0.00    +0.025 A 
ATOM     12  C   UNL     1      -6.576   3.287   1.569  0.00  0.00    +0.002 A 
ATOM     13  C   UNL     1      -5.593   4.222   1.303  0.00  0.00    +0.002 A 
ATOM     14  C   UNL     1      -4.607   4.488   2.237  0.00  0.00    +0.025 A 
ATOM     15  C   UNL     1      -4.614   3.811   3.446  0.00  0.00    +0.049 A 
ATOM     16  N   UNL     1      -3.618   4.012   4.399  0.00  0.00    -0.331 N 
ATOM     17  H   UNL     1      -6.523   2.616   5.613  0.00  0.00    +0.152 HD
ATOM     18  H   UNL     1      -3.529   4.999   4.876  0.00  0.00    +0.147 HD
ENDROOT
BRANCH   1  23
ATOM     19  C   UNL     1      -0.043   1.085  -0.011  0.00  0.00    +0.044 C 
ATOM     20  C   UNL     1      -0.738   1.571   1.234  0.00  0.00    -0.050 A 
ATOM     21  C   UNL     1      -2.116   1.520   1.321  0.00  0.00    +0.004 A 
ATOM     22  C   UNL     1      -2.753   1.961   2.466  0.00  0.00    +0.006 A 
ATOM     23  C   UNL     1      -2.013   2.462   3.520  0.00  0.00    -0.023 A 
ATOM     24  C   UNL     1      -0.634   2.518   3.431  0.00  0.00    +0.006 A 
ATOM     25  C   UNL     1       0.003   2.072   2.288  0.00  0.00    +0.004 A 
ENDBRANCH   1  23
BRANCH   5  26
ATOM     26  C   UNL     1      -4.808  -1.364   8.003  0.00  0.00    -0.043 A 
ATOM     27  C   UNL     1      -4.940  -2.529   7.270  0.00  0.00    +0.007 A 
ATOM     28  C   UNL     1      -5.408  -3.679   7.876  0.00  0.00    +0.046 A 
ATOM     29  C   UNL     1      -5.755  -3.662   9.219  0.00  0.00    +0.121 A 
ATOM     30  C   UNL     1      -5.627  -2.490   9.951  0.00  0.00    +0.046 A 
ATOM     31  C   UNL     1      -5.154  -1.345   9.342  0.00  0.00    +0.007 A 
BRANCH  29  32
ATOM     32  O   UNL     1      -6.221  -4.790   9.816  0.00  0.00    -0.489 OA
BRANCH  32  33
ATOM     33  C   UNL     1      -6.672  -4.671  11.166  0.00  0.00    +0.167 C 
ATOM     34  C   UNL     1      -7.685  -5.777  11.466  0.00  0.00    +0.051 C 
ATOM     35  C   UNL     1      -5.479  -4.801  12.116  0.00  0.00    +0.051 C 
ENDBRANCH  32  33
ENDBRANCH  29  32
ENDBRANCH   5  26
TORSDOF 4
