REMARK  Name = ZINC05055577
REMARK  6 active torsions:
REMARK  status: ('A' for Active; 'I' for Inactive)
REMARK    1  A    between atoms: C_1  and  C_2
REMARK    2  A    between atoms: C_9  and  N_15
REMARK    3  A    between atoms: C_10  and  C_11
REMARK    4  A    between atoms: N_13  and  C_14
REMARK    5  A    between atoms: C_16  and  C_18
REMARK    6  A    between atoms: C_18  and  N_19
REMARK                            x       y       z     vdW  Elec       q    Type
REMARK                         _______ _______ _______ _____ _____    ______ ____
ROOT
ATOM      1  N   UNL     1       4.524   0.944  -4.493  0.00  0.00    -0.278 N 
ATOM      2  C   UNL     1       5.815   1.149  -4.164  0.00  0.00    +0.235 C 
ATOM      3  O   UNL     1       6.111   1.433  -3.022  0.00  0.00    -0.274 OA
ATOM      4  H   UNL     1       4.287   0.717  -5.406  0.00  0.00    +0.155 HD
ENDROOT
BRANCH   1  12
ATOM      5  C   UNL     1      -0.734   1.582   1.262  0.00  0.00    +0.008 C 
ATOM      6  C   UNL     1      -0.013   1.086   0.008  0.00  0.00    -0.009 C 
ATOM      7  C   UNL     1      -0.738   1.596  -1.241  0.00  0.00    +0.008 C 
ATOM      8  C   UNL     1      -0.177   0.907  -2.486  0.00  0.00    +0.037 C 
ATOM      9  C   UNL     1       1.339   1.061  -2.490  0.00  0.00    -0.023 A 
ATOM     10  C   UNL     1       2.009   1.379  -1.361  0.00  0.00    -0.004 A 
ATOM     11  S   UNL     1       3.710   1.446  -1.849  0.00  0.00    -0.077 S 
ATOM     12  C   UNL     1       3.535   1.056  -3.528  0.00  0.00    +0.084 A 
ATOM     13  C   UNL     1       2.166   0.884  -3.672  0.00  0.00    +0.069 A 
ATOM     14  C   UNL     1       1.427   1.620  -0.003  0.00  0.00    +0.046 C 
BRANCH  13  15
ATOM     15  C   UNL     1       1.576   0.537  -4.968  0.00  0.00    +0.246 C 
ATOM     16  O   UNL     1       1.435  -0.632  -5.279  0.00  0.00    -0.270 OA
ATOM     17  N   UNL     1       1.188   1.511  -5.815  0.00  0.00    -0.314 N 
ATOM     18  C   UNL     1       0.598   1.164  -7.110  0.00  0.00    +0.128 C 
ATOM     19  H   UNL     1       1.300   2.442  -5.567  0.00  0.00    +0.149 HD
ENDBRANCH  13  15
ENDBRANCH   1  12
BRANCH   2  20
ATOM     20  C   UNL     1       6.889   1.027  -5.213  0.00  0.00    +0.213 C 
BRANCH  20  21
ATOM     21  N   UNL     1       8.196   1.295  -4.607  0.00  0.00    -0.225 N 
ATOM     22  C   UNL     1       8.767   2.511  -4.537  0.00  0.00    +0.254 C 
ATOM     23  O   UNL     1       8.288   3.545  -4.959  0.00  0.00    -0.270 OA
ATOM     24  C   UNL     1      10.073   2.380  -3.858  0.00  0.00    +0.049 A 
ATOM     25  C   UNL     1      11.078   3.269  -3.511  0.00  0.00    +0.014 A 
ATOM     26  C   UNL     1      12.213   2.806  -2.866  0.00  0.00    +0.001 A 
ATOM     27  C   UNL     1      12.351   1.463  -2.568  0.00  0.00    +0.001 A 
ATOM     28  C   UNL     1      11.355   0.562  -2.909  0.00  0.00    +0.014 A 
ATOM     29  C   UNL     1      10.214   1.011  -3.554  0.00  0.00    +0.049 A 
ATOM     30  C   UNL     1       8.986   0.357  -4.054  0.00  0.00    +0.254 C 
ATOM     31  O   UNL     1       8.732  -0.828  -3.978  0.00  0.00    -0.270 OA
ENDBRANCH  20  21
ENDBRANCH   2  20
TORSDOF 4
