REMARK  Name = ZINC62057422
REMARK  6 active torsions:
REMARK  status: ('A' for Active; 'I' for Inactive)
REMARK    1  A    between atoms: C_1  and  C_2
REMARK    2  A    between atoms: C_9  and  C_19
REMARK    3  A    between atoms: N_10  and  C_11
REMARK    4  A    between atoms: C_11  and  C_12
REMARK    5  A    between atoms: C_15  and  C_18
REMARK    6  A    between atoms: C_19  and  C_21
REMARK                            x       y       z     vdW  Elec       q    Type
REMARK                         _______ _______ _______ _____ _____    ______ ____
ROOT
ATOM      1  C   UNL     1      -0.018   1.503   0.010  0.00  0.00    +0.044 C 
ATOM      2  C   UNL     1       0.002  -0.004   0.002  0.00  0.00    -0.048 A 
ATOM      3  C   UNL     1       0.006  -0.684  -1.208  0.00  0.00    +0.005 A 
ATOM      4  C   UNL     1       0.024  -2.062  -1.234  0.00  0.00    +0.028 A 
ATOM      5  C   UNL     1       0.040  -2.773  -0.042  0.00  0.00    +0.069 A 
ATOM      6  C   UNL     1       0.037  -2.084   1.183  0.00  0.00    +0.090 A 
ATOM      7  C   UNL     1       0.023  -0.686   1.185  0.00  0.00    +0.033 A 
ATOM      8  N   UNL     1       0.054  -3.022   2.165  0.00  0.00    -0.231 NA
ATOM      9  C   UNL     1       0.068  -4.210   1.634  0.00  0.00    +0.129 A 
ATOM     10  N   UNL     1       0.060  -4.116   0.277  0.00  0.00    -0.322 N 
ENDROOT
BRANCH   9  11
ATOM     11  C   UNL     1       0.090  -5.501   2.410  0.00  0.00    +0.143 C 
ATOM     12  C   UNL     1      -1.297  -5.766   3.000  0.00  0.00    +0.033 C 
ATOM     13 CL   UNL     1       1.297  -5.381   3.744  0.00  0.00    -0.114 Cl
ENDBRANCH   9  11
BRANCH  10  14
ATOM     14  C   UNL     1       0.070  -5.233  -0.670  0.00  0.00    +0.160 C 
BRANCH  14  15
ATOM     15  C   UNL     1       1.494  -5.597  -1.003  0.00  0.00    -0.010 A 
ATOM     16  C   UNL     1       2.144  -4.989  -2.066  0.00  0.00    +0.008 A 
ATOM     17  C   UNL     1       3.454  -5.355  -2.335  0.00  0.00    +0.023 A 
ATOM     18  C   UNL     1       4.064  -6.307  -1.540  0.00  0.00    +0.038 A 
ATOM     19  N   UNL     1       3.415  -6.865  -0.537  0.00  0.00    -0.260 NA
ATOM     20  C   UNL     1       2.170  -6.537  -0.248  0.00  0.00    +0.116 A 
ATOM     21  C   UNL     1       5.487  -6.713  -1.824  0.00  0.00    +0.065 C 
ENDBRANCH  14  15
ENDBRANCH  10  14
TORSDOF 3
