REMARK  Name = ZINC66952866
REMARK  5 active torsions:
REMARK  status: ('A' for Active; 'I' for Inactive)
REMARK    1  A    between atoms: C_10  and  C_11
REMARK    2  A    between atoms: C_10  and  O_28
REMARK    3  A    between atoms: C_11  and  N_12
REMARK    4  A    between atoms: N_15  and  C_16
REMARK    5  A    between atoms: C_21  and  N_22
REMARK                            x       y       z     vdW  Elec       q    Type
REMARK                         _______ _______ _______ _____ _____    ______ ____
ROOT
ATOM      1  N   UNL     1       4.824   1.448   0.491  0.00  0.00    -0.296 N 
ATOM      2  C   UNL     1       5.705   2.253   1.117  0.00  0.00    +0.304 C 
ATOM      3  O   UNL     1       6.373   1.824   2.038  0.00  0.00    -0.253 OA
ATOM      4  N   UNL     1       5.846   3.534   0.723  0.00  0.00    -0.268 N 
ATOM      5  H   UNL     1       4.291   1.791  -0.244  0.00  0.00    +0.150 HD
ATOM      6  H   UNL     1       5.269   3.896   0.032  0.00  0.00    +0.156 HD
ENDROOT
BRANCH   4   7
ATOM      7  C   UNL     1       6.827   4.345   1.311  0.00  0.00    +0.056 A 
ATOM      8  C   UNL     1       7.145   4.189   2.652  0.00  0.00    +0.025 A 
ATOM      9  C   UNL     1       8.113   4.989   3.230  0.00  0.00    +0.002 A 
ATOM     10  C   UNL     1       8.765   5.947   2.475  0.00  0.00    +0.002 A 
ATOM     11  C   UNL     1       8.453   6.109   1.138  0.00  0.00    +0.025 A 
ATOM     12  C   UNL     1       7.488   5.306   0.549  0.00  0.00    +0.061 A 
BRANCH  12  13
ATOM     13  N   UNL     1       7.175   5.465  -0.808  0.00  0.00    -0.232 N 
ATOM     14  C   UNL     1       6.150   6.370  -1.364  0.00  0.00    +0.158 C 
ATOM     15  C   UNL     1       6.520   6.400  -2.866  0.00  0.00    +0.253 C 
ATOM     16  O   UNL     1       7.225   5.153  -3.027  0.00  0.00    -0.448 OA
ATOM     17  C   UNL     1       7.759   4.824  -1.838  0.00  0.00    +0.407 C 
ATOM     18  O   UNL     1       8.669   4.030  -1.707  0.00  0.00    -0.226 OA
ENDBRANCH  12  13
ENDBRANCH   4   7
BRANCH   1  19
ATOM     19  C   UNL     1       4.671   0.056   0.919  0.00  0.00    +0.145 C 
BRANCH  19  29
ATOM     20  C   UNL     1       3.517  -4.772   1.155  0.00  0.00    +0.000 A 
ATOM     21  C   UNL     1       3.530  -3.763   2.100  0.00  0.00    +0.000 A 
ATOM     22  C   UNL     1       3.595  -2.446   1.695  0.00  0.00    +0.007 A 
ATOM     23  C   UNL     1       3.649  -2.125   0.344  0.00  0.00    -0.011 A 
ATOM     24  C   UNL     1       3.642  -3.130  -0.596  0.00  0.00    -0.041 A 
ATOM     25  C   UNL     1       3.573  -4.455  -0.186  0.00  0.00    +0.004 A 
ATOM     26  C   UNL     1       3.714  -2.856  -2.076  0.00  0.00    +0.035 C 
ATOM     27  C   UNL     1       3.353  -1.401  -2.371  0.00  0.00    +0.008 C 
ATOM     28  C   UNL     1       4.199  -0.499  -1.465  0.00  0.00    +0.041 C 
ATOM     29  C   UNL     1       3.710  -0.666  -0.028  0.00  0.00    +0.107 C 
BRANCH  29  30
ATOM     30  O   UNL     1       2.407  -0.093   0.097  0.00  0.00    -0.382 OA
ATOM     31  H   UNL     1       2.038  -0.147   0.989  0.00  0.00    +0.211 HD
ENDBRANCH  29  30
ENDBRANCH  19  29
ENDBRANCH   1  19
TORSDOF 5
