REMARK  Name = ZINC16667840
REMARK  7 active torsions:
REMARK  status: ('A' for Active; 'I' for Inactive)
REMARK    1  A    between atoms: C_1  and  N_2
REMARK    2  A    between atoms: N_2  and  C_3
REMARK    3  A    between atoms: N_2  and  C_4
REMARK    4  A    between atoms: C_7  and  C_11
REMARK    5  A    between atoms: C_12  and  C_13
REMARK    6  A    between atoms: C_12  and  C_15
REMARK    7  A    between atoms: C_18  and  N_21
REMARK                            x       y       z     vdW  Elec       q    Type
REMARK                         _______ _______ _______ _____ _____    ______ ____
ROOT
ATOM      1  C   UNL     1      -2.496   4.770  -0.082  0.00  0.00    +0.027 C 
ATOM      2  C   UNL     1      -2.633   5.851   0.736  0.00  0.00    +0.059 C 
ENDROOT
BRANCH   1   6
ATOM      3  C   UNL     1       1.370   3.418  -1.176  0.00  0.00    +0.043 A 
ATOM      4  C   UNL     1       1.124   4.782  -1.044  0.00  0.00    +0.025 A 
ATOM      5  C   UNL     1      -0.129   5.225  -0.689  0.00  0.00    +0.010 A 
ATOM      6  C   UNL     1      -1.159   4.302  -0.461  0.00  0.00    -0.023 A 
ATOM      7  C   UNL     1      -0.908   2.931  -0.601  0.00  0.00    +0.025 A 
ATOM      8  C   UNL     1       0.351   2.496  -0.951  0.00  0.00    +0.039 A 
ATOM      9 BR   UNL     1       0.694   0.645  -1.133  0.00  0.00    -0.048 Br
BRANCH   3  11
ATOM     10  C   UNL     1       3.035   3.512  -2.845  0.00  0.00    +0.129 C 
ATOM     11  N   UNL     1       2.640   2.974  -1.536  0.00  0.00    -0.335 N 
ATOM     12  C   UNL     1       3.629   3.318  -0.506  0.00  0.00    +0.129 C 
ENDBRANCH   3  11
ENDBRANCH   1   6
BRANCH   2  13
ATOM     13  C   UNL     1      -1.439   6.455   1.371  0.00  0.00    -0.008 A 
ATOM     14  C   UNL     1      -0.737   5.755   2.352  0.00  0.00    +0.011 A 
ATOM     15  C   UNL     1       0.378   6.321   2.935  0.00  0.00    +0.033 A 
ATOM     16  C   UNL     1       0.793   7.585   2.557  0.00  0.00    +0.126 A 
ATOM     17  C   UNL     1       0.098   8.287   1.589  0.00  0.00    +0.033 A 
ATOM     18  C   UNL     1      -1.015   7.730   0.994  0.00  0.00    +0.011 A 
BRANCH  16  19
ATOM     19  N   UNL     1       1.986   8.190   3.192  0.00  0.00    +0.056 N 
ATOM     20  O   UNL     1       2.354   9.303   2.861  0.00  0.00    -0.126 OA
ATOM     21  O   UNL     1       2.600   7.574   4.045  0.00  0.00    -0.126 OA
ENDBRANCH  16  19
ENDBRANCH   2  13
BRANCH   2  22
ATOM     22  C   UNL     1      -3.931   6.403   0.982  0.00  0.00    +0.100 C 
ATOM     23  N   UNL     1      -4.961   6.840   1.177  0.00  0.00    -0.191 NA
ENDBRANCH   2  22
TORSDOF 5
