REMARK  Name = ZINC25449350
REMARK  7 active torsions:
REMARK  status: ('A' for Active; 'I' for Inactive)
REMARK    1  A    between atoms: C_8  and  C_10
REMARK    2  A    between atoms: C_13  and  C_16
REMARK    3  A    between atoms: C_21  and  C_23
REMARK    4  A    between atoms: C_23  and  N_24
REMARK    5  A    between atoms: C_27  and  C_30
REMARK    6  A    between atoms: C_30  and  C_32
REMARK    7  A    between atoms: C_35  and  O_38
REMARK                            x       y       z     vdW  Elec       q    Type
REMARK                         _______ _______ _______ _____ _____    ______ ____
ROOT
ATOM      1  C   UNL     1     -11.516   3.984   2.546  0.00  0.00    +0.104 C 
ATOM      2  N   UNL     1     -10.464   3.520   1.959  0.00  0.00    -0.178 NA
ATOM      3  N   UNL     1      -9.364   3.368   2.800  0.00  0.00    -0.184 N 
ATOM      4  C   UNL     1      -9.737   3.805   4.155  0.00  0.00    +0.173 C 
ATOM      5  C   UNL     1     -11.210   4.233   4.006  0.00  0.00    +0.093 C 
ATOM      6  C   UNL     1      -8.154   2.901   2.433  0.00  0.00    +0.219 C 
ATOM      7  O   UNL     1      -7.263   2.816   3.251  0.00  0.00    -0.276 OA
ENDROOT
BRANCH   1  15
ATOM      8  C   UNL     1     -16.622   4.852  -0.560  0.00  0.00    +0.001 A 
ATOM      9  C   UNL     1     -17.075   5.287   0.677  0.00  0.00    +0.004 A 
ATOM     10  C   UNL     1     -16.238   5.285   1.774  0.00  0.00    +0.047 A 
ATOM     11  C   UNL     1     -14.928   4.843   1.644  0.00  0.00    +0.136 A 
ATOM     12  C   UNL     1     -14.475   4.402   0.387  0.00  0.00    +0.021 A 
ATOM     13  C   UNL     1     -15.337   4.413  -0.712  0.00  0.00    +0.011 A 
ATOM     14  C   UNL     1     -13.077   4.016   0.582  0.00  0.00    +0.059 A 
ATOM     15  C   UNL     1     -12.806   4.236   1.896  0.00  0.00    +0.152 A 
ATOM     16  O   UNL     1     -13.902   4.726   2.511  0.00  0.00    -0.454 OA
ENDBRANCH   1  15
BRANCH   4  17
ATOM     17  C   UNL     1      -9.608   2.667   5.134  0.00  0.00    +0.128 A 
ATOM     18  C   UNL     1      -9.154   2.762   6.396  0.00  0.00    +0.046 A 
ATOM     19  C   UNL     1      -9.203   1.461   6.949  0.00  0.00    +0.041 A 
ATOM     20  C   UNL     1      -9.684   0.649   5.990  0.00  0.00    +0.195 A 
ATOM     21  O   UNL     1      -9.933   1.386   4.895  0.00  0.00    -0.466 OA
ENDBRANCH   4  17
BRANCH   6  22
ATOM     22  C   UNL     1      -7.909   2.487   1.005  0.00  0.00    +0.021 C 
BRANCH  22  23
ATOM     23  N   UNL     1      -6.575   1.880   0.893  0.00  0.00    +0.385 N 
ATOM     24  C   UNL     1      -6.510   0.613   1.634  0.00  0.00    -0.077 C 
ATOM     25  C   UNL     1      -5.074   0.085   1.617  0.00  0.00    -0.007 C 
ATOM     26  C   UNL     1      -4.630  -0.126   0.168  0.00  0.00    +0.057 C 
ATOM     27  C   UNL     1      -4.753   1.196  -0.594  0.00  0.00    -0.007 C 
ATOM     28  C   UNL     1      -6.198   1.693  -0.513  0.00  0.00    -0.077 C 
ATOM     29  H   UNL     1      -5.849   2.571   1.346  0.00  0.00    -0.081 HD
BRANCH  26  30
ATOM     30  C   UNL     1      -3.196  -0.590   0.143  0.00  0.00    +0.166 C 
ATOM     31  O   UNL     1      -2.455  -0.319   1.064  0.00  0.00    -0.292 OA
BRANCH  30  32
ATOM     32  C   UNL     1      -2.696  -1.370  -0.997  0.00  0.00    +0.018 A 
ATOM     33  C   UNL     1      -1.364  -1.802  -1.022  0.00  0.00    +0.015 A 
ATOM     34  C   UNL     1      -0.904  -2.535  -2.085  0.00  0.00    +0.046 A 
ATOM     35  C   UNL     1      -1.756  -2.845  -3.140  0.00  0.00    +0.117 A 
ATOM     36  C   UNL     1      -3.078  -2.414  -3.123  0.00  0.00    +0.046 A 
ATOM     37  C   UNL     1      -3.548  -1.679  -2.064  0.00  0.00    +0.015 A 
BRANCH  35  38
ATOM     38  O   UNL     1      -1.296  -3.571  -4.189  0.00  0.00    -0.507 OA
ATOM     39  H   UNL     1      -1.968  -3.818  -5.025  0.00  0.00    +0.292 HD
ENDBRANCH  35  38
ENDBRANCH  30  32
ENDBRANCH  26  30
ENDBRANCH  22  23
ENDBRANCH   6  22
TORSDOF 7
