REMARK  Name = ZINC39631120
REMARK  12 active torsions:
REMARK  status: ('A' for Active; 'I' for Inactive)
REMARK    1  A    between atoms: C_1  and  C_2
REMARK    2  A    between atoms: C_5  and  C_8
REMARK    3  A    between atoms: C_12  and  C_21
REMARK    4  A    between atoms: N_23  and  C_24
REMARK    5  A    between atoms: C_24  and  C_26
REMARK    6  A    between atoms: C_24  and  C_27
REMARK    7  A    between atoms: C_27  and  C_28
REMARK    8  A    between atoms: C_28  and  C_29
REMARK    9  A    between atoms: C_29  and  C_30
REMARK   10  A    between atoms: C_30  and  C_31
REMARK   11  A    between atoms: C_30  and  C_32
REMARK   12  A    between atoms: C_30  and  O_33
REMARK                            x       y       z     vdW  Elec       q    Type
REMARK                         _______ _______ _______ _____ _____    ______ ____
ROOT
ATOM      1  C   UNL     1      -1.183  -3.408  -0.738  0.00  0.00    +0.247 C 
ATOM      2  O   UNL     1      -1.268  -4.006  -1.793  0.00  0.00    -0.270 OA
ATOM      3  N   UNL     1      -0.901  -4.080   0.396  0.00  0.00    -0.296 N 
ATOM      4  C   UNL     1      -0.885  -3.556   1.782  0.00  0.00    +0.121 C 
ATOM      5  C   UNL     1      -1.499  -4.689   2.635  0.00  0.00    +0.100 C 
ATOM      6  C   UNL     1      -1.265  -5.968   1.814  0.00  0.00    -0.004 C 
ATOM      7  C   UNL     1      -0.542  -5.511   0.539  0.00  0.00    +0.115 C 
ATOM      8  C   UNL     1      -2.598  -6.616   1.454  0.00  0.00    -0.010 C 
ATOM      9  C   UNL     1      -2.338  -7.916   0.688  0.00  0.00    -0.082 C 
ATOM     10  N   UNL     1      -1.538  -8.825   1.519  0.00  0.00    +0.379 N 
ATOM     11  C   UNL     1      -0.222  -8.232   1.783  0.00  0.00    -0.082 C 
ATOM     12  C   UNL     1      -0.392  -6.946   2.596  0.00  0.00    -0.010 C 
ATOM     13  H   UNL     1      -2.015  -8.986   2.393  0.00  0.00    -0.086 HD
ATOM     14  H   UNL     1      -1.420  -9.703   1.036  0.00  0.00    -0.086 HD
ENDROOT
BRANCH   1  19
ATOM     15  C   UNL     1      -1.992   2.287  -0.583  0.00  0.00    +0.044 C 
ATOM     16  C   UNL     1      -1.780   0.796  -0.624  0.00  0.00    -0.050 A 
ATOM     17  C   UNL     1      -2.164   0.076  -1.741  0.00  0.00    +0.004 A 
ATOM     18  C   UNL     1      -1.973  -1.290  -1.784  0.00  0.00    +0.013 A 
ATOM     19  C   UNL     1      -1.391  -1.945  -0.698  0.00  0.00    +0.037 A 
ATOM     20  C   UNL     1      -1.005  -1.213   0.426  0.00  0.00    +0.013 A 
ATOM     21  C   UNL     1      -1.196   0.153   0.454  0.00  0.00    +0.004 A 
ENDBRANCH   1  19
BRANCH   5  22
ATOM     22  C   UNL     1      -2.974  -4.454   2.836  0.00  0.00    +0.218 C 
ATOM     23  O   UNL     1      -3.599  -3.801   2.028  0.00  0.00    -0.275 OA
ATOM     24  N   UNL     1      -3.597  -4.970   3.913  0.00  0.00    -0.312 N 
ATOM     25  H   UNL     1      -3.085  -5.431   4.596  0.00  0.00    +0.149 HD
BRANCH  24  26
ATOM     26  C   UNL     1      -5.050  -4.835   4.054  0.00  0.00    +0.070 C 
ATOM     27  C   UNL     1      -5.740  -6.019   3.374  0.00  0.00    +0.028 C 
BRANCH  26  28
ATOM     28  C   UNL     1      -5.418  -4.813   5.538  0.00  0.00    +0.022 C 
BRANCH  28  29
ATOM     29  C   UNL     1      -4.836  -3.558   6.190  0.00  0.00    +0.005 C 
BRANCH  29  30
ATOM     30  C   UNL     1      -5.100  -3.596   7.697  0.00  0.00    +0.034 C 
BRANCH  30  31
ATOM     31  C   UNL     1      -4.635  -2.283   8.329  0.00  0.00    +0.061 C 
ATOM     32  C   UNL     1      -4.886  -2.326   9.838  0.00  0.00    +0.041 C 
ATOM     33  C   UNL     1      -3.139  -2.092   8.068  0.00  0.00    +0.041 C 
BRANCH  31  34
ATOM     34  O   UNL     1      -5.361  -1.194   7.756  0.00  0.00    -0.389 OA
ATOM     35  H   UNL     1      -6.318  -1.249   7.884  0.00  0.00    +0.210 HD
ENDBRANCH  31  34
ENDBRANCH  30  31
ENDBRANCH  29  30
ENDBRANCH  28  29
ENDBRANCH  26  28
ENDBRANCH  24  26
ENDBRANCH   5  22
TORSDOF 8
