REMARK  Name = ZINC13571046
REMARK  4 active torsions:
REMARK  status: ('A' for Active; 'I' for Inactive)
REMARK    1  A    between atoms: C_1  and  C_2
REMARK    2  A    between atoms: C_2  and  C_26
REMARK    3  A    between atoms: C_6  and  C_16
REMARK    4  A    between atoms: C_11  and  O_15
REMARK                            x       y       z     vdW  Elec       q    Type
REMARK                         _______ _______ _______ _____ _____    ______ ____
ROOT
ATOM      1  C   UNL     1      -0.001   1.483   0.360  0.00  0.00    +0.031 C 
ATOM      2  C   UNL     1       0.002  -0.004   0.002  0.00  0.00    +0.033 C 
ATOM      3  C   UNL     1       0.612  -0.194  -1.391  0.00  0.00    +0.094 C 
ATOM      4  C   UNL     1       0.716  -1.694  -1.678  0.00  0.00    +0.180 C 
ATOM      5  C   UNL     1       1.433  -1.909  -3.015  0.00  0.00    +0.081 C 
ATOM      6  C   UNL     1       0.680  -1.132  -4.098  0.00  0.00    +0.058 C 
ATOM      7  C   UNL     1      -0.796  -1.425  -3.998  0.00  0.00    +0.002 A 
ATOM      8  C   UNL     1      -1.605  -1.146  -5.088  0.00  0.00    +0.011 A 
ATOM      9  C   UNL     1      -2.961  -1.397  -5.033  0.00  0.00    +0.046 A 
ATOM     10  C   UNL     1      -3.521  -1.929  -3.880  0.00  0.00    +0.120 A 
ATOM     11  C   UNL     1      -2.715  -2.210  -2.790  0.00  0.00    +0.091 A 
ATOM     12  C   UNL     1      -1.349  -1.961  -2.848  0.00  0.00    +0.131 A 
ATOM     13  O   UNL     1      -0.590  -2.262  -1.762  0.00  0.00    -0.468 OA
ATOM     14  N   UNL     1       1.473  -2.341  -0.607  0.00  0.00    -0.289 N 
ATOM     15  C   UNL     1       1.476  -1.850   0.641  0.00  0.00    +0.133 C 
ATOM     16  S   UNL     1       2.374  -2.669   1.847  0.00  0.00    -0.019 S 
ATOM     17  N   UNL     1       0.802  -0.741   0.982  0.00  0.00    -0.321 N 
ATOM     18  C   UNL     1      -1.433  -0.535   0.010  0.00  0.00    +0.031 C 
ATOM     19  H   UNL     1       1.984  -3.143  -0.803  0.00  0.00    +0.151 HD
ATOM     20  H   UNL     1       0.845  -0.421   1.896  0.00  0.00    +0.148 HD
ENDROOT
BRANCH   6  21
ATOM     21  C   UNL     1       1.182  -1.549  -5.456  0.00  0.00    -0.040 A 
ATOM     22  C   UNL     1       1.072  -2.867  -5.859  0.00  0.00    +0.004 A 
ATOM     23  C   UNL     1       1.532  -3.250  -7.105  0.00  0.00    +0.000 A 
ATOM     24  C   UNL     1       2.103  -2.314  -7.948  0.00  0.00    +0.000 A 
ATOM     25  C   UNL     1       2.212  -0.997  -7.545  0.00  0.00    +0.000 A 
ATOM     26  C   UNL     1       1.748  -0.613  -6.301  0.00  0.00    +0.004 A 
ENDBRANCH   6  21
BRANCH  10  27
ATOM     27  O   UNL     1      -4.856  -2.174  -3.822  0.00  0.00    -0.507 OA
ATOM     28  H   UNL     1      -5.107  -3.060  -4.115  0.00  0.00    +0.292 HD
ENDBRANCH  10  27
TORSDOF 2
