REMARK  Name = ZINC04387731
REMARK  5 active torsions:
REMARK  status: ('A' for Active; 'I' for Inactive)
REMARK    1  A    between atoms: C_1  and  C_2
REMARK    2  A    between atoms: C_6  and  O_8
REMARK    3  A    between atoms: O_8  and  C_9
REMARK    4  A    between atoms: C_9  and  C_10
REMARK    5  A    between atoms: C_10  and  C_12
REMARK                            x       y       z     vdW  Elec       q    Type
REMARK                         _______ _______ _______ _____ _____    ______ ____
ROOT
ATOM      1  C   UNL     1       2.029  -6.130  -0.649  0.00  0.00    +0.044 C 
ATOM      2  C   UNL     1       1.822  -4.639  -0.582  0.00  0.00    -0.043 A 
ATOM      3  C   UNL     1       0.596  -4.137  -0.192  0.00  0.00    +0.050 A 
ATOM      4  C   UNL     1       0.394  -2.766  -0.126  0.00  0.00    +0.143 A 
ATOM      5  C   UNL     1       1.446  -1.895  -0.459  0.00  0.00    +0.063 A 
ATOM      6  C   UNL     1       2.688  -2.416  -0.855  0.00  0.00    +0.132 A 
ATOM      7  C   UNL     1       2.863  -3.788  -0.912  0.00  0.00    +0.050 A 
ATOM      8  C   UNL     1       1.224  -0.450  -0.385  0.00  0.00    -0.023 A 
ATOM      9  C   UNL     1       0.002  -0.004   0.002  0.00  0.00    +0.041 A 
ATOM     10  C   UNL     1      -1.010  -0.938   0.321  0.00  0.00    +0.341 A 
ATOM     11  O   UNL     1      -2.104  -0.530   0.668  0.00  0.00    -0.245 OA
ATOM     12  O   UNL     1      -0.799  -2.260   0.253  0.00  0.00    -0.422 OA
ATOM     13  C   UNL     1      -0.018   1.509   0.010  0.00  0.00    +0.043 C 
ATOM     14  C   UNL     1       1.467   1.932  -0.002  0.00  0.00    +0.010 C 
ATOM     15  C   UNL     1       2.142   0.716  -0.673  0.00  0.00    +0.037 C 
ENDROOT
BRANCH   6  16
ATOM     16  O   UNL     1       3.708  -1.582  -1.179  0.00  0.00    -0.487 OA
BRANCH  16  17
ATOM     17  C   UNL     1       4.941  -2.188  -1.572  0.00  0.00    +0.259 C 
BRANCH  17  18
ATOM     18  C   UNL     1       5.949  -1.114  -1.891  0.00  0.00    -0.043 C 
ATOM     19  C   UNL     1       5.617   0.148  -1.784  0.00  0.00    +0.011 C 
ATOM     20  C   UNL     1       7.339  -1.493  -2.334  0.00  0.00    +0.042 C 
ENDBRANCH  17  18
ENDBRANCH  16  17
ENDBRANCH   6  16
TORSDOF 3
