REMARK  Name = ZINC40743441
REMARK  10 active torsions:
REMARK  status: ('A' for Active; 'I' for Inactive)
REMARK    1  A    between atoms: C_1  and  C_2
REMARK    2  A    between atoms: C_2  and  CA_3
REMARK    3  A    between atoms: CA_3  and  C_5
REMARK    4  A    between atoms: CA_3  and  N_7
REMARK    5  A    between atoms: C_5  and  O_6
REMARK    6  A    between atoms: N_7  and  C_8
REMARK    7  A    between atoms: C_8  and  C_9
REMARK    8  A    between atoms: C_14  and  O_15
REMARK    9  A    between atoms: O_15  and  C_16
REMARK   10  A    between atoms: C_16  and  C_17
REMARK                            x       y       z     vdW  Elec       q    Type
REMARK                         _______ _______ _______ _____ _____    ______ ____
ROOT
ATOM      1  C   UNL     1      -4.210  -0.155  -2.452  0.00  0.00    -0.021 A 
ATOM      2  C   UNL     1      -4.978   0.993  -2.496  0.00  0.00    +0.025 A 
ATOM      3  C   UNL     1      -5.613   1.357  -3.670  0.00  0.00    +0.041 A 
ATOM      4  C   UNL     1      -5.480   0.573  -4.802  0.00  0.00    +0.023 A 
ATOM      5  C   UNL     1      -4.713  -0.575  -4.763  0.00  0.00    +0.047 A 
ATOM      6  C   UNL     1      -4.071  -0.938  -3.588  0.00  0.00    +0.122 A 
ATOM      7 CL   UNL     1      -6.578   2.799  -3.722  0.00  0.00    -0.084 Cl
ENDROOT
BRANCH   1   8
ATOM      8  C   UNL     1      -3.518  -0.551  -1.173  0.00  0.00    -0.043 C 
BRANCH   8   9
ATOM      9  N   UNL     1      -2.107  -0.147  -1.234  0.00  0.00    +0.385 N 
ATOM     10  H1  UNL     1      -2.048   0.853  -1.352  0.00  0.00    -0.085 HD
ATOM     11  H2  UNL     1      -1.660  -0.605  -2.014  0.00  0.00    -0.085 HD
BRANCH   9  12
ATOM     12  CA  UNL     1      -1.433  -0.534   0.013  0.00  0.00    -0.046 C 
BRANCH  12  14
ATOM     13  C   UNL     1      -0.019   1.526   0.010  0.00  0.00    +0.002 C 
ATOM     14  C   UNL     1       0.002  -0.004   0.002  0.00  0.00    -0.017 C 
ENDBRANCH  12  14
BRANCH  12  15
ATOM     15  C   UNL     1      -1.413  -2.059   0.130  0.00  0.00    +0.140 C 
BRANCH  15  16
ATOM     16  O   UNL     1      -0.612  -2.607  -0.918  0.00  0.00    -0.397 OA
ATOM     17  H   UNL     1      -0.554  -3.572  -0.906  0.00  0.00    +0.209 HD
ENDBRANCH  15  16
ENDBRANCH  12  15
ENDBRANCH   9  12
ENDBRANCH   8   9
ENDBRANCH   1   8
BRANCH   6  18
ATOM     18  O   UNL     1      -3.310  -2.064  -3.549  0.00  0.00    -0.487 OA
BRANCH  18  19
ATOM     19  C   UNL     1      -3.212  -2.823  -4.756  0.00  0.00    +0.264 C 
BRANCH  19  20
ATOM     20  C   UNL     1      -2.335  -4.026  -4.522  0.00  0.00    -0.009 A 
ATOM     21  C   UNL     1      -0.971  -3.938  -4.732  0.00  0.00    +0.008 A 
ATOM     22  C   UNL     1      -0.166  -5.042  -4.519  0.00  0.00    +0.022 A 
ATOM     23  C   UNL     1      -0.724  -6.234  -4.095  0.00  0.00    +0.059 A 
ATOM     24  C   UNL     1      -2.090  -6.322  -3.885  0.00  0.00    +0.060 A 
ATOM     25  C   UNL     1      -2.894  -5.215  -4.093  0.00  0.00    +0.028 A 
ATOM     26 CL   UNL     1      -2.792  -7.818  -3.353  0.00  0.00    -0.082 Cl
ATOM     27 CL   UNL     1       0.286  -7.620  -3.828  0.00  0.00    -0.082 Cl
ENDBRANCH  19  20
ENDBRANCH  18  19
ENDBRANCH   6  18
TORSDOF 9
