REMARK  Name = ZINC39237859
REMARK  6 active torsions:
REMARK  status: ('A' for Active; 'I' for Inactive)
REMARK    1  A    between atoms: C_7  and  C_10
REMARK    2  A    between atoms: C_10  and  C_11
REMARK    3  A    between atoms: C_11  and  N_12
REMARK    4  A    between atoms: C_13  and  C_15
REMARK    5  A    between atoms: C_20  and  C_29
REMARK    6  A    between atoms: C_22  and  C_25
REMARK                            x       y       z     vdW  Elec       q    Type
REMARK                         _______ _______ _______ _____ _____    ______ ____
ROOT
ATOM      1  C   UNL     1      -5.660   7.126  -2.507  0.00  0.00    +0.185 C 
ATOM      2  C   UNL     1      -4.720   8.046  -1.763  0.00  0.00    +0.047 C 
ATOM      3  C   UNL     1      -4.311   8.979  -2.644  0.00  0.00    +0.138 C 
ATOM      4  N   UNL     1      -3.459  10.029  -2.459  0.00  0.00    -0.235 NA
ATOM      5  C   UNL     1      -3.172  10.844  -3.440  0.00  0.00    +0.048 C 
ATOM      6  C   UNL     1      -3.739  10.654  -4.713  0.00  0.00    +0.053 C 
ATOM      7  C   UNL     1      -4.585   9.622  -4.923  0.00  0.00    +0.133 C 
ATOM      8  N   UNL     1      -4.884   8.768  -3.890  0.00  0.00    -0.213 N 
ATOM      9  N   UNL     1      -5.707   7.671  -3.875  0.00  0.00    -0.218 NA
ATOM     10  H   UNL     1      -6.649   7.921  -4.133  0.00  0.00    +0.146 HD
ENDROOT
BRANCH   1  12
ATOM     11  N   UNL     1      -4.962   5.047  -1.362  0.00  0.00    -0.313 N 
ATOM     12  C   UNL     1      -5.120   5.719  -2.519  0.00  0.00    +0.236 C 
ATOM     13  O   UNL     1      -4.826   5.191  -3.571  0.00  0.00    -0.274 OA
ATOM     14  H   UNL     1      -5.197   5.469  -0.520  0.00  0.00    +0.149 HD
BRANCH  11  15
ATOM     15  C   UNL     1      -4.437   3.680  -1.374  0.00  0.00    +0.109 C 
BRANCH  15  16
ATOM     16  C   UNL     1      -4.358   3.151   0.060  0.00  0.00    +0.056 C 
BRANCH  16  23
ATOM     17  C   UNL     1      -0.017   1.384   0.010  0.00  0.00    +0.001 A 
ATOM     18  C   UNL     1       0.002  -0.004   0.002  0.00  0.00    +0.002 A 
ATOM     19  C   UNL     1      -1.173  -0.723   0.009  0.00  0.00    +0.026 A 
ATOM     20  C   UNL     1      -2.392  -0.053   0.024  0.00  0.00    +0.047 A 
ATOM     21  N   UNL     1      -3.704  -0.472   0.034  0.00  0.00    -0.360 N 
ATOM     22  C   UNL     1      -4.539   0.612   0.047  0.00  0.00    +0.087 A 
ATOM     23  C   UNL     1      -3.818   1.744   0.047  0.00  0.00    -0.021 A 
ATOM     24  C   UNL     1      -2.406   1.353   0.032  0.00  0.00    +0.003 A 
ATOM     25  C   UNL     1      -1.203   2.062   0.030  0.00  0.00    +0.010 A 
ATOM     26  H   UNL     1      -3.993  -1.398   0.030  0.00  0.00    +0.165 HD
ENDBRANCH  16  23
ENDBRANCH  15  16
ENDBRANCH  11  15
ENDBRANCH   1  12
BRANCH   7  27
ATOM     27  C   UNL     1      -5.199   9.409  -6.283  0.00  0.00    +0.432 C 
ATOM     28  F   UNL     1      -4.745  10.401  -7.159  0.00  0.00    -0.165 F 
ATOM     29  F   UNL     1      -4.829   8.151  -6.770  0.00  0.00    -0.165 F 
ATOM     30  F   UNL     1      -6.593   9.479  -6.181  0.00  0.00    -0.165 F 
ENDBRANCH   7  27
BRANCH   5  31
ATOM     31  C   UNL     1      -2.228  11.995  -3.206  0.00  0.00    +0.038 C 
ATOM     32  C   UNL     1      -0.783  11.658  -2.833  0.00  0.00    +0.010 C 
ATOM     33  C   UNL     1      -1.734  12.223  -1.776  0.00  0.00    +0.010 C 
ENDBRANCH   5  31
TORSDOF 6
