REMARK  Name = ZINC06937717
REMARK  6 active torsions:
REMARK  status: ('A' for Active; 'I' for Inactive)
REMARK    1  A    between atoms: C_1  and  C_2
REMARK    2  A    between atoms: C_2  and  N_3
REMARK    3  A    between atoms: N_3  and  C_4
REMARK    4  A    between atoms: C_9  and  C_10
REMARK    5  A    between atoms: C_11  and  C_13
REMARK    6  A    between atoms: C_13  and  N_14
REMARK                            x       y       z     vdW  Elec       q    Type
REMARK                         _______ _______ _______ _____ _____    ______ ____
ROOT
ATOM      1  N   UNL     1      -1.600   6.833  -1.265  0.00  0.00    -0.219 N 
ATOM      2  C   UNL     1      -2.793   6.291  -1.581  0.00  0.00    +0.292 A 
ATOM      3  O   UNL     1      -3.787   6.995  -1.669  0.00  0.00    -0.264 OA
ATOM      4  C   UNL     1      -2.882   4.897  -1.812  0.00  0.00    +0.116 A 
ATOM      5  C   UNL     1      -1.723   4.130  -1.702  0.00  0.00    +0.032 A 
ATOM      6  C   UNL     1      -0.502   4.752  -1.368  0.00  0.00    +0.143 A 
ATOM      7  N   UNL     1      -0.455   6.039  -1.162  0.00  0.00    -0.175 NA
ATOM      8  C   UNL     1      -2.112   2.742  -1.991  0.00  0.00    +0.009 A 
ATOM      9  C   UNL     1      -1.413   1.536  -2.039  0.00  0.00    +0.010 A 
ATOM     10  C   UNL     1      -2.073   0.379  -2.346  0.00  0.00    +0.001 A 
ATOM     11  C   UNL     1      -3.435   0.395  -2.610  0.00  0.00    +0.002 A 
ATOM     12  C   UNL     1      -4.144   1.575  -2.567  0.00  0.00    +0.026 A 
ATOM     13  C   UNL     1      -3.492   2.766  -2.257  0.00  0.00    +0.048 A 
ATOM     14  N   UNL     1      -3.930   4.069  -2.149  0.00  0.00    -0.350 N 
ATOM     15  H   UNL     1      -4.844   4.360  -2.289  0.00  0.00    +0.166 HD
ENDROOT
BRANCH   1  16
ATOM     16  C   UNL     1      -1.503   8.275  -1.025  0.00  0.00    +0.243 C 
BRANCH  16  18
ATOM     17  N   UNL     1      -1.699   9.826   0.892  0.00  0.00    -0.270 N 
ATOM     18  C   UNL     1      -1.740   8.559   0.436  0.00  0.00    +0.241 C 
ATOM     19  O   UNL     1      -1.968   7.646   1.201  0.00  0.00    -0.273 OA
BRANCH  17  20
ATOM     20  C   UNL     1      -1.919  10.090   2.248  0.00  0.00    +0.039 A 
ATOM     21  C   UNL     1      -3.214  10.256   2.724  0.00  0.00    +0.024 A 
ATOM     22  C   UNL     1      -3.428  10.511   4.064  0.00  0.00    +0.002 A 
ATOM     23  C   UNL     1      -2.355  10.610   4.931  0.00  0.00    +0.000 A 
ATOM     24  C   UNL     1      -1.065  10.450   4.459  0.00  0.00    +0.005 A 
ATOM     25  C   UNL     1      -0.844  10.190   3.121  0.00  0.00    -0.029 A 
ATOM     26  C   UNL     1       0.562  10.017   2.608  0.00  0.00    +0.045 C 
ENDBRANCH  17  20
BRANCH  17  28
ATOM     27  C   UNL     1      -2.738  11.424  -0.641  0.00  0.00    +0.025 C 
ATOM     28  C   UNL     1      -1.424  10.929  -0.033  0.00  0.00    +0.110 C 
ENDBRANCH  17  28
ENDBRANCH  16  18
ENDBRANCH   1  16
TORSDOF 4
