REMARK  Name = ZINC37368696
REMARK  5 active torsions:
REMARK  status: ('A' for Active; 'I' for Inactive)
REMARK    1  A    between atoms: C_3  and  O_12
REMARK    2  A    between atoms: C_6  and  S_7
REMARK    3  A    between atoms: S_7  and  N_10
REMARK    4  A    between atoms: O_12  and  C_13
REMARK    5  A    between atoms: C_13  and  C_14
REMARK                            x       y       z     vdW  Elec       q    Type
REMARK                         _______ _______ _______ _____ _____    ______ ____
ROOT
ATOM      1  C   UNL     1      -0.017   1.378   0.010  0.00  0.00    +0.032 A 
ATOM      2  C   UNL     1       1.170   2.087   0.002  0.00  0.00    +0.050 A 
ATOM      3  C   UNL     1       2.380   1.412  -0.013  0.00  0.00    +0.156 A 
ATOM      4  C   UNL     1       2.397   0.023  -0.021  0.00  0.00    +0.167 A 
ATOM      5  C   UNL     1       1.208  -0.682  -0.013  0.00  0.00    +0.070 A 
ATOM      6  C   UNL     1       0.002  -0.004   0.002  0.00  0.00    +0.108 A 
ATOM      7  F   UNL     1       3.575  -0.639  -0.036  0.00  0.00    -0.202 F 
ENDROOT
BRANCH   6   8
ATOM      8  S   UNL     1      -1.513  -0.904   0.012  0.00  0.00    +0.056 S 
ATOM      9  O   UNL     1      -1.220  -2.185   0.553  0.00  0.00    -0.153 OA
ATOM     10  O   UNL     1      -2.492  -0.044   0.578  0.00  0.00    -0.153 OA
BRANCH   8  11
ATOM     11  N   UNL     1      -1.949  -1.146  -1.567  0.00  0.00    -0.204 NA
ATOM     12  H   UNL     1      -1.390  -0.805  -2.282  0.00  0.00    +0.144 HD
ATOM     13  H   UNL     1      -2.765  -1.628  -1.776  0.00  0.00    +0.144 HD
ENDBRANCH   8  11
ENDBRANCH   6   8
BRANCH   3  14
ATOM     14  O   UNL     1       3.548   2.108  -0.021  0.00  0.00    -0.484 OA
BRANCH  14  15
ATOM     15  C   UNL     1       3.454   3.534  -0.013  0.00  0.00    +0.267 C 
BRANCH  15  16
ATOM     16  C   UNL     1       4.838   4.129  -0.023  0.00  0.00    +0.026 A 
ATOM     17  C   UNL     1       5.946   3.302  -0.044  0.00  0.00    +0.025 A 
ATOM     18  C   UNL     1       7.217   3.848  -0.054  0.00  0.00    +0.018 A 
ATOM     19  C   UNL     1       7.380   5.221  -0.043  0.00  0.00    +0.018 A 
ATOM     20  C   UNL     1       6.274   6.049  -0.022  0.00  0.00    +0.040 A 
ATOM     21  C   UNL     1       5.001   5.503  -0.018  0.00  0.00    +0.130 A 
ATOM     22  F   UNL     1       3.919   6.312  -0.003  0.00  0.00    -0.205 F 
ATOM     23 BR   UNL     1       8.731   2.716  -0.082  0.00  0.00    -0.050 Br
ENDBRANCH  15  16
ENDBRANCH  14  15
ENDBRANCH   3  14
TORSDOF 5
