REMARK  Name = ZINC40057330
REMARK  3 active torsions:
REMARK  status: ('A' for Active; 'I' for Inactive)
REMARK    1  A    between atoms: C_1  and  C_2
REMARK    2  A    between atoms: C_4  and  C_30
REMARK    3  A    between atoms: C_13  and  C_23
REMARK                            x       y       z     vdW  Elec       q    Type
REMARK                         _______ _______ _______ _____ _____    ______ ____
ROOT
ATOM      1  C   UNL     1      -0.523   1.450   0.038  0.00  0.00    +0.044 C 
ATOM      2  C   UNL     1      -0.237  -0.029   0.015  0.00  0.00    -0.047 A 
ATOM      3  C   UNL     1      -0.233  -0.708  -1.195  0.00  0.00    +0.007 A 
ATOM      4  C   UNL     1       0.028  -2.050  -1.231  0.00  0.00    -0.036 A 
ATOM      5  C   UNL     1       0.290  -2.735  -0.045  0.00  0.00    +0.067 A 
ATOM      6  C   UNL     1       0.283  -2.060   1.186  0.00  0.00    +0.140 A 
ATOM      7  C   UNL     1       0.022  -0.690   1.195  0.00  0.00    +0.050 A 
ATOM      8  O   UNL     1       0.519  -2.692   2.358  0.00  0.00    -0.450 OA
ATOM      9  C   UNL     1       1.001  -3.950   2.351  0.00  0.00    +0.199 A 
ATOM     10  C   UNL     1       1.051  -4.714   1.220  0.00  0.00    +0.072 A 
ATOM     11  C   UNL     1       0.583  -4.191  -0.067  0.00  0.00    +0.199 A 
ATOM     12  O   UNL     1       0.446  -4.884  -1.060  0.00  0.00    -0.287 OA
ATOM     13  C   UNL     1       1.631  -6.040   1.590  0.00  0.00    +0.151 C 
ATOM     14  N   UNL     1       1.915  -5.964   3.033  0.00  0.00    -0.232 N 
ATOM     15  C   UNL     1       1.545  -4.742   3.467  0.00  0.00    +0.289 C 
ATOM     16  O   UNL     1       1.646  -4.351   4.614  0.00  0.00    -0.266 OA
ATOM     17  C   UNL     1       2.467  -6.973   3.810  0.00  0.00    +0.168 A 
ATOM     18  N   UNL     1       2.849  -8.176   3.437  0.00  0.00    -0.233 NA
ATOM     19  C   UNL     1       3.360  -9.029   4.304  0.00  0.00    +0.120 A 
ATOM     20  C   UNL     1       3.471  -8.609   5.589  0.00  0.00    +0.068 A 
ATOM     21  S   UNL     1       2.816  -6.953   5.456  0.00  0.00    -0.060 S 
ATOM     22  C   UNL     1       0.032  -2.784  -2.547  0.00  0.00    +0.044 C 
ENDROOT
BRANCH  13  23
ATOM     23  C   UNL     1       0.638  -7.138   1.312  0.00  0.00    -0.021 A 
ATOM     24  C   UNL     1      -0.391  -7.382   2.202  0.00  0.00    +0.006 A 
ATOM     25  C   UNL     1      -1.303  -8.389   1.947  0.00  0.00    +0.001 A 
ATOM     26  C   UNL     1      -1.186  -9.153   0.801  0.00  0.00    +0.015 A 
ATOM     27  C   UNL     1      -0.157  -8.910  -0.090  0.00  0.00    +0.018 A 
ATOM     28  C   UNL     1       0.752  -7.898   0.163  0.00  0.00    +0.021 A 
ATOM     29 BR   UNL     1       0.004  -9.955  -1.658  0.00  0.00    -0.050 Br
ENDBRANCH  13  23
TORSDOF 1
