REMARK  Name = ZINC12899816
REMARK  5 active torsions:
REMARK  status: ('A' for Active; 'I' for Inactive)
REMARK    1  A    between atoms: C_1  and  C_2
REMARK    2  A    between atoms: C_2  and  C_3
REMARK    3  A    between atoms: C_2  and  C_4
REMARK    4  A    between atoms: C_4  and  C_5
REMARK    5  A    between atoms: N_13  and  C_16
REMARK                            x       y       z     vdW  Elec       q    Type
REMARK                         _______ _______ _______ _____ _____    ______ ____
ROOT
ATOM      1  C   UNL     1       0.167   7.430   0.812  0.00  0.00    -0.057 C 
ATOM      2  C   UNL     1       0.535   7.435  -0.687  0.00  0.00    +0.073 C 
ATOM      3  C   UNL     1       0.144   6.019  -1.196  0.00  0.00    +0.087 C 
ATOM      4  C   UNL     1      -0.976   6.298  -2.173  0.00  0.00    +0.229 C 
ATOM      5  O   UNL     1      -1.580   5.457  -2.805  0.00  0.00    -0.275 OA
ATOM      6  N   UNL     1      -1.197   7.616  -2.232  0.00  0.00    -0.210 N 
ATOM      7  C   UNL     1      -0.405   8.348  -1.441  0.00  0.00    +0.228 C 
ATOM      8  O   UNL     1      -0.436   9.556  -1.343  0.00  0.00    -0.275 OA
ATOM      9  C   UNL     1      -0.412   5.303   0.040  0.00  0.00    +0.032 C 
ATOM     10  C   UNL     1      -0.055   3.845   0.040  0.00  0.00    -0.026 A 
ATOM     11  C   UNL     1       1.144   3.165   0.027  0.00  0.00    +0.005 A 
ATOM     12  C   UNL     1       1.155   1.782   0.028  0.00  0.00    +0.000 A 
ATOM     13  C   UNL     1      -0.038   1.084   0.044  0.00  0.00    +0.002 A 
ATOM     14  C   UNL     1      -1.240   1.760   0.053  0.00  0.00    +0.026 A 
ATOM     15  C   UNL     1      -1.259   3.153   0.057  0.00  0.00    +0.053 A 
ATOM     16  N   UNL     1      -2.342   4.046   0.070  0.00  0.00    -0.265 N 
ATOM     17  C   UNL     1      -1.920   5.343   0.062  0.00  0.00    +0.112 A 
ATOM     18  N   UNL     1      -2.738   6.356   0.071  0.00  0.00    -0.234 NA
ATOM     19  C   UNL     1      -4.082   6.198   0.087  0.00  0.00    +0.078 A 
ATOM     20  C   UNL     1      -4.952   7.290   0.095  0.00  0.00    +0.028 A 
ATOM     21  C   UNL     1      -6.313   7.078   0.109  0.00  0.00    +0.002 A 
ATOM     22  C   UNL     1      -6.832   5.790   0.115  0.00  0.00    +0.001 A 
ATOM     23  C   UNL     1      -5.994   4.697   0.109  0.00  0.00    +0.015 A 
ATOM     24  C   UNL     1      -4.614   4.889   0.095  0.00  0.00    +0.065 A 
ATOM     25  C   UNL     1      -3.671   3.764   0.088  0.00  0.00    +0.266 A 
ATOM     26  O   UNL     1      -4.068   2.613   0.097  0.00  0.00    -0.267 OA
ATOM     27  N   UNL     1       0.147   6.017   1.176  0.00  0.00    +0.393 N 
ATOM     28  H   UNL     1      -0.437   5.873   2.007  0.00  0.00    -0.084 HD
ATOM     29  H   UNL     1       1.101   5.687   1.366  0.00  0.00    -0.084 HD
ENDROOT
BRANCH   6  30
ATOM     30  C   UNL     1      -2.179   8.184  -3.057  0.00  0.00    +0.044 A 
ATOM     31  C   UNL     1      -2.059   8.103  -4.437  0.00  0.00    +0.024 A 
ATOM     32  C   UNL     1      -3.031   8.659  -5.247  0.00  0.00    +0.002 A 
ATOM     33  C   UNL     1      -4.115   9.306  -4.684  0.00  0.00    +0.000 A 
ATOM     34  C   UNL     1      -4.234   9.393  -3.309  0.00  0.00    +0.002 A 
ATOM     35  C   UNL     1      -3.269   8.834  -2.494  0.00  0.00    +0.024 A 
ENDBRANCH   6  30
BRANCH   1  36
ATOM     36  C   UNL     1       1.204   8.217   1.617  0.00  0.00    -0.012 C 
BRANCH  36  38
ATOM     37  C   UNL     1       1.849   8.982   3.906  0.00  0.00    +0.007 C 
ATOM     38  C   UNL     1       0.755   8.305   3.077  0.00  0.00    -0.019 C 
ATOM     39  C   UNL     1      -0.533   9.126   3.166  0.00  0.00    +0.007 C 
ENDBRANCH  36  38
ENDBRANCH   1  36
TORSDOF 3
