REMARK  Name = ZINC62174014
REMARK  7 active torsions:
REMARK  status: ('A' for Active; 'I' for Inactive)
REMARK    1  A    between atoms: C_1  and  C_2
REMARK    2  A    between atoms: C_7  and  C_8
REMARK    3  A    between atoms: C_11  and  N_16
REMARK    4  A    between atoms: C_13  and  O_15
REMARK    5  A    between atoms: C_21  and  C_23
REMARK    6  A    between atoms: C_23  and  C_24
REMARK    7  A    between atoms: C_24  and  O_25
REMARK                            x       y       z     vdW  Elec       q    Type
REMARK                         _______ _______ _______ _____ _____    ______ ____
ROOT
ATOM      1  C   UNL     1       0.662   0.557   1.476  0.00  0.00    +0.044 C 
ATOM      2  C   UNL     1       0.634  -0.907   1.122  0.00  0.00    -0.047 A 
ATOM      3  C   UNL     1       0.462  -1.297  -0.192  0.00  0.00    +0.013 A 
ATOM      4  C   UNL     1       0.437  -2.641  -0.524  0.00  0.00    +0.021 A 
ATOM      5  C   UNL     1       0.586  -3.598   0.464  0.00  0.00    +0.126 A 
ATOM      6  C   UNL     1       0.756  -3.202   1.787  0.00  0.00    +0.049 A 
ATOM      7  C   UNL     1       0.785  -1.861   2.112  0.00  0.00    -0.044 A 
ATOM      8  C   UNL     1       0.977  -1.436   3.545  0.00  0.00    +0.044 C 
ATOM      9  O   UNL     1       0.579  -4.927   0.181  0.00  0.00    -0.493 OA
ATOM     10  C   UNL     1       0.046  -5.338  -1.078  0.00  0.00    +0.217 C 
ATOM     11  C   UNL     1       0.683  -4.479  -2.178  0.00  0.00    +0.004 C 
ATOM     12  C   UNL     1       0.243  -3.027  -1.969  0.00  0.00    +0.138 C 
ENDROOT
BRANCH  11  13
ATOM     13  N   UNL     1       0.235  -4.948  -3.495  0.00  0.00    +0.388 N 
ATOM     14  C   UNL     1      -1.211  -4.729  -3.626  0.00  0.00    -0.078 C 
ATOM     15  C   UNL     1      -1.697  -5.290  -4.964  0.00  0.00    -0.019 C 
ATOM     16  C   UNL     1      -0.966  -4.577  -6.106  0.00  0.00    -0.003 C 
ATOM     17  C   UNL     1       0.544  -4.750  -5.918  0.00  0.00    -0.015 C 
ATOM     18  C   UNL     1       0.947  -4.210  -4.545  0.00  0.00    -0.066 C 
ATOM     19  H   UNL     1       0.433  -5.933  -3.586  0.00  0.00    -0.081 HD
BRANCH  18  20
ATOM     20  C   UNL     1       2.456  -4.380  -4.353  0.00  0.00    +0.012 C 
BRANCH  20  21
ATOM     21  C   UNL     1       3.200  -3.551  -5.402  0.00  0.00    +0.154 C 
BRANCH  21  22
ATOM     22  O   UNL     1       4.605  -3.613  -5.148  0.00  0.00    -0.395 OA
ATOM     23  H   UNL     1       5.141  -3.110  -5.777  0.00  0.00    +0.209 HD
ENDBRANCH  21  22
ENDBRANCH  20  21
ENDBRANCH  18  20
ENDBRANCH  11  13
BRANCH  12  24
ATOM     24  O   UNL     1       1.026  -2.169  -2.800  0.00  0.00    -0.389 OA
ATOM     25  H   UNL     1       0.799  -1.232  -2.722  0.00  0.00    +0.210 HD
ENDBRANCH  12  24
TORSDOF 5
