REMARK  Name = ZINC41834266
REMARK  8 active torsions:
REMARK  status: ('A' for Active; 'I' for Inactive)
REMARK    1  A    between atoms: C_1  and  C_2
REMARK    2  A    between atoms: C_2  and  C_3
REMARK    3  A    between atoms: C_2  and  C_10
REMARK    4  A    between atoms: C_2  and  N_13
REMARK    5  A    between atoms: N_13  and  C_14
REMARK    6  A    between atoms: C_14  and  C_15
REMARK    7  A    between atoms: C_14  and  C_16
REMARK    8  A    between atoms: C_14  and  C_17
REMARK                            x       y       z     vdW  Elec       q    Type
REMARK                         _______ _______ _______ _____ _____    ______ ____
ROOT
ATOM      1  C   UNL     1       0.151   0.961   0.675  0.00  0.00    +0.007 C 
ATOM      2  C   UNL     1       0.435  -0.061  -0.427  0.00  0.00    +0.060 C 
ENDROOT
BRANCH   2   3
ATOM      3  C   UNL     1       1.548  -0.977   0.012  0.00  0.00    -0.047 A 
ATOM      4  C   UNL     1       2.718  -1.044  -0.722  0.00  0.00    +0.003 A 
ATOM      5  C   UNL     1       3.740  -1.884  -0.320  0.00  0.00    +0.001 A 
ATOM      6  C   UNL     1       3.592  -2.658   0.816  0.00  0.00    +0.015 A 
ATOM      7  C   UNL     1       2.421  -2.591   1.550  0.00  0.00    +0.018 A 
ATOM      8  C   UNL     1       1.402  -1.746   1.151  0.00  0.00    +0.018 A 
ATOM      9 BR   UNL     1       2.218  -3.651   3.104  0.00  0.00    -0.050 Br
ENDBRANCH   2   3
BRANCH   2  10
ATOM     10  C   UNL     1      -0.807  -0.872  -0.692  0.00  0.00    +0.349 C 
ATOM     11  O   UNL     1      -1.030  -1.298  -1.813  0.00  0.00    -0.248 OA
ATOM     12  O   UNL     1      -1.591  -1.101   0.213  0.00  0.00    -0.248 OA
ENDBRANCH   2  10
BRANCH   2  13
ATOM     13  N   UNL     1       0.833   0.640  -1.655  0.00  0.00    +0.401 N 
ATOM     14  H   UNL     1       1.770   1.001  -1.547  0.00  0.00    -0.082 HD
ATOM     15  H   UNL     1       0.808  -0.002  -2.432  0.00  0.00    -0.082 HD
BRANCH  13  16
ATOM     16  C   UNL     1      -0.094   1.752  -1.906  0.00  0.00    +0.006 C 
ATOM     17  C   UNL     1      -1.529   1.284  -1.658  0.00  0.00    -0.001 C 
ATOM     18  C   UNL     1       0.234   2.913  -0.965  0.00  0.00    -0.001 C 
BRANCH  16  19
ATOM     19  C   UNL     1       0.046   2.209  -3.336  0.00  0.00    +0.199 C 
ATOM     20  O   UNL     1      -0.927   2.598  -3.946  0.00  0.00    -0.278 OA
ATOM     21  N   UNL     1       1.252   2.185  -3.936  0.00  0.00    -0.330 N 
ATOM     22  H   UNL     1       2.031   1.873  -3.448  0.00  0.00    +0.145 HD
ATOM     23  H   UNL     1       1.343   2.479  -4.856  0.00  0.00    +0.145 HD
ENDBRANCH  16  19
ENDBRANCH  13  16
ENDBRANCH   2  13
TORSDOF 5
