REMARK  Name = ZINC43092041
REMARK  8 active torsions:
REMARK  status: ('A' for Active; 'I' for Inactive)
REMARK    1  A    between atoms: C_1  and  C_2
REMARK    2  A    between atoms: C_2  and  C_4
REMARK    3  A    between atoms: C_2  and  N_22
REMARK    4  A    between atoms: C_4  and  C_6
REMARK    5  A    between atoms: C_4  and  N_13
REMARK    6  A    between atoms: C_16  and  N_19
REMARK    7  A    between atoms: N_19  and  C_20
REMARK    8  A    between atoms: N_19  and  C_21
REMARK                            x       y       z     vdW  Elec       q    Type
REMARK                         _______ _______ _______ _____ _____    ______ ____
ROOT
ATOM      1  C   UNL     1      -1.451  -0.417   0.001  0.00  0.00    -0.052 C 
ENDROOT
BRANCH   1   2
ATOM      2  C   UNL     1      -1.460  -1.921   0.098  0.00  0.00    -0.049 A 
ATOM      3  C   UNL     1      -1.532  -2.534   1.335  0.00  0.00    +0.003 A 
ATOM      4  C   UNL     1      -1.541  -3.913   1.424  0.00  0.00    +0.000 A 
ATOM      5  C   UNL     1      -1.476  -4.681   0.276  0.00  0.00    +0.001 A 
ATOM      6  C   UNL     1      -1.404  -4.069  -0.962  0.00  0.00    +0.015 A 
ATOM      7  C   UNL     1      -1.401  -2.688  -1.051  0.00  0.00    +0.019 A 
ATOM      8 BR   UNL     1      -1.308  -1.851  -2.744  0.00  0.00    -0.050 Br
ENDBRANCH   1   2
BRANCH   1   9
ATOM      9  N   UNL     1      -2.307   0.146   1.054  0.00  0.00    +0.383 N 
ATOM     10  C   UNL     1      -2.292   1.611   0.963  0.00  0.00    -0.077 C 
ATOM     11  C   UNL     1      -3.116   2.205   2.107  0.00  0.00    +0.000 C 
ATOM     12  C   UNL     1      -4.558   1.701   2.005  0.00  0.00    +0.053 C 
ATOM     13  C   UNL     1      -4.556   0.170   2.026  0.00  0.00    +0.000 C 
ATOM     14  C   UNL     1      -3.678  -0.349   0.885  0.00  0.00    -0.077 C 
ATOM     15  H   UNL     1      -1.956  -0.136   1.957  0.00  0.00    -0.081 HD
BRANCH  12  16
ATOM     16  N   UNL     1      -5.337   2.207   3.143  0.00  0.00    -0.306 NA
ATOM     17  C   UNL     1      -6.754   1.840   3.016  0.00  0.00    +0.104 C 
ATOM     18  C   UNL     1      -4.781   1.727   4.416  0.00  0.00    +0.104 C 
ENDBRANCH  12  16
ENDBRANCH   1   9
BRANCH   1  20
ATOM     19  C   UNL     1       0.851  -0.418  -0.971  0.00  0.00    -0.016 C 
ATOM     20  C   UNL     1      -0.021   0.097   0.176  0.00  0.00    -0.088 C 
BRANCH  20  21
ATOM     21  N   UNL     1       0.519  -0.384   1.455  0.00  0.00    +0.379 N 
ATOM     22  H   UNL     1       1.426   0.030   1.614  0.00  0.00    -0.090 HD
ATOM     23  H   UNL     1      -0.106  -0.122   2.203  0.00  0.00    -0.090 HD
ATOM     24  H   UNL     1       0.608  -1.388   1.427  0.00  0.00    -0.090 HD
ENDBRANCH  20  21
ENDBRANCH   1  20
TORSDOF 5
