REMARK  Name = ZINC38937428
REMARK  5 active torsions:
REMARK  status: ('A' for Active; 'I' for Inactive)
REMARK    1  A    between atoms: C_4  and  C_7
REMARK    2  A    between atoms: C_9  and  C_13
REMARK    3  A    between atoms: N_15  and  N_16
REMARK    4  A    between atoms: C_17  and  C_18
REMARK    5  A    between atoms: C_27  and  O_28
REMARK                            x       y       z     vdW  Elec       q    Type
REMARK                         _______ _______ _______ _____ _____    ______ ____
ROOT
ATOM      1  C   UNL     1       5.756  -2.976  -1.313  0.00  0.00    +0.263 C 
ATOM      2  O   UNL     1       6.225  -2.361  -2.248  0.00  0.00    -0.271 OA
ATOM      3  N   UNL     1       5.612  -4.314  -1.391  0.00  0.00    -0.205 N 
ATOM      4  H   UNL     1       5.237  -4.806  -0.644  0.00  0.00    +0.177 HD
ENDROOT
BRANCH   1   7
ATOM      5  C   UNL     1       3.699  -0.689  -0.037  0.00  0.00    +0.092 C 
ATOM      6  C   UNL     1       3.832  -2.029  -0.051  0.00  0.00    +0.041 C 
ATOM      7  C   UNL     1       5.335  -2.245  -0.065  0.00  0.00    +0.240 C 
ATOM      8  N   UNL     1       5.871  -0.874  -0.056  0.00  0.00    -0.170 NA
ATOM      9  N   UNL     1       4.919  -0.090  -0.047  0.00  0.00    -0.153 NA
BRANCH   5  13
ATOM     10  C   UNL     1      -0.017   1.379   0.010  0.00  0.00    +0.000 A 
ATOM     11  C   UNL     1       1.169   2.092   0.002  0.00  0.00    +0.001 A 
ATOM     12  C   UNL     1       2.377   1.426  -0.013  0.00  0.00    +0.010 A 
ATOM     13  C   UNL     1       2.402   0.033  -0.021  0.00  0.00    +0.002 A 
ATOM     14  C   UNL     1       1.205  -0.680  -0.013  0.00  0.00    +0.010 A 
ATOM     15  C   UNL     1       0.002  -0.004   0.002  0.00  0.00    +0.001 A 
ENDBRANCH   5  13
ENDBRANCH   1   7
BRANCH   3  16
ATOM     16  N   UNL     1       6.004  -4.994  -2.552  0.00  0.00    -0.188 NA
ATOM     17  C   UNL     1       5.865  -6.284  -2.627  0.00  0.00    +0.142 C 
BRANCH  17  18
ATOM     18  C   UNL     1       6.276  -6.998  -3.845  0.00  0.00    +0.044 A 
ATOM     19  C   UNL     1       6.122  -8.448  -3.949  0.00  0.00    -0.006 A 
ATOM     20  C   UNL     1       5.581  -9.202  -2.900  0.00  0.00    +0.009 A 
ATOM     21  C   UNL     1       5.453 -10.552  -3.038  0.00  0.00    +0.001 A 
ATOM     22  C   UNL     1       5.854 -11.193  -4.207  0.00  0.00    +0.001 A 
ATOM     23  C   UNL     1       6.384 -10.490  -5.246  0.00  0.00    +0.008 A 
ATOM     24  C   UNL     1       6.530  -9.096  -5.139  0.00  0.00    -0.017 A 
ATOM     25  C   UNL     1       7.072  -8.337  -6.192  0.00  0.00    +0.012 A 
ATOM     26  C   UNL     1       7.208  -6.989  -6.078  0.00  0.00    +0.046 A 
ATOM     27  C   UNL     1       6.817  -6.306  -4.928  0.00  0.00    +0.126 A 
BRANCH  27  28
ATOM     28  O   UNL     1       6.966  -4.958  -4.860  0.00  0.00    -0.506 OA
ATOM     29  H   UNL     1       7.820  -4.674  -4.505  0.00  0.00    +0.292 HD
ENDBRANCH  27  28
ENDBRANCH  17  18
ENDBRANCH   3  16
TORSDOF 5
