REMARK  Name = ZINC39874628
REMARK  6 active torsions:
REMARK  status: ('A' for Active; 'I' for Inactive)
REMARK    1  A    between atoms: C_1  and  O_2
REMARK    2  A    between atoms: O_2  and  C_3
REMARK    3  A    between atoms: C_6  and  N_9
REMARK    4  A    between atoms: C_10  and  C_26
REMARK    5  A    between atoms: C_29  and  S_32
REMARK    6  A    between atoms: S_32  and  C_33
REMARK                            x       y       z     vdW  Elec       q    Type
REMARK                         _______ _______ _______ _____ _____    ______ ____
ROOT
ATOM      1  N   UNL     1      -4.888  -2.580   0.036  0.00  0.00    -0.253 N 
ATOM      2  C   UNL     1      -5.098  -4.037   0.042  0.00  0.00    +0.150 C 
ATOM      3  C   UNL     1      -6.579  -4.235   0.050  0.00  0.00    +0.072 A 
ATOM      4  C   UNL     1      -7.390  -5.456   0.048  0.00  0.00    +0.199 A 
ATOM      5  O   UNL     1      -6.923  -6.569   0.216  0.00  0.00    -0.287 OA
ATOM      6  C   UNL     1      -8.837  -5.208  -0.178  0.00  0.00    +0.066 A 
ATOM      7  C   UNL     1      -9.708  -6.273  -0.405  0.00  0.00    +0.035 A 
ATOM      8  C   UNL     1     -11.047  -6.024  -0.619  0.00  0.00    +0.042 A 
ATOM      9  C   UNL     1     -11.522  -4.719  -0.607  0.00  0.00    +0.023 A 
ATOM     10  C   UNL     1     -10.671  -3.661  -0.383  0.00  0.00    +0.048 A 
ATOM     11  C   UNL     1      -9.313  -3.887  -0.161  0.00  0.00    +0.140 A 
ATOM     12  O   UNL     1      -8.501  -2.829   0.067  0.00  0.00    -0.450 OA
ATOM     13  C   UNL     1      -7.164  -3.000   0.053  0.00  0.00    +0.199 A 
ATOM     14  C   UNL     1      -6.098  -1.984   0.047  0.00  0.00    +0.287 C 
ATOM     15  O   UNL     1      -6.282  -0.783   0.050  0.00  0.00    -0.266 OA
ATOM     16 CL   UNL     1     -12.140  -7.343  -0.902  0.00  0.00    -0.084 Cl
ENDROOT
BRANCH   1  20
ATOM     17  C   UNL     1      -1.201  -0.638   0.010  0.00  0.00    +0.120 A 
ATOM     18  C   UNL     1      -2.374   0.102   0.020  0.00  0.00    +0.047 A 
ATOM     19  C   UNL     1      -3.596  -0.540   0.028  0.00  0.00    +0.027 A 
ATOM     20  C   UNL     1      -3.651  -1.928   0.027  0.00  0.00    +0.038 A 
ATOM     21  C   UNL     1      -2.475  -2.668   0.017  0.00  0.00    +0.027 A 
ATOM     22  C   UNL     1      -1.254  -2.024   0.003  0.00  0.00    +0.047 A 
BRANCH  17  24
ATOM     23  C   UNL     1      -0.017   1.425   0.010  0.00  0.00    +0.277 C 
ATOM     24  O   UNL     1       0.002  -0.004   0.002  0.00  0.00    -0.495 OA
ENDBRANCH  17  24
ENDBRANCH   1  20
BRANCH   2  25
ATOM     25  C   UNL     1      -4.496  -4.655  -1.194  0.00  0.00    -0.022 A 
ATOM     26  C   UNL     1      -4.609  -4.010  -2.412  0.00  0.00    +0.007 A 
ATOM     27  C   UNL     1      -4.058  -4.572  -3.546  0.00  0.00    +0.015 A 
ATOM     28  C   UNL     1      -3.390  -5.788  -3.463  0.00  0.00    +0.008 A 
ATOM     29  C   UNL     1      -3.279  -6.433  -2.237  0.00  0.00    +0.015 A 
ATOM     30  C   UNL     1      -3.827  -5.862  -1.106  0.00  0.00    +0.007 A 
BRANCH  28  31
ATOM     31  S   UNL     1      -2.687  -6.510  -4.908  0.00  0.00    -0.129 S 
ATOM     32  C   UNL     1      -1.941  -8.052  -4.310  0.00  0.00    +0.090 C 
ENDBRANCH  28  31
ENDBRANCH   2  25
TORSDOF 4
