REMARK  Name = ZINC16621245
REMARK  11 active torsions:
REMARK  status: ('A' for Active; 'I' for Inactive)
REMARK    1  A    between atoms: C_1  and  C_2
REMARK    2  A    between atoms: C_4  and  C_27
REMARK    3  A    between atoms: C_5  and  N_9
REMARK    4  A    between atoms: C_6  and  C_8
REMARK    5  A    between atoms: C_10  and  C_12
REMARK    6  A    between atoms: C_12  and  N_13
REMARK    7  A    between atoms: C_14  and  C_16
REMARK    8  A    between atoms: C_16  and  N_53
REMARK    9  A    between atoms: C_17  and  N_53
REMARK   10  A    between atoms: C_18  and  C_19
REMARK   11  A    between atoms: C_18  and  N_53
REMARK                            x       y       z     vdW  Elec       q    Type
REMARK                         _______ _______ _______ _____ _____    ______ ____
ROOT
ATOM      1  N   UNL     1      -5.044   2.081   3.994  0.00  0.00    -0.308 N 
ATOM      2  C   UNL     1      -3.834   1.580   3.675  0.00  0.00    +0.197 C 
ATOM      3  O   UNL     1      -2.836   2.022   4.204  0.00  0.00    -0.278 OA
ATOM      4  H   UNL     1      -5.842   1.728   3.571  0.00  0.00    +0.149 HD
ENDROOT
BRANCH   1   5
ATOM      5  C   UNL     1      -5.154   3.159   4.980  0.00  0.00    +0.200 C 
BRANCH   5   7
ATOM      6  N   UNL     1      -6.947   4.511   6.018  0.00  0.00    -0.284 N 
ATOM      7  C   UNL     1      -6.603   3.535   5.155  0.00  0.00    +0.234 C 
ATOM      8  O   UNL     1      -7.460   2.958   4.518  0.00  0.00    -0.274 OA
ATOM      9  H   UNL     1      -6.271   4.923   6.578  0.00  0.00    +0.155 HD
BRANCH   6  14
ATOM     10  C   UNL     1     -12.348   6.210   6.375  0.00  0.00    +0.044 C 
ATOM     11  C   UNL     1     -10.913   5.759   6.280  0.00  0.00    -0.050 A 
ATOM     12  C   UNL     1     -10.224   5.405   7.426  0.00  0.00    +0.008 A 
ATOM     13  C   UNL     1      -8.909   4.991   7.342  0.00  0.00    -0.029 A 
ATOM     14  C   UNL     1      -8.279   4.929   6.106  0.00  0.00    +0.039 A 
ATOM     15  C   UNL     1      -8.972   5.290   4.958  0.00  0.00    -0.029 A 
ATOM     16  C   UNL     1     -10.289   5.699   5.048  0.00  0.00    +0.008 A 
ATOM     17  C   UNL     1      -8.291   5.231   3.615  0.00  0.00    +0.045 C 
ATOM     18  C   UNL     1      -8.159   4.605   8.591  0.00  0.00    +0.045 C 
ENDBRANCH   6  14
ENDBRANCH   5   7
ENDBRANCH   1   5
BRANCH   2  19
ATOM     19  C   UNL     1      -3.721   0.471   2.661  0.00  0.00    +0.019 C 
BRANCH  19  21
ATOM     20  C   UNL     1      -1.548   1.208   1.889  0.00  0.00    -0.095 C 
ATOM     21  N   UNL     1      -2.298   0.100   2.517  0.00  0.00    +0.386 N 
ATOM     22  H   UNL     1      -1.905  -0.083   3.448  0.00  0.00    -0.081 HD
BRANCH  21  23
ATOM     23  C   UNL     1      -2.175  -1.122   1.695  0.00  0.00    -0.041 C 
BRANCH  23  24
ATOM     24  C   UNL     1      -0.817  -1.730   1.934  0.00  0.00    -0.046 A 
ATOM     25  C   UNL     1       0.163  -1.636   0.964  0.00  0.00    +0.004 A 
ATOM     26  C   UNL     1       1.410  -2.189   1.184  0.00  0.00    +0.020 A 
ATOM     27  C   UNL     1       1.679  -2.836   2.377  0.00  0.00    +0.042 A 
ATOM     28  C   UNL     1       0.699  -2.931   3.349  0.00  0.00    +0.040 A 
ATOM     29  C   UNL     1      -0.549  -2.377   3.127  0.00  0.00    +0.044 A 
ATOM     30 CL   UNL     1      -1.780  -2.496   4.346  0.00  0.00    -0.083 Cl
ATOM     31 CL   UNL     1       3.246  -3.531   2.654  0.00  0.00    -0.083 Cl
ENDBRANCH  23  24
ENDBRANCH  21  23
ENDBRANCH  19  21
ENDBRANCH   2  19
TORSDOF 7
