REMARK  Name = ZINC09110595
REMARK  9 active torsions:
REMARK  status: ('A' for Active; 'I' for Inactive)
REMARK    1  A    between atoms: C_1  and  C_2
REMARK    2  A    between atoms: C_7  and  N_8
REMARK    3  A    between atoms: C_9  and  C_11
REMARK    4  A    between atoms: C_11  and  S_12
REMARK    5  A    between atoms: S_12  and  C_13
REMARK    6  A    between atoms: C_14  and  C_35
REMARK    7  A    between atoms: C_15  and  C_28
REMARK    8  A    between atoms: C_22  and  C_26
REMARK    9  A    between atoms: C_22  and  C_27
REMARK                            x       y       z     vdW  Elec       q    Type
REMARK                         _______ _______ _______ _____ _____    ______ ____
ROOT
ATOM      1  C   UNL     1      -0.506  -0.775   7.836  0.00  0.00    +0.111 C 
ATOM      2  C   UNL     1      -0.502  -1.030   9.177  0.00  0.00    +0.069 C 
ATOM      3  C   UNL     1      -0.613   0.124  10.144  0.00  0.00    +0.078 C 
ATOM      4  C   UNL     1       0.094   1.343   9.544  0.00  0.00    +0.112 C 
ATOM      5  C   UNL     1      -0.337   1.536   8.118  0.00  0.00    +0.032 C 
ATOM      6  N   UNL     1      -0.576   0.495   7.371  0.00  0.00    -0.248 NA
ATOM      7  C   UNL     1      -0.455   2.907   7.506  0.00  0.00    +0.058 C 
ATOM      8  C   UNL     1      -1.062   3.897   8.496  0.00  0.00    -0.023 C 
ATOM      9  C   UNL     1      -0.201   3.929   9.763  0.00  0.00    +0.081 C 
ATOM     10  C   UNL     1      -0.231   2.556  10.371  0.00  0.00    +0.143 C 
ATOM     11  O   UNL     1      -0.507   2.430  11.540  0.00  0.00    -0.297 OA
ATOM     12  C   UNL     1      -2.483   3.456   8.854  0.00  0.00    +0.011 C 
ATOM     13  C   UNL     1      -1.100   5.291   7.867  0.00  0.00    +0.011 C 
ENDROOT
BRANCH   3  14
ATOM     14  C   UNL     1      -2.066   0.445  10.381  0.00  0.00    -0.038 A 
ATOM     15  C   UNL     1      -2.962   0.412   9.328  0.00  0.00    +0.006 A 
ATOM     16  C   UNL     1      -4.294   0.707   9.545  0.00  0.00    +0.020 A 
ATOM     17  C   UNL     1      -4.732   1.036  10.816  0.00  0.00    +0.041 A 
ATOM     18  C   UNL     1      -3.835   1.069  11.868  0.00  0.00    +0.020 A 
ATOM     19  C   UNL     1      -2.504   0.768  11.652  0.00  0.00    +0.006 A 
ATOM     20 CL   UNL     1      -6.406   1.407  11.088  0.00  0.00    -0.084 Cl
ENDBRANCH   3  14
BRANCH   2  21
ATOM     21  C   UNL     1      -0.394  -2.374   9.661  0.00  0.00    +0.098 C 
ATOM     22  N   UNL     1      -0.308  -3.440  10.044  0.00  0.00    -0.191 NA
ENDBRANCH   2  21
BRANCH   1  23
ATOM     23  S   UNL     1      -0.413  -2.115   6.696  0.00  0.00    -0.096 S 
BRANCH  23  24
ATOM     24  C   UNL     1      -0.441  -1.311   5.070  0.00  0.00    +0.172 C 
BRANCH  24  26
ATOM     25  N   UNL     1      -0.372  -1.992   2.693  0.00  0.00    -0.285 N 
ATOM     26  C   UNL     1      -0.366  -2.359   3.990  0.00  0.00    +0.227 C 
ATOM     27  O   UNL     1      -0.300  -3.533   4.288  0.00  0.00    -0.275 OA
ATOM     28  H   UNL     1      -0.354  -1.051   2.455  0.00  0.00    +0.155 HD
BRANCH  25  35
ATOM     29  C   UNL     1      -1.802  -1.413   0.302  0.00  0.00    +0.045 C 
ATOM     30  C   UNL     1      -1.090  -2.725   0.507  0.00  0.00    -0.029 A 
ATOM     31  C   UNL     1      -1.115  -3.688  -0.483  0.00  0.00    +0.005 A 
ATOM     32  C   UNL     1      -0.462  -4.892  -0.296  0.00  0.00    +0.000 A 
ATOM     33  C   UNL     1       0.218  -5.137   0.883  0.00  0.00    +0.002 A 
ATOM     34  C   UNL     1       0.247  -4.179   1.877  0.00  0.00    +0.023 A 
ATOM     35  C   UNL     1      -0.404  -2.966   1.690  0.00  0.00    +0.036 A 
ENDBRANCH  25  35
ENDBRANCH  24  26
ENDBRANCH  23  24
ENDBRANCH   1  23
TORSDOF 6
