REMARK  Name = ZINC52528062
REMARK  8 active torsions:
REMARK  status: ('A' for Active; 'I' for Inactive)
REMARK    1  A    between atoms: C_1  and  N_2
REMARK    2  A    between atoms: N_2  and  C_3
REMARK    3  A    between atoms: C_3  and  C_4
REMARK    4  A    between atoms: C_7  and  O_11
REMARK    5  A    between atoms: C_8  and  O_10
REMARK    6  A    between atoms: O_11  and  C_12
REMARK    7  A    between atoms: N_15  and  C_16
REMARK    8  A    between atoms: C_16  and  C_17
REMARK                            x       y       z     vdW  Elec       q    Type
REMARK                         _______ _______ _______ _____ _____    ______ ____
ROOT
ATOM      1  C   UNL     1      -0.018   1.461   0.010  0.00  0.00    +0.134 C 
ATOM      2  N   UNL     1       0.002  -0.004   0.002  0.00  0.00    -0.284 N 
ATOM      3  C   UNL     1       0.000  -0.672  -1.169  0.00  0.00    +0.303 C 
ATOM      4  O   UNL     1       0.017  -1.887  -1.175  0.00  0.00    -0.253 OA
ATOM      5  N   UNL     1      -0.020   0.009  -2.332  0.00  0.00    -0.295 N 
ATOM      6  H   UNL     1      -0.033   0.978  -2.327  0.00  0.00    +0.151 HD
ENDROOT
BRANCH   2   7
ATOM      7  C   UNL     1       0.024  -0.743   1.267  0.00  0.00    +0.144 C 
BRANCH   7   8
ATOM      8  C   UNL     1      -1.389  -1.016   1.714  0.00  0.00    -0.026 A 
ATOM      9  C   UNL     1      -2.046  -0.104   2.518  0.00  0.00    +0.009 A 
ATOM     10  C   UNL     1      -3.342  -0.350   2.931  0.00  0.00    +0.050 A 
ATOM     11  C   UNL     1      -3.986  -1.512   2.538  0.00  0.00    +0.161 A 
ATOM     12  C   UNL     1      -3.325  -2.430   1.728  0.00  0.00    +0.159 A 
ATOM     13  C   UNL     1      -2.027  -2.175   1.314  0.00  0.00    +0.054 A 
BRANCH  12  14
ATOM     14  O   UNL     1      -3.952  -3.572   1.339  0.00  0.00    -0.503 OA
ATOM     15  H   UNL     1      -4.441  -3.490   0.509  0.00  0.00    +0.292 HD
ENDBRANCH  12  14
BRANCH  11  16
ATOM     16  O   UNL     1      -5.261  -1.755   2.944  0.00  0.00    -0.491 OA
ATOM     17  C   UNL     1      -5.877  -0.769   3.774  0.00  0.00    +0.277 C 
ENDBRANCH  11  16
ENDBRANCH   7   8
ENDBRANCH   2   7
BRANCH   5  18
ATOM     18  C   UNL     1      -0.022  -0.717  -3.605  0.00  0.00    +0.144 C 
BRANCH  18  19
ATOM     19  C   UNL     1      -0.047   0.268  -4.745  0.00  0.00    +0.006 A 
ATOM     20  C   UNL     1      -1.236   0.551  -5.389  0.00  0.00    +0.023 A 
ATOM     21  C   UNL     1      -1.259   1.456  -6.435  0.00  0.00    +0.018 A 
ATOM     22  C   UNL     1      -0.090   2.077  -6.838  0.00  0.00    +0.018 A 
ATOM     23  C   UNL     1       1.100   1.796  -6.195  0.00  0.00    +0.040 A 
ATOM     24  C   UNL     1       1.122   0.894  -5.144  0.00  0.00    +0.128 A 
ATOM     25  F   UNL     1       2.284   0.623  -4.511  0.00  0.00    -0.205 F 
ATOM     26 BR   UNL     1      -2.887   1.841  -7.316  0.00  0.00    -0.050 Br
ENDBRANCH  18  19
ENDBRANCH   5  18
TORSDOF 6
