REMARK  Name = ZINC49563484
REMARK  5 active torsions:
REMARK  status: ('A' for Active; 'I' for Inactive)
REMARK    1  A    between atoms: C_4  and  C_7
REMARK    2  A    between atoms: C_7  and  N_8
REMARK    3  A    between atoms: N_16  and  C_17
REMARK    4  A    between atoms: C_17  and  C_19
REMARK    5  A    between atoms: N_24  and  C_26
REMARK                            x       y       z     vdW  Elec       q    Type
REMARK                         _______ _______ _______ _____ _____    ______ ____
ROOT
ATOM      1  N   UNL     1       4.138  -0.891   1.365  0.00  0.00    +0.386 N 
ATOM      2  C   UNL     1       5.480  -1.489   1.345  0.00  0.00    -0.072 C 
ATOM      3  C   UNL     1       6.082  -1.484   2.754  0.00  0.00    +0.035 C 
ATOM      4  C   UNL     1       5.074  -2.126   3.699  0.00  0.00    +0.024 A 
ATOM      5  C   UNL     1       3.792  -2.253   3.319  0.00  0.00    -0.004 A 
ATOM      6  S   UNL     1       3.022  -3.036   4.705  0.00  0.00    -0.059 S 
ATOM      7  C   UNL     1       4.376  -3.159   5.699  0.00  0.00    +0.163 A 
ATOM      8  N   UNL     1       5.363  -2.603   4.947  0.00  0.00    -0.339 N 
ATOM      9  N   UNL     1       4.460  -3.675   6.926  0.00  0.00    -0.156 NA
ATOM     10  C   UNL     1       3.197  -1.818   2.020  0.00  0.00    -0.033 C 
ATOM     11  H   UNL     1       6.267  -2.547   5.294  0.00  0.00    +0.167 HD
ATOM     12  H   UNL     1       4.165  -0.021   1.876  0.00  0.00    -0.081 HD
ENDROOT
BRANCH   9  13
ATOM     13  C   UNL     1       5.623  -3.686   7.564  0.00  0.00    +0.243 C 
ATOM     14  O   UNL     1       6.614  -3.224   7.030  0.00  0.00    -0.273 OA
BRANCH  13  15
ATOM     15  C   UNL     1       5.717  -4.269   8.950  0.00  0.00    +0.103 C 
ATOM     16  C   UNL     1       4.876  -3.448   9.955  0.00  0.00    +0.110 C 
ATOM     17  C   UNL     1       5.697  -3.462  11.225  0.00  0.00    +0.221 C 
ATOM     18  O   UNL     1       5.277  -3.176  12.327  0.00  0.00    -0.275 OA
ATOM     19  N   UNL     1       6.959  -3.837  10.956  0.00  0.00    -0.271 N 
ATOM     20  C   UNL     1       7.142  -4.104   9.524  0.00  0.00    +0.127 C 
BRANCH  19  21
ATOM     21  C   UNL     1       7.970  -3.958  11.918  0.00  0.00    +0.040 A 
ATOM     22  C   UNL     1       9.214  -4.461  11.559  0.00  0.00    +0.027 A 
ATOM     23  C   UNL     1      10.211  -4.582  12.507  0.00  0.00    +0.051 A 
ATOM     24  C   UNL     1       9.974  -4.201  13.820  0.00  0.00    +0.162 A 
ATOM     25  C   UNL     1       8.731  -3.695  14.181  0.00  0.00    +0.164 A 
ATOM     26  C   UNL     1       7.731  -3.571  13.228  0.00  0.00    +0.073 A 
ATOM     27  O   UNL     1       8.482  -3.308  15.463  0.00  0.00    -0.485 OA
ATOM     28  C   UNL     1       9.383  -3.788  16.466  0.00  0.00    +0.270 C 
ATOM     29  C   UNL     1      10.818  -3.591  15.959  0.00  0.00    +0.270 C 
ATOM     30  O   UNL     1      10.968  -4.330  14.742  0.00  0.00    -0.485 OA
ENDBRANCH  19  21
ENDBRANCH  13  15
ENDBRANCH   9  13
BRANCH   1  31
ATOM     31  C   UNL     1       3.696  -0.636  -0.013  0.00  0.00    -0.043 C 
BRANCH  31  35
ATOM     32  C   UNL     1      -0.050   1.416   0.049  0.00  0.00    +0.000 A 
ATOM     33  C   UNL     1       1.132   2.134   0.049  0.00  0.00    +0.000 A 
ATOM     34  C   UNL     1       2.344   1.470   0.029  0.00  0.00    +0.002 A 
ATOM     35  C   UNL     1       2.375   0.088   0.010  0.00  0.00    -0.064 A 
ATOM     36  C   UNL     1       1.193  -0.630   0.011  0.00  0.00    +0.002 A 
ATOM     37  C   UNL     1      -0.019   0.035   0.029  0.00  0.00    +0.000 A 
ENDBRANCH  31  35
ENDBRANCH   1  31
TORSDOF 5
