REMARK  Name = ZINC66646955
REMARK  9 active torsions:
REMARK  status: ('A' for Active; 'I' for Inactive)
REMARK    1  A    between atoms: C_1  and  C_2
REMARK    2  A    between atoms: C_2  and  C_4
REMARK    3  A    between atoms: C_2  and  N_17
REMARK    4  A    between atoms: C_4  and  C_5
REMARK    5  A    between atoms: N_7  and  C_8
REMARK    6  A    between atoms: C_8  and  C_9
REMARK    7  A    between atoms: C_9  and  C_10
REMARK    8  A    between atoms: N_13  and  C_16
REMARK    9  A    between atoms: C_18  and  C_20
REMARK                            x       y       z     vdW  Elec       q    Type
REMARK                         _______ _______ _______ _____ _____    ______ ____
ROOT
ATOM      1  C   UNL     1       0.632  -2.000  -1.327  0.00  0.00    +0.215 C 
ATOM      2  O   UNL     1       0.054  -2.616  -0.457  0.00  0.00    -0.276 OA
ATOM      3  N   UNL     1       1.196  -2.660  -2.358  0.00  0.00    -0.315 N 
ATOM      4  H   UNL     1       1.658  -2.168  -3.055  0.00  0.00    +0.149 HD
ENDROOT
BRANCH   1   5
ATOM      5  C   UNL     1       0.718  -0.497  -1.257  0.00  0.00    +0.117 C 
BRANCH   5   7
ATOM      6  C   UNL     1      -0.019   1.526   0.010  0.00  0.00    +0.028 C 
ATOM      7  C   UNL     1       0.002  -0.004   0.002  0.00  0.00    +0.079 C 
BRANCH   7   8
ATOM      8  N   UNL     1       0.711  -0.489   1.189  0.00  0.00    -0.312 N 
ATOM      9  C   UNL     1       0.051  -0.633   2.355  0.00  0.00    +0.216 C 
ATOM     10  O   UNL     1      -1.129  -0.361   2.423  0.00  0.00    -0.276 OA
ATOM     11  H   UNL     1       1.654  -0.707   1.135  0.00  0.00    +0.149 HD
BRANCH   9  12
ATOM     12  C   UNL     1       0.780  -1.133   3.576  0.00  0.00    +0.075 C 
ATOM     13  C   UNL     1       1.347  -2.526   3.298  0.00  0.00    +0.013 C 
ATOM     14  C   UNL     1       2.087  -3.033   4.537  0.00  0.00    +0.001 C 
ATOM     15  C   UNL     1       1.116  -3.104   5.717  0.00  0.00    +0.000 C 
ATOM     16  C   UNL     1       0.549  -1.711   5.996  0.00  0.00    +0.001 C 
ATOM     17  C   UNL     1      -0.191  -1.204   4.756  0.00  0.00    +0.013 C 
ENDBRANCH   9  12
ENDBRANCH   7   8
ENDBRANCH   5   7
ENDBRANCH   1   5
BRANCH   3  18
ATOM     18  C   UNL     1       1.112  -4.121  -2.427  0.00  0.00    +0.104 C 
BRANCH  18  19
ATOM     19  C   UNL     1       1.828  -4.614  -3.686  0.00  0.00    +0.022 C 
BRANCH  19  20
ATOM     20  C   UNL     1       1.740  -6.140  -3.758  0.00  0.00    -0.013 C 
ATOM     21  C   UNL     1       2.521  -6.754  -2.592  0.00  0.00    -0.015 C 
ATOM     22  C   UNL     1       2.496  -8.279  -2.715  0.00  0.00    -0.079 C 
ATOM     23  N   UNL     1       3.112  -8.681  -3.984  0.00  0.00    +0.378 N 
ATOM     24  C   UNL     1       2.328  -8.156  -5.108  0.00  0.00    -0.079 C 
ATOM     25  C   UNL     1       2.346  -6.627  -5.077  0.00  0.00    -0.015 C 
ATOM     26  C   UNL     1       3.156 -10.148  -4.062  0.00  0.00    -0.096 C 
ATOM     27  H   UNL     1       4.052  -8.316  -4.032  0.00  0.00    -0.082 HD
ENDBRANCH  19  20
ENDBRANCH  18  19
ENDBRANCH   3  18
TORSDOF 7
