REMARK  Name = ZINC22555280
REMARK  6 active torsions:
REMARK  status: ('A' for Active; 'I' for Inactive)
REMARK    1  A    between atoms: C_1  and  C_2
REMARK    2  A    between atoms: C_2  and  C_4
REMARK    3  A    between atoms: C_2  and  O_15
REMARK    4  A    between atoms: O_15  and  C_16
REMARK    5  A    between atoms: C_16  and  C_18
REMARK    6  A    between atoms: C_23  and  N_24
REMARK                            x       y       z     vdW  Elec       q    Type
REMARK                         _______ _______ _______ _____ _____    ______ ____
ROOT
ATOM      1  C   UNL     1       4.536  -1.024  -1.056  0.00  0.00    +0.062 C 
ATOM      2  C   UNL     1       3.678  -0.812   0.193  0.00  0.00    +0.259 C 
ENDROOT
BRANCH   2   3
ATOM      3  C   UNL     1       3.606  -2.098   0.977  0.00  0.00    +0.256 C 
ATOM      4  O   UNL     1       2.605  -2.781   0.930  0.00  0.00    -0.272 OA
ATOM      5  N   UNL     1       4.654  -2.487   1.729  0.00  0.00    -0.294 N 
ATOM      6  C   UNL     1       4.550  -3.671   2.596  0.00  0.00    +0.113 C 
ATOM      7  C   UNL     1       5.535  -4.734   2.071  0.00  0.00    +0.061 C 
ATOM      8  C   UNL     1       6.826  -4.064   1.729  0.00  0.00    -0.004 A 
ATOM      9  C   UNL     1       7.056  -2.736   1.548  0.00  0.00    -0.020 A 
ATOM     10  C   UNL     1       8.361  -2.365   1.226  0.00  0.00    +0.013 A 
ATOM     11  C   UNL     1       9.323  -3.308   1.112  0.00  0.00    +0.046 A 
ATOM     12  S   UNL     1       8.414  -4.806   1.460  0.00  0.00    -0.101 S 
ATOM     13  C   UNL     1       5.914  -1.732   1.699  0.00  0.00    +0.143 C 
ENDBRANCH   2   3
BRANCH   2  14
ATOM     14  O   UNL     1       2.339  -0.411  -0.202  0.00  0.00    -0.449 OA
BRANCH  14  15
ATOM     15  C   UNL     1       2.111   0.911  -0.333  0.00  0.00    +0.342 C 
ATOM     16  O   UNL     1       3.005   1.706  -0.123  0.00  0.00    -0.245 OA
BRANCH  15  17
ATOM     17  C   UNL     1       0.777   1.391  -0.730  0.00  0.00    +0.080 A 
ATOM     18  C   UNL     1      -0.219   0.480  -1.097  0.00  0.00    +0.018 A 
ATOM     19  C   UNL     1      -1.462   0.936  -1.473  0.00  0.00    +0.021 A 
ATOM     20  C   UNL     1      -1.738   2.296  -1.481  0.00  0.00    +0.043 A 
ATOM     21  C   UNL     1      -0.765   3.208  -1.121  0.00  0.00    +0.043 A 
ATOM     22  C   UNL     1       0.497   2.768  -0.744  0.00  0.00    +0.040 A 
ATOM     23 CL   UNL     1      -3.312   2.854  -1.952  0.00  0.00    -0.083 Cl
BRANCH  22  24
ATOM     24  N   UNL     1       1.476   3.683  -0.382  0.00  0.00    -0.357 N 
ATOM     25  H   UNL     1       1.254   4.760  -0.393  0.00  0.00    +0.142 HD
ATOM     26  H   UNL     1       2.474   3.330  -0.083  0.00  0.00    +0.142 HD
ENDBRANCH  22  24
ENDBRANCH  15  17
ENDBRANCH  14  15
ENDBRANCH   2  14
TORSDOF 5
