REMARK  Name = ZINC39361509
REMARK  9 active torsions:
REMARK  status: ('A' for Active; 'I' for Inactive)
REMARK    1  A    between atoms: C_1  and  C_2
REMARK    2  A    between atoms: C_2  and  O_3
REMARK    3  A    between atoms: O_3  and  C_4
REMARK    4  A    between atoms: C_12  and  C_14
REMARK    5  A    between atoms: C_14  and  S_15
REMARK    6  A    between atoms: S_15  and  C_16
REMARK    7  A    between atoms: C_19  and  C_28
REMARK    8  A    between atoms: N_21  and  C_22
REMARK    9  A    between atoms: C_28  and  C_29
REMARK                            x       y       z     vdW  Elec       q    Type
REMARK                         _______ _______ _______ _____ _____    ______ ____
ROOT
ATOM      1  C   UNL     1       5.032  -7.336  -6.819  0.00  0.00    +0.180 C 
ATOM      2  N   UNL     1       4.578  -8.103  -5.886  0.00  0.00    -0.162 NA
ATOM      3  N   UNL     1       5.006  -9.425  -6.056  0.00  0.00    -0.246 N 
ATOM      4  C   UNL     1       5.837  -9.435  -7.272  0.00  0.00    +0.187 C 
ATOM      5  N   UNL     1       5.811  -8.036  -7.730  0.00  0.00    -0.258 N 
ATOM      6  H   UNL     1       4.798 -10.183  -5.487  0.00  0.00    +0.170 HD
ENDROOT
BRANCH   5   7
ATOM      7  C   UNL     1       6.448  -7.514  -8.859  0.00  0.00    +0.037 A 
ATOM      8  C   UNL     1       6.035  -7.894 -10.130  0.00  0.00    +0.023 A 
ATOM      9  C   UNL     1       6.667  -7.376 -11.243  0.00  0.00    +0.002 A 
ATOM     10  C   UNL     1       7.709  -6.480 -11.094  0.00  0.00    +0.000 A 
ATOM     11  C   UNL     1       8.123  -6.099  -9.831  0.00  0.00    +0.002 A 
ATOM     12  C   UNL     1       7.492  -6.609  -8.713  0.00  0.00    +0.023 A 
ENDBRANCH   5   7
BRANCH   1  13
ATOM     13  S   UNL     1       4.697  -5.610  -6.928  0.00  0.00    -0.079 S 
BRANCH  13  14
ATOM     14  C   UNL     1       3.647  -5.275  -5.487  0.00  0.00    +0.173 C 
BRANCH  14  23
ATOM     15  C   UNL     1      -0.670  -2.199  -2.337  0.00  0.00    +0.403 C 
ATOM     16  O   UNL     1      -1.076  -2.942  -1.465  0.00  0.00    -0.226 OA
ATOM     17  N   UNL     1       0.109  -2.681  -3.325  0.00  0.00    -0.264 N 
ATOM     18  C   UNL     1       0.612  -1.792  -4.382  0.00  0.00    +0.130 C 
ATOM     19  C   UNL     1       2.140  -1.907  -4.433  0.00  0.00    +0.127 C 
ATOM     20  N   UNL     1       2.503  -3.330  -4.472  0.00  0.00    -0.298 N 
ATOM     21  C   UNL     1       2.001  -4.219  -3.415  0.00  0.00    +0.127 C 
ATOM     22  C   UNL     1       0.477  -4.103  -3.361  0.00  0.00    +0.130 C 
ATOM     23  C   UNL     1       3.283  -3.812  -5.460  0.00  0.00    +0.226 C 
ATOM     24  O   UNL     1       3.692  -3.070  -6.327  0.00  0.00    -0.275 OA
BRANCH  15  25
ATOM     25  O   UNL     1      -1.000  -0.893  -2.315  0.00  0.00    -0.451 OA
BRANCH  25  27
ATOM     26  C   UNL     1      -2.095   1.048  -1.382  0.00  0.00    +0.048 C 
ATOM     27  C   UNL     1      -1.829  -0.451  -1.238  0.00  0.00    +0.230 C 
ENDBRANCH  25  27
ENDBRANCH  15  25
ENDBRANCH  14  23
ENDBRANCH  13  14
ENDBRANCH   1  13
BRANCH   4  28
ATOM     28  C   UNL     1       7.265  -9.874  -6.943  0.00  0.00    +0.097 C 
BRANCH  28  29
ATOM     29  C   UNL     1       7.259 -11.316  -6.505  0.00  0.00    +0.029 A 
ATOM     30  N   UNL     1       6.996 -11.637  -5.202  0.00  0.00    -0.311 N 
ATOM     31  C   UNL     1       6.988 -12.922  -4.801  0.00  0.00    +0.327 A 
ATOM     32  O   UNL     1       6.751 -13.185  -3.638  0.00  0.00    -0.247 OA
ATOM     33  N   UNL     1       7.237 -13.919  -5.669  0.00  0.00    -0.275 N 
ATOM     34  C   UNL     1       7.502 -13.644  -6.963  0.00  0.00    +0.254 A 
ATOM     35  O   UNL     1       7.728 -14.546  -7.749  0.00  0.00    -0.268 OA
ATOM     36  C   UNL     1       7.508 -12.297  -7.399  0.00  0.00    +0.091 A 
ATOM     37  H   UNL     1       7.228 -14.840  -5.363  0.00  0.00    +0.173 HD
ATOM     38  H   UNL     1       6.814 -10.933  -4.561  0.00  0.00    +0.170 HD
ENDBRANCH  28  29
ENDBRANCH   4  28
TORSDOF 8
