REMARK  Name = ZINC38848536
REMARK  8 active torsions:
REMARK  status: ('A' for Active; 'I' for Inactive)
REMARK    1  A    between atoms: C_6  and  C_7
REMARK    2  A    between atoms: C_7  and  S_8
REMARK    3  A    between atoms: S_8  and  C_9
REMARK    4  A    between atoms: C_9  and  C_10
REMARK    5  A    between atoms: C_10  and  N_11
REMARK    6  A    between atoms: C_12  and  C_14
REMARK    7  A    between atoms: N_19  and  C_21
REMARK    8  A    between atoms: C_21  and  C_22
REMARK                            x       y       z     vdW  Elec       q    Type
REMARK                         _______ _______ _______ _____ _____    ______ ____
ROOT
ATOM      1  C   UNL     1      -7.169  -4.231  -3.689  0.00  0.00    +0.058 C 
ATOM      2  C   UNL     1      -8.180  -3.386  -2.909  0.00  0.00    +0.009 C 
ATOM      3  C   UNL     1      -9.509  -4.142  -2.828  0.00  0.00    -0.018 C 
ATOM      4  C   UNL     1      -9.993  -4.466  -4.243  0.00  0.00    -0.078 C 
ATOM      5  N   UNL     1      -8.996  -5.298  -4.927  0.00  0.00    +0.383 N 
ATOM      6  C   UNL     1      -7.739  -4.553  -5.072  0.00  0.00    -0.066 C 
ATOM      7  H   UNL     1      -8.828  -6.133  -4.386  0.00  0.00    -0.081 HD
ENDROOT
BRANCH   1   9
ATOM      8  N   UNL     1      -5.199  -3.069  -2.748  0.00  0.00    -0.314 N 
ATOM      9  C   UNL     1      -5.882  -3.463  -3.841  0.00  0.00    +0.214 C 
ATOM     10  O   UNL     1      -5.460  -3.200  -4.947  0.00  0.00    -0.276 OA
ATOM     11  H   UNL     1      -5.536  -3.280  -1.863  0.00  0.00    +0.149 HD
BRANCH   8  12
ATOM     12  C   UNL     1      -3.947  -2.322  -2.896  0.00  0.00    +0.115 C 
BRANCH  12  13
ATOM     13  C   UNL     1      -3.379  -2.000  -1.513  0.00  0.00    +0.088 C 
BRANCH  13  14
ATOM     14  S   UNL     1      -1.829  -1.075  -1.696  0.00  0.00    -0.155 S 
BRANCH  14  15
ATOM     15  C   UNL     1      -1.293  -0.775   0.011  0.00  0.00    +0.104 C 
BRANCH  15  21
ATOM     16  C   UNL     1      -0.017   1.378   0.010  0.00  0.00    +0.006 A 
ATOM     17  C   UNL     1       1.171   2.086   0.002  0.00  0.00    +0.020 A 
ATOM     18  C   UNL     1       2.378   1.410  -0.013  0.00  0.00    +0.041 A 
ATOM     19  C   UNL     1       2.396   0.027  -0.021  0.00  0.00    +0.020 A 
ATOM     20  C   UNL     1       1.208  -0.679  -0.013  0.00  0.00    +0.006 A 
ATOM     21  C   UNL     1       0.002  -0.004   0.002  0.00  0.00    -0.037 A 
ATOM     22 CL   UNL     1       3.870   2.298  -0.023  0.00  0.00    -0.084 Cl
ENDBRANCH  15  21
ENDBRANCH  14  15
ENDBRANCH  13  14
ENDBRANCH  12  13
ENDBRANCH   8  12
ENDBRANCH   1   9
BRANCH   5  23
ATOM     23  C   UNL     1      -9.499  -5.670  -6.255  0.00  0.00    -0.043 C 
BRANCH  23  24
ATOM     24  C   UNL     1     -10.715  -6.548  -6.104  0.00  0.00    -0.062 A 
ATOM     25  C   UNL     1     -10.570  -7.920  -6.023  0.00  0.00    +0.003 A 
ATOM     26  C   UNL     1     -11.685  -8.726  -5.885  0.00  0.00    +0.021 A 
ATOM     27  C   UNL     1     -12.945  -8.159  -5.827  0.00  0.00    +0.059 A 
ATOM     28  C   UNL     1     -13.090  -6.785  -5.908  0.00  0.00    +0.059 A 
ATOM     29  C   UNL     1     -11.973  -5.979  -6.042  0.00  0.00    +0.023 A 
ATOM     30 CL   UNL     1     -14.671  -6.072  -5.837  0.00  0.00    -0.082 Cl
ATOM     31 CL   UNL     1     -14.346  -9.171  -5.654  0.00  0.00    -0.082 Cl
ENDBRANCH  23  24
ENDBRANCH   5  23
TORSDOF 8
