REMARK  Name = ZINC39689397
REMARK  7 active torsions:
REMARK  status: ('A' for Active; 'I' for Inactive)
REMARK    1  A    between atoms: C_1  and  C_2
REMARK    2  A    between atoms: C_6  and  C_8
REMARK    3  A    between atoms: C_8  and  C_9
REMARK    4  A    between atoms: C_9  and  N_10
REMARK    5  A    between atoms: C_11  and  C_13
REMARK    6  A    between atoms: C_24  and  C_26
REMARK    7  A    between atoms: C_30  and  C_32
REMARK                            x       y       z     vdW  Elec       q    Type
REMARK                         _______ _______ _______ _____ _____    ______ ____
ROOT
ATOM      1  C   UNL     1       2.454  -5.221   6.627  0.00  0.00    +0.100 C 
ATOM      2  C   UNL     1       1.761  -6.506   6.122  0.00  0.00    +0.121 C 
ATOM      3  N   UNL     1       2.874  -7.424   5.785  0.00  0.00    -0.296 N 
ATOM      4  C   UNL     1       3.872  -7.204   6.859  0.00  0.00    +0.115 C 
ATOM      5  C   UNL     1       3.838  -5.683   7.112  0.00  0.00    -0.004 C 
ATOM      6  C   UNL     1       4.938  -4.991   6.312  0.00  0.00    -0.010 C 
ATOM      7  C   UNL     1       6.304  -5.424   6.851  0.00  0.00    -0.082 C 
ATOM      8  N   UNL     1       6.407  -5.068   8.271  0.00  0.00    +0.379 N 
ATOM      9  C   UNL     1       5.405  -5.809   9.047  0.00  0.00    -0.082 C 
ATOM     10  C   UNL     1       4.001  -5.393   8.601  0.00  0.00    -0.010 C 
ATOM     11  C   UNL     1       2.959  -8.270   4.739  0.00  0.00    +0.247 C 
ATOM     12  O   UNL     1       2.111  -8.247   3.869  0.00  0.00    -0.270 OA
ATOM     13  H   UNL     1       7.330  -5.299   8.608  0.00  0.00    -0.086 HD
ATOM     14  H   UNL     1       6.250  -4.077   8.380  0.00  0.00    -0.086 HD
ENDROOT
BRANCH  11  15
ATOM     15  C   UNL     1       4.085  -9.224   4.649  0.00  0.00    +0.037 A 
ATOM     16  C   UNL     1       4.802  -9.571   5.796  0.00  0.00    +0.014 A 
ATOM     17  C   UNL     1       5.851 -10.461   5.706  0.00  0.00    +0.016 A 
ATOM     18  C   UNL     1       6.194 -11.011   4.482  0.00  0.00    +0.021 A 
ATOM     19  C   UNL     1       5.486 -10.670   3.341  0.00  0.00    -0.036 A 
ATOM     20  C   UNL     1       4.431  -9.785   3.420  0.00  0.00    +0.017 A 
ATOM     21  C   UNL     1       5.866 -11.273   2.013  0.00  0.00    +0.045 C 
ATOM     22 BR   UNL     1       7.634 -12.230   4.367  0.00  0.00    -0.050 Br
ENDBRANCH  11  15
BRANCH   1  24
ATOM     23  N   UNL     1       2.719  -2.912   5.778  0.00  0.00    -0.315 N 
ATOM     24  C   UNL     1       2.598  -4.226   5.504  0.00  0.00    +0.218 C 
ATOM     25  O   UNL     1       2.604  -4.608   4.353  0.00  0.00    -0.275 OA
ATOM     26  H   UNL     1       2.715  -2.607   6.699  0.00  0.00    +0.149 HD
BRANCH  23  27
ATOM     27  C   UNL     1       2.859  -1.946   4.686  0.00  0.00    +0.109 C 
BRANCH  27  28
ATOM     28  C   UNL     1       2.978  -0.535   5.266  0.00  0.00    +0.054 C 
BRANCH  28  34
ATOM     29  C   UNL     1       5.879   2.077   2.134  0.00  0.00    +0.044 C 
ATOM     30  C   UNL     1       4.510   1.709   2.645  0.00  0.00    -0.050 A 
ATOM     31  C   UNL     1       3.385   2.284   2.083  0.00  0.00    +0.003 A 
ATOM     32  C   UNL     1       2.129   1.948   2.551  0.00  0.00    +0.001 A 
ATOM     33  C   UNL     1       1.998   1.035   3.582  0.00  0.00    +0.004 A 
ATOM     34  C   UNL     1       3.122   0.459   4.143  0.00  0.00    -0.046 A 
ATOM     35  C   UNL     1       4.378   0.793   3.671  0.00  0.00    +0.007 A 
ENDBRANCH  28  34
ENDBRANCH  27  28
ENDBRANCH  23  27
ENDBRANCH   1  24
TORSDOF 5
