REMARK  Name = ZINC09429154
REMARK  12 active torsions:
REMARK  status: ('A' for Active; 'I' for Inactive)
REMARK    1  A    between atoms: C_1  and  C_2
REMARK    2  A    between atoms: C_6  and  C_25
REMARK    3  A    between atoms: C_7  and  C_11
REMARK    4  A    between atoms: C_11  and  C_12
REMARK    5  A    between atoms: N_14  and  C_15
REMARK    6  A    between atoms: C_15  and  C_16
REMARK    7  A    between atoms: C_16  and  C_18
REMARK    8  A    between atoms: C_16  and  O_24
REMARK    9  A    between atoms: C_28  and  C_31
REMARK   10  A    between atoms: C_31  and  C_32
REMARK   11  A    between atoms: C_31  and  C_33
REMARK   12  A    between atoms: C_31  and  C_34
REMARK                            x       y       z     vdW  Elec       q    Type
REMARK                         _______ _______ _______ _____ _____    ______ ____
ROOT
ATOM      1  C   UNL     1      -6.279  -0.915   0.145  0.00  0.00    +0.044 C 
ATOM      2  C   UNL     1      -4.839  -1.321   0.323  0.00  0.00    -0.036 A 
ATOM      3  C   UNL     1      -4.528  -2.631   0.546  0.00  0.00    +0.051 A 
ATOM      4  C   UNL     1      -3.202  -3.025   0.713  0.00  0.00    +0.143 A 
ATOM      5  C   UNL     1      -2.175  -2.069   0.651  0.00  0.00    +0.064 A 
ATOM      6  C   UNL     1      -0.788  -2.501   0.830  0.00  0.00    -0.026 A 
ATOM      7  C   UNL     1      -0.550  -3.821   1.049  0.00  0.00    +0.049 A 
ATOM      8  C   UNL     1      -1.629  -4.727   1.099  0.00  0.00    +0.341 A 
ATOM      9  O   UNL     1      -1.403  -5.908   1.296  0.00  0.00    -0.245 OA
ATOM     10  O   UNL     1      -2.897  -4.322   0.934  0.00  0.00    -0.422 OA
ATOM     11  C   UNL     1       0.344  -1.509   0.772  0.00  0.00    +0.045 C 
ATOM     12  C   UNL     1      -2.489  -0.718   0.427  0.00  0.00    +0.146 A 
ATOM     13  C   UNL     1      -3.832  -0.354   0.259  0.00  0.00    +0.028 A 
ATOM     14  C   UNL     1      -3.820   1.098   0.041  0.00  0.00    +0.004 A 
ATOM     15  C   UNL     1      -2.534   1.472   0.088  0.00  0.00    +0.200 A 
ATOM     16  O   UNL     1      -1.752   0.402   0.313  0.00  0.00    -0.462 OA
ENDROOT
BRANCH  14  17
ATOM     17  C   UNL     1      -5.013   1.989  -0.190  0.00  0.00    -0.009 C 
ATOM     18  C   UNL     1      -4.559   3.449  -0.237  0.00  0.00    +0.015 C 
ATOM     19  C   UNL     1      -5.677   1.618  -1.518  0.00  0.00    +0.015 C 
ATOM     20  C   UNL     1      -6.016   1.803   0.950  0.00  0.00    +0.015 C 
ENDBRANCH  14  17
BRANCH   7  21
ATOM     21  C   UNL     1       0.862  -4.314   1.239  0.00  0.00    +0.138 C 
BRANCH  21  22
ATOM     22  C   UNL     1       1.446  -4.690  -0.099  0.00  0.00    +0.218 C 
ATOM     23  O   UNL     1       0.782  -4.569  -1.106  0.00  0.00    -0.275 OA
ATOM     24  N   UNL     1       2.707  -5.160  -0.175  0.00  0.00    -0.312 N 
ATOM     25  H   UNL     1       3.238  -5.256   0.631  0.00  0.00    +0.149 HD
BRANCH  24  26
ATOM     26  C   UNL     1       3.275  -5.525  -1.475  0.00  0.00    +0.140 C 
BRANCH  26  27
ATOM     27  C   UNL     1       4.708  -6.025  -1.282  0.00  0.00    +0.162 C 
BRANCH  27  28
ATOM     28  C   UNL     1       5.293  -6.401  -2.620  0.00  0.00    -0.018 A 
ATOM     29  C   UNL     1       5.873  -5.433  -3.417  0.00  0.00    +0.006 A 
ATOM     30  C   UNL     1       6.413  -5.778  -4.642  0.00  0.00    +0.000 A 
ATOM     31  C   UNL     1       6.364  -7.091  -5.073  0.00  0.00    +0.000 A 
ATOM     32  C   UNL     1       5.780  -8.058  -4.278  0.00  0.00    +0.000 A 
ATOM     33  C   UNL     1       5.244  -7.713  -3.051  0.00  0.00    +0.006 A 
ENDBRANCH  27  28
BRANCH  27  34
ATOM     34  O   UNL     1       5.498  -4.992  -0.691  0.00  0.00    -0.386 OA
ATOM     35  H   UNL     1       5.547  -4.183  -1.219  0.00  0.00    +0.210 HD
ENDBRANCH  27  34
ENDBRANCH  26  27
ENDBRANCH  24  26
ENDBRANCH  21  22
ENDBRANCH   7  21
TORSDOF 7
