REMARK  Name = ZINC00246990
REMARK  5 active torsions:
REMARK  status: ('A' for Active; 'I' for Inactive)
REMARK    1  A    between atoms: C_1  and  C_2
REMARK    2  A    between atoms: C_2  and  C_3
REMARK    3  A    between atoms: N_5  and  C_6
REMARK    4  A    between atoms: N_5  and  C_12
REMARK    5  A    between atoms: C_15  and  C_24
REMARK                            x       y       z     vdW  Elec       q    Type
REMARK                         _______ _______ _______ _____ _____    ______ ____
ROOT
ATOM      1  C   UNL     1      -1.178  -0.807  -0.695  0.00  0.00    +0.115 C 
ATOM      2  C   UNL     1      -1.704  -0.841   0.740  0.00  0.00    +0.049 C 
ATOM      3  C   UNL     1      -0.751  -1.685   1.596  0.00  0.00    +0.069 C 
ATOM      4  N   UNL     1      -0.775  -3.058   1.075  0.00  0.00    -0.341 N 
ATOM      5  C   UNL     1      -0.711  -3.257  -0.309  0.00  0.00    +0.032 A 
ATOM      6  C   UNL     1      -0.902  -2.202  -1.188  0.00  0.00    -0.006 A 
ATOM      7  C   UNL     1      -0.838  -2.430  -2.553  0.00  0.00    +0.007 A 
ATOM      8  C   UNL     1      -0.582  -3.699  -3.036  0.00  0.00    +0.000 A 
ATOM      9  C   UNL     1      -0.388  -4.751  -2.160  0.00  0.00    +0.002 A 
ATOM     10  C   UNL     1      -0.452  -4.533  -0.798  0.00  0.00    +0.023 A 
ATOM     11  C   UNL     1      -1.218  -1.676   3.053  0.00  0.00    +0.028 C 
ATOM     12  H   UNL     1      -0.834  -3.814   1.679  0.00  0.00    +0.146 HD
ENDROOT
BRANCH   1  15
ATOM     13  C   UNL     1       1.210  -0.555  -0.282  0.00  0.00    +0.220 C 
ATOM     14  O   UNL     1       1.249  -1.720   0.052  0.00  0.00    -0.275 OA
ATOM     15  N   UNL     1       0.059  -0.023  -0.740  0.00  0.00    -0.264 N 
BRANCH  15  16
ATOM     16  C   UNL     1       0.046   1.276  -1.258  0.00  0.00    +0.037 A 
ATOM     17  C   UNL     1      -0.738   1.577  -2.365  0.00  0.00    +0.023 A 
ATOM     18  C   UNL     1      -0.752   2.861  -2.871  0.00  0.00    +0.002 A 
ATOM     19  C   UNL     1       0.021   3.846  -2.283  0.00  0.00    +0.000 A 
ATOM     20  C   UNL     1       0.805   3.550  -1.183  0.00  0.00    +0.002 A 
ATOM     21  C   UNL     1       0.820   2.268  -0.669  0.00  0.00    +0.023 A 
ENDBRANCH  15  16
BRANCH  13  23
ATOM     22  C   UNL     1       3.685  -0.567  -0.426  0.00  0.00    +0.013 C 
ATOM     23  C   UNL     1       2.447   0.299  -0.184  0.00  0.00    +0.093 C 
ENDBRANCH  13  23
ENDBRANCH   1  15
TORSDOF 3
