REMARK  Name = ZINC33569693
REMARK  4 active torsions:
REMARK  status: ('A' for Active; 'I' for Inactive)
REMARK    1  A    between atoms: C_1  and  C_2
REMARK    2  A    between atoms: C_5  and  N_8
REMARK    3  A    between atoms: C_11  and  N_16
REMARK    4  A    between atoms: N_16  and  C_17
REMARK                            x       y       z     vdW  Elec       q    Type
REMARK                         _______ _______ _______ _____ _____    ______ ____
ROOT
ATOM      1  N   UNL     1       2.613   7.424   1.824  0.00  0.00    -0.199 N 
ATOM      2  C   UNL     1       3.139   7.277   0.620  0.00  0.00    +0.258 C 
ATOM      3  O   UNL     1       4.257   7.660   0.349  0.00  0.00    -0.272 OA
ATOM      4  C   UNL     1       2.244   6.594  -0.404  0.00  0.00    +0.226 C 
ATOM      5  S   UNL     1       0.757   6.289   0.632  0.00  0.00    -0.035 S 
ATOM      6  C   UNL     1       1.375   7.006   2.147  0.00  0.00    +0.287 C 
ATOM      7  O   UNL     1       0.810   7.095   3.219  0.00  0.00    -0.262 OA
ENDROOT
BRANCH   1  12
ATOM      8  C   UNL     1       5.737   9.941   5.839  0.00  0.00    +0.044 C 
ATOM      9  C   UNL     1       4.908   9.273   4.773  0.00  0.00    -0.050 A 
ATOM     10  C   UNL     1       4.098  10.034   3.950  0.00  0.00    +0.005 A 
ATOM     11  C   UNL     1       3.336   9.424   2.973  0.00  0.00    +0.024 A 
ATOM     12  C   UNL     1       3.385   8.046   2.816  0.00  0.00    +0.045 A 
ATOM     13  C   UNL     1       4.196   7.284   3.647  0.00  0.00    +0.024 A 
ATOM     14  C   UNL     1       4.958   7.900   4.619  0.00  0.00    +0.005 A 
ENDBRANCH   1  12
BRANCH   4  15
ATOM     15  N   UNL     1       2.833   5.337  -0.873  0.00  0.00    -0.324 N 
ATOM     16  H   UNL     1       3.925   5.247  -0.978  0.00  0.00    +0.148 HD
BRANCH  15  17
ATOM     17  C   UNL     1       2.010   4.253  -1.186  0.00  0.00    +0.031 A 
ATOM     18  C   UNL     1       0.721   4.472  -1.655  0.00  0.00    +0.043 A 
ATOM     19  C   UNL     1      -0.092   3.398  -1.965  0.00  0.00    +0.044 A 
ATOM     20  C   UNL     1       0.376   2.105  -1.804  0.00  0.00    +0.040 A 
ATOM     21  C   UNL     1       1.662   1.885  -1.343  0.00  0.00    +0.044 A 
ATOM     22  C   UNL     1       2.479   2.955  -1.031  0.00  0.00    +0.043 A 
ATOM     23 CL   UNL     1       2.248   0.262  -1.149  0.00  0.00    -0.083 Cl
ATOM     24 CL   UNL     1      -1.704   3.670  -2.550  0.00  0.00    -0.083 Cl
ENDBRANCH  15  17
ENDBRANCH   4  15
TORSDOF 3
