REMARK  Name = ZINC21328065
REMARK  9 active torsions:
REMARK  status: ('A' for Active; 'I' for Inactive)
REMARK    1  A    between atoms: C_1  and  C_2
REMARK    2  A    between atoms: C_4  and  C_26
REMARK    3  A    between atoms: C_6  and  C_8
REMARK    4  A    between atoms: C_8  and  O_9
REMARK    5  A    between atoms: O_9  and  C_10
REMARK    6  A    between atoms: C_10  and  C_12
REMARK    7  A    between atoms: C_12  and  C_13
REMARK    8  A    between atoms: C_13  and  C_15
REMARK    9  A    between atoms: C_13  and  N_22
REMARK                            x       y       z     vdW  Elec       q    Type
REMARK                         _______ _______ _______ _____ _____    ______ ____
ROOT
ATOM      1  C   UNL     1      -0.117   1.154  -4.844  0.00  0.00    +0.115 C 
ENDROOT
BRANCH   1   2
ATOM      2  C   UNL     1      -0.970   1.655  -5.981  0.00  0.00    -0.027 A 
ATOM      3  C   UNL     1      -2.341   1.740  -5.830  0.00  0.00    +0.007 A 
ATOM      4  C   UNL     1      -3.124   2.204  -6.870  0.00  0.00    +0.020 A 
ATOM      5  C   UNL     1      -2.536   2.573  -8.067  0.00  0.00    +0.041 A 
ATOM      6  C   UNL     1      -1.163   2.482  -8.219  0.00  0.00    +0.020 A 
ATOM      7  C   UNL     1      -0.381   2.023  -7.176  0.00  0.00    +0.007 A 
ATOM      8 CL   UNL     1      -3.519   3.149  -9.377  0.00  0.00    -0.084 Cl
ENDBRANCH   1   2
BRANCH   1   9
ATOM      9  N   UNL     1       1.168   1.859  -4.850  0.00  0.00    -0.292 N 
ATOM     10  C   UNL     1       1.198   3.205  -4.793  0.00  0.00    +0.298 C 
ATOM     11  O   UNL     1       0.166   3.830  -4.642  0.00  0.00    -0.253 OA
ATOM     12  N   UNL     1       2.371   3.858  -4.904  0.00  0.00    -0.313 N 
ATOM     13  H   UNL     1       2.107   1.290  -4.901  0.00  0.00    +0.151 HD
ATOM     14  H   UNL     1       2.396   4.957  -4.857  0.00  0.00    +0.146 HD
ATOM     15  H   UNL     1       3.305   3.293  -5.041  0.00  0.00    +0.146 HD
ENDBRANCH   1   9
BRANCH   1  16
ATOM     16  C   UNL     1      -0.833   1.411  -3.517  0.00  0.00    +0.147 C 
BRANCH  16  17
ATOM     17  C   UNL     1      -0.039   0.802  -2.391  0.00  0.00    +0.310 C 
ATOM     18  O   UNL     1       0.995   0.222  -2.625  0.00  0.00    -0.251 OA
BRANCH  17  19
ATOM     19  O   UNL     1      -0.479   0.904  -1.127  0.00  0.00    -0.460 OA
BRANCH  19  20
ATOM     20  C   UNL     1       0.338   0.293  -0.093  0.00  0.00    +0.267 C 
BRANCH  20  26
ATOM     21  C   UNL     1      -0.260   3.052   4.039  0.00  0.00    +0.044 C 
ATOM     22  C   UNL     1      -0.596   1.827   3.228  0.00  0.00    -0.050 A 
ATOM     23  C   UNL     1      -1.498   0.901   3.716  0.00  0.00    +0.006 A 
ATOM     24  C   UNL     1      -1.806  -0.222   2.972  0.00  0.00    -0.050 A 
ATOM     25  C   UNL     1      -1.212  -0.419   1.739  0.00  0.00    +0.010 A 
ATOM     26  C   UNL     1      -0.310   0.508   1.251  0.00  0.00    -0.010 A 
ATOM     27  C   UNL     1       0.002   1.629   1.998  0.00  0.00    +0.010 A 
ATOM     28  C   UNL     1      -2.790  -1.232   3.504  0.00  0.00    +0.044 C 
ENDBRANCH  20  26
ENDBRANCH  19  20
ENDBRANCH  17  19
ENDBRANCH  16  17
ENDBRANCH   1  16
TORSDOF 7
