REMARK  Name = ZINC18580904
REMARK  13 active torsions:
REMARK  status: ('A' for Active; 'I' for Inactive)
REMARK    1  A    between atoms: C_1  and  C_2
REMARK    2  A    between atoms: C_2  and  C_3
REMARK    3  A    between atoms: C_3  and  C_5
REMARK    4  A    between atoms: C_3  and  C_6
REMARK    5  A    between atoms: C_6  and  C_7
REMARK    6  A    between atoms: C_8  and  C_35
REMARK    7  A    between atoms: C_16  and  S_18
REMARK    8  A    between atoms: S_18  and  C_19
REMARK    9  A    between atoms: C_19  and  C_21
REMARK   10  A    between atoms: C_19  and  C_22
REMARK   11  A    between atoms: N_24  and  C_25
REMARK   12  A    between atoms: C_29  and  S_31
REMARK   13  A    between atoms: S_31  and  N_34
REMARK                            x       y       z     vdW  Elec       q    Type
REMARK                         _______ _______ _______ _____ _____    ______ ____
ROOT
ATOM      1  S   UNL     1       1.683   1.710  -0.010  0.00  0.00    -0.075 S 
ENDROOT
BRANCH   1  11
ATOM      2  C   UNL     1       3.554  -1.133  -4.897  0.00  0.00    -0.023 A 
ATOM      3  C   UNL     1       2.600  -1.891  -5.456  0.00  0.00    -0.007 A 
ATOM      4  S   UNL     1       1.194  -1.641  -4.389  0.00  0.00    -0.073 S 
ATOM      5  C   UNL     1       1.929  -0.525  -3.222  0.00  0.00    +0.117 A 
ATOM      6  C   UNL     1       3.246  -0.377  -3.695  0.00  0.00    +0.075 A 
ATOM      7  C   UNL     1       4.089   0.489  -2.929  0.00  0.00    +0.261 A 
ATOM      8  O   UNL     1       5.246   0.678  -3.263  0.00  0.00    -0.267 OA
ATOM      9  N   UNL     1       3.587   1.094  -1.837  0.00  0.00    -0.301 N 
ATOM     10  H   UNL     1       4.155   1.682  -1.316  0.00  0.00    +0.171 HD
ATOM     11  C   UNL     1       2.294   0.895  -1.449  0.00  0.00    +0.171 A 
ATOM     12  N   UNL     1       1.498   0.098  -2.132  0.00  0.00    -0.216 NA
ATOM     13  C   UNL     1       2.693  -2.750  -6.691  0.00  0.00    +0.052 C 
BRANCH   2  14
ATOM     14  C   UNL     1       4.929  -1.064  -5.509  0.00  0.00    +0.040 C 
BRANCH  14  15
ATOM     15  C   UNL     1       5.811  -2.160  -4.907  0.00  0.00    -0.010 C 
ATOM     16  C   UNL     1       5.260  -3.532  -5.301  0.00  0.00    +0.008 C 
BRANCH  15  18
ATOM     17  C   UNL     1       8.147  -3.029  -4.738  0.00  0.00    +0.004 C 
ATOM     18  C   UNL     1       7.239  -2.013  -5.434  0.00  0.00    +0.000 C 
ENDBRANCH  15  18
ENDBRANCH  14  15
ENDBRANCH   2  14
ENDBRANCH   1  11
BRANCH   1  19
ATOM     19  C   UNL     1      -0.017   1.089   0.004  0.00  0.00    +0.137 C 
ATOM     20  C   UNL     1      -0.759   1.606  -1.230  0.00  0.00    +0.029 C 
BRANCH  19  21
ATOM     21  C   UNL     1      -0.717   1.571   1.249  0.00  0.00    +0.230 C 
ATOM     22  O   UNL     1      -0.341   2.582   1.803  0.00  0.00    -0.274 OA
ATOM     23  N   UNL     1      -1.761   0.878   1.746  0.00  0.00    -0.285 N 
ATOM     24  H   UNL     1      -2.104   0.108   1.266  0.00  0.00    +0.155 HD
BRANCH  23  25
ATOM     25  C   UNL     1      -2.349   1.270   2.953  0.00  0.00    +0.035 A 
ATOM     26  C   UNL     1      -2.437   2.617   3.280  0.00  0.00    +0.023 A 
ATOM     27  C   UNL     1      -3.018   3.000   4.473  0.00  0.00    +0.004 A 
ATOM     28  C   UNL     1      -3.513   2.044   5.341  0.00  0.00    +0.028 A 
ATOM     29  C   UNL     1      -3.426   0.702   5.019  0.00  0.00    +0.107 A 
ATOM     30  C   UNL     1      -2.852   0.313   3.825  0.00  0.00    +0.051 A 
BRANCH  29  31
ATOM     31  S   UNL     1      -4.058  -0.512   6.129  0.00  0.00    +0.056 S 
ATOM     32  O   UNL     1      -3.366  -1.720   5.846  0.00  0.00    -0.153 OA
ATOM     33  O   UNL     1      -4.060   0.081   7.421  0.00  0.00    -0.153 OA
BRANCH  31  34
ATOM     34  N   UNL     1      -5.643  -0.768   5.724  0.00  0.00    -0.204 NA
ATOM     35  H   UNL     1      -6.041  -0.277   4.988  0.00  0.00    +0.144 HD
ATOM     36  H   UNL     1      -6.174  -1.409   6.223  0.00  0.00    +0.144 HD
ENDBRANCH  31  34
ENDBRANCH  29  31
ENDBRANCH  23  25
ENDBRANCH  19  21
ENDBRANCH   1  19
TORSDOF 9
