REMARK  Name = ZINC12304003
REMARK  5 active torsions:
REMARK  status: ('A' for Active; 'I' for Inactive)
REMARK    1  A    between atoms: N_4  and  C_6
REMARK    2  A    between atoms: C_9  and  C_12
REMARK    3  A    between atoms: C_12  and  N_52
REMARK    4  A    between atoms: C_16  and  N_19
REMARK    5  A    between atoms: N_19  and  C_20
REMARK                            x       y       z     vdW  Elec       q    Type
REMARK                         _______ _______ _______ _____ _____    ______ ____
ROOT
ATOM      1  C   UNL     1       7.854   2.043  -2.132  0.00  0.00    -0.078 C 
ATOM      2  C   UNL     1       8.488   2.080  -3.524  0.00  0.00    -0.017 C 
ATOM      3  C   UNL     1       7.992   0.881  -4.338  0.00  0.00    +0.018 C 
ATOM      4  C   UNL     1       8.341  -0.410  -3.593  0.00  0.00    +0.054 C 
ATOM      5  C   UNL     1       7.712  -0.376  -2.199  0.00  0.00    -0.056 C 
ATOM      6  N   UNL     1       8.248   0.786  -1.459  0.00  0.00    +0.384 N 
ATOM      7  H   UNL     1       9.273   0.726  -1.441  0.00  0.00    -0.081 HD
ENDROOT
BRANCH   4   8
ATOM      8  N   UNL     1       7.820  -1.560  -4.337  0.00  0.00    -0.343 N 
ATOM      9  H   UNL     1       6.956  -1.935  -4.106  0.00  0.00    +0.146 HD
BRANCH   8  10
ATOM     10  C   UNL     1       8.569  -2.117  -5.379  0.00  0.00    +0.031 A 
ATOM     11  C   UNL     1       9.807  -1.580  -5.708  0.00  0.00    +0.027 A 
ATOM     12  C   UNL     1      10.548  -2.130  -6.738  0.00  0.00    +0.051 A 
ATOM     13  C   UNL     1      10.059  -3.217  -7.443  0.00  0.00    +0.166 A 
ATOM     14  C   UNL     1       8.818  -3.758  -7.115  0.00  0.00    +0.168 A 
ATOM     15  C   UNL     1       8.078  -3.210  -6.080  0.00  0.00    +0.072 A 
ATOM     16  O   UNL     1       8.566  -4.810  -7.947  0.00  0.00    -0.453 OA
ATOM     17  C   UNL     1       9.475  -4.652  -9.052  0.00  0.00    +0.466 C 
ATOM     18  O   UNL     1      10.584  -3.931  -8.483  0.00  0.00    -0.453 OA
ENDBRANCH   8  10
ENDBRANCH   4   8
BRANCH   6  19
ATOM     19  C   UNL     1       7.743   0.778  -0.070  0.00  0.00    -0.043 C 
BRANCH  19  23
ATOM     20  C   UNL     1       3.469   0.750  -0.028  0.00  0.00    +0.065 A 
ATOM     21  C   UNL     1       4.157   1.956  -0.034  0.00  0.00    +0.028 A 
ATOM     22  C   UNL     1       5.538   1.962  -0.042  0.00  0.00    +0.004 A 
ATOM     23  C   UNL     1       6.236   0.768  -0.055  0.00  0.00    -0.064 A 
ATOM     24  C   UNL     1       5.554  -0.435  -0.055  0.00  0.00    +0.004 A 
ATOM     25  C   UNL     1       4.173  -0.447  -0.041  0.00  0.00    +0.028 A 
BRANCH  20  29
ATOM     26  C   UNL     1      -0.017   1.395   0.010  0.00  0.00    +0.041 A 
ATOM     27  C   UNL     1       0.002  -0.004   0.002  0.00  0.00    +0.135 A 
ATOM     28  N   UNL     1       1.250  -0.397  -0.012  0.00  0.00    -0.175 NA
ATOM     29  N   UNL     1       2.068   0.741  -0.014  0.00  0.00    -0.240 N 
ATOM     30  C   UNL     1       1.265   1.829  -0.000  0.00  0.00    +0.114 A 
ENDBRANCH  20  29
ENDBRANCH  19  23
ENDBRANCH   6  19
TORSDOF 5
