REMARK  Name = ZINC15901232
REMARK  6 active torsions:
REMARK  status: ('A' for Active; 'I' for Inactive)
REMARK    1  A    between atoms: N_10  and  C_11
REMARK    2  A    between atoms: C_11  and  C_12
REMARK    3  A    between atoms: N_14  and  N_15
REMARK    4  A    between atoms: C_16  and  C_18
REMARK    5  A    between atoms: C_18  and  C_19
REMARK    6  A    between atoms: C_19  and  C_20
REMARK                            x       y       z     vdW  Elec       q    Type
REMARK                         _______ _______ _______ _____ _____    ______ ____
ROOT
ATOM      1  N   UNL     1      -2.340  10.571  -5.432  0.00  0.00    -0.234 N 
ATOM      2  C   UNL     1      -2.216   9.264  -5.736  0.00  0.00    +0.229 C 
ATOM      3  O   UNL     1      -2.432   8.881  -6.866  0.00  0.00    -0.274 OA
ATOM      4  H   UNL     1      -2.167  10.877  -4.528  0.00  0.00    +0.173 HD
ENDROOT
BRANCH   1   7
ATOM      5  C   UNL     1      -2.842  12.794  -6.117  0.00  0.00    +0.246 C 
ATOM      6  O   UNL     1      -2.626  13.177  -4.987  0.00  0.00    -0.273 OA
ATOM      7  N   UNL     1      -2.718  11.487  -6.421  0.00  0.00    -0.233 N 
ATOM      8  H   UNL     1      -2.891  11.181  -7.325  0.00  0.00    +0.173 HD
BRANCH   5   9
ATOM      9  C   UNL     1      -3.249  13.781  -7.182  0.00  0.00    +0.202 C 
BRANCH   9  19
ATOM     10  C   UNL     1      -6.293  14.855  -3.548  0.00  0.00    +0.000 A 
ATOM     11  C   UNL     1      -6.390  14.066  -4.679  0.00  0.00    +0.002 A 
ATOM     12  C   UNL     1      -5.435  14.161  -5.668  0.00  0.00    +0.023 A 
ATOM     13  C   UNL     1      -4.367  15.051  -5.537  0.00  0.00    +0.033 A 
ATOM     14  C   UNL     1      -4.272  15.834  -4.400  0.00  0.00    -0.026 A 
ATOM     15  C   UNL     1      -5.237  15.734  -3.410  0.00  0.00    +0.005 A 
ATOM     16  C   UNL     1      -3.139  16.807  -4.192  0.00  0.00    +0.038 C 
ATOM     17  C   UNL     1      -2.419  17.050  -5.521  0.00  0.00    +0.024 C 
ATOM     18  C   UNL     1      -2.157  15.686  -6.171  0.00  0.00    +0.106 C 
ATOM     19  N   UNL     1      -3.439  15.105  -6.575  0.00  0.00    -0.321 N 
ENDBRANCH   9  19
ENDBRANCH   5   9
ENDBRANCH   1   7
BRANCH   2  20
ATOM     20  C   UNL     1      -1.809   8.277  -4.671  0.00  0.00    +0.105 C 
BRANCH  20  21
ATOM     21  C   UNL     1      -1.743   6.873  -5.275  0.00  0.00    +0.083 C 
BRANCH  21  22
ATOM     22  C   UNL     1      -1.336   5.887  -4.211  0.00  0.00    +0.111 A 
ATOM     23  N   UNL     1      -1.221   4.581  -4.550  0.00  0.00    -0.310 N 
ATOM     24  H   UNL     1      -1.404   4.323  -5.467  0.00  0.00    +0.170 HD
ATOM     25  C   UNL     1      -0.861   3.617  -3.669  0.00  0.00    +0.260 A 
ATOM     26  O   UNL     1      -0.761   2.446  -3.993  0.00  0.00    -0.267 OA
ATOM     27  C   UNL     1      -0.605   4.063  -2.329  0.00  0.00    +0.075 A 
ATOM     28  C   UNL     1      -0.208   3.242  -1.199  0.00  0.00    -0.023 A 
ATOM     29  C   UNL     1      -0.020   3.881  -0.021  0.00  0.00    -0.004 A 
ATOM     30  S   UNL     1      -0.359   5.590  -0.360  0.00  0.00    -0.073 S 
ATOM     31  C   UNL     1      -0.752   5.445  -2.074  0.00  0.00    +0.116 A 
ATOM     32  N   UNL     1      -1.109   6.334  -2.995  0.00  0.00    -0.227 NA
ATOM     33  C   UNL     1       0.386   3.274   1.286  0.00  0.00    +0.043 C 
ATOM     34  C   UNL     1       0.201   1.752   1.192  0.00  0.00    +0.005 C 
ATOM     35  C   UNL     1       0.833   1.262  -0.114  0.00  0.00    +0.005 C 
ATOM     36  C   UNL     1      -0.005   1.733  -1.303  0.00  0.00    +0.037 C 
ENDBRANCH  21  22
ENDBRANCH  20  21
ENDBRANCH   2  20
TORSDOF 6
