REMARK  Name = ZINC35363924
REMARK  6 active torsions:
REMARK  status: ('A' for Active; 'I' for Inactive)
REMARK    1  A    between atoms: C_1  and  C_2
REMARK    2  A    between atoms: C_2  and  C_3
REMARK    3  A    between atoms: C_3  and  C_5
REMARK    4  A    between atoms: C_3  and  N_6
REMARK    5  A    between atoms: C_11  and  C_28
REMARK    6  A    between atoms: C_28  and  C_29
REMARK                            x       y       z     vdW  Elec       q    Type
REMARK                         _______ _______ _______ _____ _____    ______ ____
ROOT
ATOM      1  N   UNL     1      -2.082  -0.162   1.273  0.00  0.00    -0.239 N 
ATOM      2  C   UNL     1      -1.617  -0.547   2.467  0.00  0.00    +0.227 C 
ATOM      3  O   UNL     1      -0.631  -1.230   2.648  0.00  0.00    -0.275 OA
ATOM      4  C   UNL     1      -2.511   0.001   3.556  0.00  0.00    +0.107 C 
ATOM      5  C   UNL     1      -3.266  -1.166   4.227  0.00  0.00    +0.072 C 
ATOM      6  N   UNL     1      -4.676  -0.704   4.321  0.00  0.00    -0.295 NA
ATOM      7  C   UNL     1      -4.904   0.022   3.058  0.00  0.00    +0.136 C 
ATOM      8  C   UNL     1      -3.592   0.792   2.766  0.00  0.00    +0.122 C 
ATOM      9  C   UNL     1      -3.183   0.596   1.324  0.00  0.00    +0.228 C 
ATOM     10  O   UNL     1      -3.765   1.052   0.363  0.00  0.00    -0.275 OA
ATOM     11  C   UNL     1      -5.265  -0.914   1.941  0.00  0.00    +0.003 A 
ATOM     12  C   UNL     1      -4.627  -1.986   1.358  0.00  0.00    +0.008 A 
ATOM     13  C   UNL     1      -5.231  -2.671   0.318  0.00  0.00    +0.000 A 
ATOM     14  C   UNL     1      -6.477  -2.276  -0.134  0.00  0.00    +0.002 A 
ATOM     15  C   UNL     1      -7.120  -1.203   0.447  0.00  0.00    +0.023 A 
ATOM     16  C   UNL     1      -6.519  -0.508   1.494  0.00  0.00    +0.039 A 
ATOM     17  N   UNL     1      -6.962   0.592   2.232  0.00  0.00    -0.283 N 
ATOM     18  C   UNL     1      -6.071   0.965   3.171  0.00  0.00    +0.243 C 
ATOM     19  O   UNL     1      -6.188   1.883   3.955  0.00  0.00    -0.273 OA
ATOM     20  H   UNL     1      -5.308  -1.486   4.407  0.00  0.00    +0.124 HD
ATOM     21  H   UNL     1      -7.812   1.035   2.085  0.00  0.00    +0.155 HD
ENDROOT
BRANCH   1  22
ATOM     22  C   UNL     1      -1.433  -0.534   0.013  0.00  0.00    +0.081 C 
ATOM     23  C   UNL     1      -1.416  -2.058  -0.121  0.00  0.00    +0.028 C 
BRANCH  22  25
ATOM     24  C   UNL     1      -0.019   1.526   0.010  0.00  0.00    +0.006 C 
ATOM     25  C   UNL     1       0.002  -0.004   0.002  0.00  0.00    +0.019 C 
ENDBRANCH  22  25
ENDBRANCH   1  22
BRANCH   5  26
ATOM     26  C   UNL     1      -2.697  -1.436   5.621  0.00  0.00    +0.056 C 
BRANCH  26  27
ATOM     27  C   UNL     1      -3.363  -2.654   6.208  0.00  0.00    -0.021 A 
ATOM     28  C   UNL     1      -4.429  -2.667   7.024  0.00  0.00    +0.087 A 
ATOM     29  N   UNL     1      -4.750  -3.956   7.352  0.00  0.00    -0.360 N 
ATOM     30  H   UNL     1      -5.484  -4.217   7.930  0.00  0.00    +0.165 HD
ATOM     31  C   UNL     1      -3.877  -4.826   6.740  0.00  0.00    +0.047 A 
ATOM     32  C   UNL     1      -2.973  -4.050   5.992  0.00  0.00    +0.003 A 
ATOM     33  C   UNL     1      -1.966  -4.672   5.252  0.00  0.00    +0.010 A 
ATOM     34  C   UNL     1      -1.865  -6.035   5.257  0.00  0.00    +0.001 A 
ATOM     35  C   UNL     1      -2.756  -6.806   5.990  0.00  0.00    +0.002 A 
ATOM     36  C   UNL     1      -3.752  -6.212   6.734  0.00  0.00    +0.026 A 
ENDBRANCH  26  27
ENDBRANCH   5  26
TORSDOF 4
