REMARK  Name = ZINC06442262
REMARK  7 active torsions:
REMARK  status: ('A' for Active; 'I' for Inactive)
REMARK    1  A    between atoms: C_1  and  C_2
REMARK    2  A    between atoms: C_7  and  C_15
REMARK    3  A    between atoms: C_13  and  C_14
REMARK    4  A    between atoms: C_15  and  C_17
REMARK    5  A    between atoms: C_15  and  N_66
REMARK    6  A    between atoms: N_21  and  C_22
REMARK    7  A    between atoms: C_30  and  C_33
REMARK                            x       y       z     vdW  Elec       q    Type
REMARK                         _______ _______ _______ _____ _____    ______ ____
ROOT
ATOM      1  C   UNL     1       2.466   1.063  -0.015  0.00  0.00    +0.039 C 
ENDROOT
BRANCH   1   8
ATOM      2  C   UNL     1      -4.952   3.994   0.046  0.00  0.00    +0.044 C 
ATOM      3  C   UNL     1      -3.652   3.230   0.037  0.00  0.00    -0.046 A 
ATOM      4  C   UNL     1      -3.672   1.842   0.030  0.00  0.00    +0.004 A 
ATOM      5  C   UNL     1      -2.506   1.131   0.020  0.00  0.00    +0.010 A 
ATOM      6  C   UNL     1      -1.281   1.807   0.018  0.00  0.00    -0.001 A 
ATOM      7  C   UNL     1      -0.013   1.076   0.008  0.00  0.00    +0.017 A 
ATOM      8  C   UNL     1       1.143   1.785   0.001  0.00  0.00    +0.011 A 
ATOM      9  C   UNL     1       1.112   3.196   0.008  0.00  0.00    +0.251 A 
ATOM     10  O   UNL     1       2.163   3.813   0.001  0.00  0.00    -0.268 OA
ATOM     11  N   UNL     1      -0.048   3.876   0.022  0.00  0.00    -0.322 N 
ATOM     12  H   UNL     1      -0.033   4.845   0.026  0.00  0.00    +0.169 HD
ATOM     13  C   UNL     1      -1.257   3.214   0.029  0.00  0.00    +0.052 A 
ATOM     14  C   UNL     1      -2.458   3.917   0.043  0.00  0.00    -0.024 A 
ATOM     15  C   UNL     1      -2.452   5.424   0.050  0.00  0.00    +0.046 C 
ENDBRANCH   1   8
BRANCH   1  22
ATOM     16  C   UNL     1       2.534   1.453   2.373  0.00  0.00    -0.077 C 
ATOM     17  C   UNL     1       3.365   2.071   3.500  0.00  0.00    -0.015 C 
ATOM     18  C   UNL     1       4.686   1.307   3.632  0.00  0.00    -0.018 C 
ATOM     19  C   UNL     1       5.428   1.351   2.293  0.00  0.00    -0.015 C 
ATOM     20  C   UNL     1       4.537   0.754   1.202  0.00  0.00    -0.077 C 
ATOM     21  C   UNL     1       5.547   1.958   4.716  0.00  0.00    +0.007 C 
ATOM     22  N   UNL     1       3.293   1.549   1.109  0.00  0.00    +0.389 N 
ATOM     23  H   UNL     1       3.538   2.532   0.941  0.00  0.00    -0.080 HD
ENDBRANCH   1  22
BRANCH   1  24
ATOM     24  C   UNL     1       3.183   1.356  -1.308  0.00  0.00    +0.143 A 
ATOM     25  N   UNL     1       3.793   2.470  -1.630  0.00  0.00    -0.115 NA
ATOM     26  N   UNL     1       4.280   2.330  -2.814  0.00  0.00    -0.023 NA
ATOM     27  N   UNL     1       3.998   1.154  -3.256  0.00  0.00    -0.044 NA
ATOM     28  N   UNL     1       3.326   0.521  -2.354  0.00  0.00    -0.227 N 
BRANCH  28  29
ATOM     29  C   UNL     1       2.814  -0.848  -2.452  0.00  0.00    +0.111 C 
ATOM     30  C   UNL     1       3.980  -1.816  -2.655  0.00  0.00    +0.027 C 
ATOM     31  C   UNL     1       3.445  -3.246  -2.757  0.00  0.00    +0.002 C 
ATOM     32  C   UNL     1       2.485  -3.347  -3.944  0.00  0.00    +0.000 C 
ATOM     33  C   UNL     1       1.318  -2.379  -3.741  0.00  0.00    +0.002 C 
ATOM     34  C   UNL     1       1.854  -0.949  -3.639  0.00  0.00    +0.027 C 
ENDBRANCH  28  29
ENDBRANCH   1  24
TORSDOF 4
