REMARK  Name = ZINC36584638
REMARK  9 active torsions:
REMARK  status: ('A' for Active; 'I' for Inactive)
REMARK    1  A    between atoms: C_1  and  C_2
REMARK    2  A    between atoms: C_2  and  C_3
REMARK    3  A    between atoms: C_3  and  C_5
REMARK    4  A    between atoms: C_3  and  C_6
REMARK    5  A    between atoms: C_6  and  C_8
REMARK    6  A    between atoms: C_6  and  N_12
REMARK    7  A    between atoms: C_8  and  O_10
REMARK    8  A    between atoms: O_10  and  C_11
REMARK    9  A    between atoms: C_24  and  C_26
REMARK                            x       y       z     vdW  Elec       q    Type
REMARK                         _______ _______ _______ _____ _____    ______ ____
ROOT
ATOM      1  N   UNL     1      -0.723   1.051  -3.412  0.00  0.00    -0.286 N 
ATOM      2  C   UNL     1      -1.639   1.800  -2.766  0.00  0.00    +0.304 C 
ATOM      3  O   UNL     1      -1.957   1.522  -1.626  0.00  0.00    -0.253 OA
ATOM      4  N   UNL     1      -2.202   2.857  -3.384  0.00  0.00    -0.273 N 
ATOM      5  C   UNL     1      -1.920   3.140  -4.800  0.00  0.00    +0.116 C 
ATOM      6  C   UNL     1      -3.215   2.993  -5.608  0.00  0.00    +0.074 C 
ATOM      7  C   UNL     1      -4.330   3.685  -4.869  0.00  0.00    +0.040 A 
ATOM      8  C   UNL     1      -4.296   4.023  -3.562  0.00  0.00    +0.062 A 
ATOM      9  N   UNL     1      -5.453   4.613  -3.255  0.00  0.00    -0.348 N 
ATOM     10  C   UNL     1      -6.207   4.658  -4.323  0.00  0.00    +0.171 A 
ATOM     11  N   UNL     1      -5.538   4.088  -5.352  0.00  0.00    -0.349 N 
ATOM     12  H   UNL     1      -5.859   3.986  -6.262  0.00  0.00    +0.166 HD
ATOM     13  C   UNL     1      -3.120   3.754  -2.660  0.00  0.00    +0.156 C 
ATOM     14  H   UNL     1      -0.416   1.314  -4.293  0.00  0.00    +0.151 HD
ATOM     15  H   UNL     1      -5.696   4.954  -2.380  0.00  0.00    +0.167 HD
ENDROOT
BRANCH  13  16
ATOM     16  C   UNL     1      -2.421   5.049  -2.335  0.00  0.00    -0.021 A 
ATOM     17  C   UNL     1      -1.989   5.876  -3.355  0.00  0.00    +0.007 A 
ATOM     18  C   UNL     1      -1.349   7.064  -3.058  0.00  0.00    +0.020 A 
ATOM     19  C   UNL     1      -1.140   7.426  -1.739  0.00  0.00    +0.041 A 
ATOM     20  C   UNL     1      -1.573   6.598  -0.718  0.00  0.00    +0.020 A 
ATOM     21  C   UNL     1      -2.218   5.413  -1.017  0.00  0.00    +0.007 A 
ATOM     22 CL   UNL     1      -0.335   8.918  -1.365  0.00  0.00    -0.084 Cl
ENDBRANCH  13  16
BRANCH   1  23
ATOM     23  C   UNL     1      -0.191  -0.160  -2.781  0.00  0.00    +0.186 C 
BRANCH  23  24
ATOM     24  C   UNL     1       0.965   0.215  -1.852  0.00  0.00    +0.017 C 
ATOM     25  C   UNL     1       2.071   0.895  -2.661  0.00  0.00    +0.010 C 
BRANCH  24  27
ATOM     26  C   UNL     1       0.441  -1.679  -0.309  0.00  0.00    +0.004 C 
ATOM     27  C   UNL     1       1.520  -1.050  -1.192  0.00  0.00    +0.002 C 
ENDBRANCH  24  27
ENDBRANCH  23  24
BRANCH  23  28
ATOM     28  C   UNL     1       0.306  -1.103  -3.846  0.00  0.00    +0.328 C 
ATOM     29  O   UNL     1       0.570  -0.685  -4.949  0.00  0.00    -0.249 OA
BRANCH  28  30
ATOM     30  O   UNL     1       0.457  -2.408  -3.570  0.00  0.00    -0.467 OA
ATOM     31  C   UNL     1       0.932  -3.244  -4.626  0.00  0.00    +0.280 C 
ENDBRANCH  28  30
ENDBRANCH  23  28
ENDBRANCH   1  23
TORSDOF 6
