REMARK  Name = ZINC35018578
REMARK  9 active torsions:
REMARK  status: ('A' for Active; 'I' for Inactive)
REMARK    1  A    between atoms: C_1  and  C_2
REMARK    2  A    between atoms: C_2  and  C_3
REMARK    3  A    between atoms: N_9  and  C_10
REMARK    4  A    between atoms: C_10  and  C_11
REMARK    5  A    between atoms: C_11  and  C_13
REMARK    6  A    between atoms: C_15  and  C_21
REMARK    7  A    between atoms: N_16  and  C_19
REMARK    8  A    between atoms: C_17  and  C_18
REMARK    9  A    between atoms: C_19  and  C_20
REMARK                            x       y       z     vdW  Elec       q    Type
REMARK                         _______ _______ _______ _____ _____    ______ ____
ROOT
ATOM      1  C   UNL     1      -1.093   2.037  -3.394  0.00  0.00    +0.149 C 
ATOM      2  O   UNL     1      -1.563   1.243  -4.181  0.00  0.00    -0.294 OA
ENDROOT
BRANCH   1   3
ATOM      3  C   UNL     1      -1.445   3.456  -3.486  0.00  0.00    +0.036 A 
ATOM      4  C   UNL     1      -0.966   4.545  -2.625  0.00  0.00    +0.034 A 
ATOM      5  C   UNL     1      -1.549   5.668  -3.075  0.00  0.00    +0.017 A 
ATOM      6  N   UNL     1      -2.347   5.363  -4.140  0.00  0.00    -0.348 N 
ATOM      7  C   UNL     1      -2.294   4.045  -4.405  0.00  0.00    +0.026 A 
ATOM      8  C   UNL     1      -3.033   3.335  -5.509  0.00  0.00    +0.064 C 
ATOM      9  C   UNL     1      -1.355   7.046  -2.497  0.00  0.00    +0.063 C 
BRANCH   6  10
ATOM     10  C   UNL     1      -3.145   6.335  -4.893  0.00  0.00    +0.118 C 
ATOM     11  C   UNL     1      -2.312   6.891  -6.050  0.00  0.00    +0.027 C 
ENDBRANCH   6  10
ENDBRANCH   1   3
BRANCH   1  12
ATOM     12  C   UNL     1      -0.145   1.565  -2.322  0.00  0.00    +0.003 C 
BRANCH  12  18
ATOM     13  C   UNL     1       0.834  -0.372  -1.303  0.00  0.00    -0.068 C 
ATOM     14  C   UNL     1       0.966  -1.894  -1.381  0.00  0.00    -0.015 C 
ATOM     15  C   UNL     1       1.668  -2.274  -2.688  0.00  0.00    -0.003 C 
ATOM     16  C   UNL     1       0.876  -1.700  -3.866  0.00  0.00    -0.019 C 
ATOM     17  C   UNL     1       0.748  -0.184  -3.697  0.00  0.00    -0.078 C 
ATOM     18  N   UNL     1       0.045   0.113  -2.442  0.00  0.00    +0.386 N 
ATOM     19  H   UNL     1      -0.855  -0.343  -2.445  0.00  0.00    -0.081 HD
BRANCH  13  21
ATOM     20  C   UNL     1       1.008  -0.394   1.189  0.00  0.00    +0.002 C 
ATOM     21  C   UNL     1       0.134   0.013   0.002  0.00  0.00    -0.019 C 
ENDBRANCH  13  21
ENDBRANCH  12  18
ENDBRANCH   1  12
TORSDOF 5
