REMARK  Name = ZINC02254951
REMARK  5 active torsions:
REMARK  status: ('A' for Active; 'I' for Inactive)
REMARK    1  A    between atoms: C_1  and  C_2
REMARK    2  A    between atoms: C_5  and  C_8
REMARK    3  A    between atoms: C_19  and  C_21
REMARK    4  A    between atoms: C_32  and  S_34
REMARK    5  A    between atoms: S_34  and  C_35
REMARK                            x       y       z     vdW  Elec       q    Type
REMARK                         _______ _______ _______ _____ _____    ______ ____
ROOT
ATOM      1  C   UNL     1       0.443  -4.721   0.672  0.00  0.00    +0.159 C 
ATOM      2  C   UNL     1       1.891  -4.992   0.328  0.00  0.00    +0.025 C 
ATOM      3  C   UNL     1       2.572  -5.869   1.093  0.00  0.00    +0.058 C 
ATOM      4  C   UNL     1       3.990  -6.133   0.736  0.00  0.00    +0.040 A 
ATOM      5  C   UNL     1       4.857  -6.753   1.624  0.00  0.00    +0.013 A 
ATOM      6  C   UNL     1       6.170  -6.977   1.252  0.00  0.00    +0.001 A 
ATOM      7  C   UNL     1       6.615  -6.584   0.002  0.00  0.00    +0.004 A 
ATOM      8  C   UNL     1       5.757  -5.967  -0.889  0.00  0.00    +0.046 A 
ATOM      9  C   UNL     1       4.440  -5.737  -0.530  0.00  0.00    +0.131 A 
ATOM     10  O   UNL     1       3.574  -5.139  -1.386  0.00  0.00    -0.479 OA
ATOM     11  C   UNL     1       2.560  -4.303  -0.825  0.00  0.00    +0.234 C 
ATOM     12  N   UNL     1       1.991  -6.491   2.148  0.00  0.00    -0.326 N 
ATOM     13  C   UNL     1       0.740  -6.313   2.517  0.00  0.00    +0.216 C 
ATOM     14  N   UNL     1      -0.086  -5.449   1.832  0.00  0.00    -0.209 N 
ATOM     15  N   UNL     1      -1.329  -5.490   2.470  0.00  0.00    -0.239 N 
ATOM     16  C   UNL     1      -1.198  -6.369   3.512  0.00  0.00    +0.174 C 
ATOM     17  N   UNL     1       0.021  -6.844   3.522  0.00  0.00    -0.192 NA
ATOM     18  H   UNL     1       2.533  -7.107   2.665  0.00  0.00    +0.169 HD
ATOM     19  H   UNL     1      -2.125  -4.994   2.224  0.00  0.00    +0.172 HD
ENDROOT
BRANCH   1  24
ATOM     20  C   UNL     1      -0.138   0.940   1.676  0.00  0.00    +0.044 C 
ATOM     21  C   UNL     1       0.014  -0.536   1.414  0.00  0.00    -0.050 A 
ATOM     22  C   UNL     1       0.555  -1.359   2.385  0.00  0.00    +0.004 A 
ATOM     23  C   UNL     1       0.694  -2.713   2.145  0.00  0.00    +0.006 A 
ATOM     24  C   UNL     1       0.291  -3.245   0.934  0.00  0.00    -0.021 A 
ATOM     25  C   UNL     1      -0.251  -2.423  -0.036  0.00  0.00    +0.006 A 
ATOM     26  C   UNL     1      -0.394  -1.070   0.206  0.00  0.00    +0.004 A 
ENDBRANCH   1  24
BRANCH  11  27
ATOM     27  C   UNL     1       3.183  -3.018  -0.344  0.00  0.00    -0.002 A 
ATOM     28  C   UNL     1       4.284  -3.055   0.492  0.00  0.00    +0.007 A 
ATOM     29  C   UNL     1       4.856  -1.877   0.934  0.00  0.00    +0.001 A 
ATOM     30  C   UNL     1       4.328  -0.661   0.540  0.00  0.00    +0.015 A 
ATOM     31  C   UNL     1       3.227  -0.624  -0.296  0.00  0.00    +0.018 A 
ATOM     32  C   UNL     1       2.658  -1.804  -0.743  0.00  0.00    +0.022 A 
ATOM     33 BR   UNL     1       2.503   1.038  -0.835  0.00  0.00    -0.050 Br
ENDBRANCH  11  27
BRANCH  16  34
ATOM     34  S   UNL     1      -2.470  -6.798   4.654  0.00  0.00    -0.092 S 
ATOM     35  C   UNL     1      -1.676  -7.987   5.770  0.00  0.00    +0.093 C 
ENDBRANCH  16  34
TORSDOF 3
