REMARK  Name = ZINC08932480
REMARK  10 active torsions:
REMARK  status: ('A' for Active; 'I' for Inactive)
REMARK    1  A    between atoms: C_1  and  C_2
REMARK    2  A    between atoms: C_3  and  C_18
REMARK    3  A    between atoms: C_4  and  C_16
REMARK    4  A    between atoms: C_5  and  C_15
REMARK    5  A    between atoms: N_6  and  C_7
REMARK    6  A    between atoms: C_7  and  C_8
REMARK    7  A    between atoms: C_18  and  N_51
REMARK    8  A    between atoms: C_19  and  C_20
REMARK    9  A    between atoms: C_19  and  N_51
REMARK   10  A    between atoms: C_20  and  C_21
REMARK                            x       y       z     vdW  Elec       q    Type
REMARK                         _______ _______ _______ _____ _____    ______ ____
ROOT
ATOM      1  C   UNL     1       3.625   0.860  -0.028  0.00  0.00    +0.064 C 
ATOM      2  C   UNL     1       2.122   0.757  -0.014  0.00  0.00    +0.018 A 
ATOM      3  C   UNL     1       1.418  -0.388  -0.014  0.00  0.00    -0.030 A 
ATOM      4  C   UNL     1       0.002  -0.004   0.002  0.00  0.00    +0.085 A 
ATOM      5  C   UNL     1      -0.017   1.374   0.010  0.00  0.00    +0.031 A 
ATOM      6  N   UNL     1       1.256   1.812  -0.000  0.00  0.00    -0.343 N 
ATOM      7  C   UNL     1      -1.249   2.241   0.020  0.00  0.00    +0.064 C 
ENDROOT
BRANCH   4   8
ATOM      8  C   UNL     1      -1.160  -0.906   0.009  0.00  0.00    +0.388 C 
ATOM      9  O   UNL     1      -1.651  -1.273  -1.041  0.00  0.00    -0.241 OA
ATOM     10  O   UNL     1      -1.681  -1.325   1.179  0.00  0.00    -0.241 OA
ENDBRANCH   4   8
BRANCH   6  11
ATOM     11  C   UNL     1       1.656   3.222   0.004  0.00  0.00    +0.156 C 
BRANCH  11  12
ATOM     12  C   UNL     1       1.807   3.697   1.426  0.00  0.00    -0.028 A 
ATOM     13  C   UNL     1       0.726   4.247   2.089  0.00  0.00    +0.008 A 
ATOM     14  C   UNL     1       0.862   4.679   3.394  0.00  0.00    +0.038 A 
ATOM     15  C   UNL     1       2.085   4.571   4.035  0.00  0.00    +0.123 A 
ATOM     16  C   UNL     1       3.168   4.025   3.368  0.00  0.00    +0.038 A 
ATOM     17  C   UNL     1       3.028   3.589   2.064  0.00  0.00    +0.008 A 
ATOM     18  F   UNL     1       2.220   4.997   5.310  0.00  0.00    -0.205 F 
ENDBRANCH  11  12
ENDBRANCH   6  11
BRANCH   3  19
ATOM     19  C   UNL     1       1.974  -1.789  -0.026  0.00  0.00    -0.044 C 
BRANCH  19  20
ATOM     20  N   UNL     1       2.139  -2.231  -1.423  0.00  0.00    +0.382 N 
ATOM     21  H   UNL     1       2.785  -1.595  -1.906  0.00  0.00    -0.085 HD
ATOM     22  H   UNL     1       1.227  -2.214  -1.895  0.00  0.00    -0.085 HD
BRANCH  20  23
ATOM     23  C   UNL     1       2.683  -3.602  -1.466  0.00  0.00    -0.077 C 
BRANCH  23  24
ATOM     24  C   UNL     1       2.843  -4.032  -2.925  0.00  0.00    +0.016 C 
BRANCH  24  25
ATOM     25  C   UNL     1       3.398  -5.432  -2.978  0.00  0.00    -0.049 A 
ATOM     26  C   UNL     1       4.766  -5.632  -3.016  0.00  0.00    +0.005 A 
ATOM     27  C   UNL     1       5.275  -6.916  -3.058  0.00  0.00    +0.020 A 
ATOM     28  C   UNL     1       4.417  -8.001  -3.075  0.00  0.00    +0.041 A 
ATOM     29  C   UNL     1       3.048  -7.800  -3.042  0.00  0.00    +0.020 A 
ATOM     30  C   UNL     1       2.540  -6.516  -2.994  0.00  0.00    +0.005 A 
ATOM     31 CL   UNL     1       5.056  -9.614  -3.135  0.00  0.00    -0.084 Cl
ENDBRANCH  24  25
ENDBRANCH  23  24
ENDBRANCH  20  23
ENDBRANCH  19  20
ENDBRANCH   3  19
TORSDOF 8
