REMARK  Name = ZINC40034068
REMARK  5 active torsions:
REMARK  status: ('A' for Active; 'I' for Inactive)
REMARK    1  A    between atoms: C_7  and  C_10
REMARK    2  A    between atoms: C_10  and  C_12
REMARK    3  A    between atoms: C_12  and  S_13
REMARK    4  A    between atoms: S_13  and  C_14
REMARK    5  A    between atoms: N_20  and  C_21
REMARK                            x       y       z     vdW  Elec       q    Type
REMARK                         _______ _______ _______ _____ _____    ______ ____
ROOT
ATOM      1  S   UNL     1      -0.202  -5.714  -0.026  0.00  0.00    -0.118 S 
ENDROOT
BRANCH   1   2
ATOM      2  C   UNL     1       0.595  -7.344  -0.042  0.00  0.00    +0.212 C 
ATOM      3  N   UNL     1       1.536  -7.495   1.091  0.00  0.00    -0.244 N 
ATOM      4  N   UNL     1       2.854  -7.684   0.738  0.00  0.00    -0.163 NA
ATOM      5  C   UNL     1       3.262  -7.730  -0.492  0.00  0.00    +0.174 C 
ATOM      6  S   UNL     1       1.770  -7.502  -1.450  0.00  0.00    -0.054 S 
ATOM      7  N   UNL     1       4.557  -7.915  -0.958  0.00  0.00    -0.320 N 
ATOM      8  H   UNL     1       1.246  -7.462   2.016  0.00  0.00    +0.170 HD
ATOM      9  H   UNL     1       4.732  -7.930  -1.912  0.00  0.00    +0.148 HD
BRANCH   7  10
ATOM     10  C   UNL     1       5.659  -8.087  -0.008  0.00  0.00    +0.072 C 
ATOM     11  C   UNL     1       6.170  -6.714   0.434  0.00  0.00    +0.022 C 
ATOM     12  C   UNL     1       7.321  -6.894   1.426  0.00  0.00    +0.002 C 
ATOM     13  C   UNL     1       8.457  -7.669   0.755  0.00  0.00    +0.000 C 
ATOM     14  C   UNL     1       7.946  -9.042   0.312  0.00  0.00    +0.002 C 
ATOM     15  C   UNL     1       6.795  -8.862  -0.680  0.00  0.00    +0.022 C 
ENDBRANCH   7  10
ENDBRANCH   1   2
BRANCH   1  16
ATOM     16  C   UNL     1       1.187  -4.547  -0.033  0.00  0.00    +0.151 C 
BRANCH  16  17
ATOM     17  C   UNL     1       0.657  -3.136  -0.021  0.00  0.00    +0.171 C 
ATOM     18  O   UNL     1      -0.541  -2.938  -0.009  0.00  0.00    -0.291 OA
BRANCH  17  25
ATOM     19  C   UNL     1      -0.016   1.348   0.009  0.00  0.00    +0.001 A 
ATOM     20  C   UNL     1       1.158   2.117   0.002  0.00  0.00    +0.002 A 
ATOM     21  C   UNL     1       2.384   1.551  -0.012  0.00  0.00    +0.026 A 
ATOM     22  C   UNL     1       2.494   0.083  -0.021  0.00  0.00    +0.043 A 
ATOM     23  N   UNL     1       3.525  -0.712  -0.035  0.00  0.00    -0.380 N 
ATOM     24  C   UNL     1       3.065  -2.104  -0.039  0.00  0.00    +0.152 C 
ATOM     25  C   UNL     1       1.553  -2.046  -0.024  0.00  0.00    +0.024 C 
ATOM     26  C   UNL     1       1.234  -0.700  -0.013  0.00  0.00    +0.006 A 
ATOM     27  C   UNL     1       0.002  -0.004   0.002  0.00  0.00    +0.010 A 
ATOM     28  H   UNL     1       4.453  -0.428  -0.043  0.00  0.00    +0.160 HD
ENDBRANCH  17  25
ENDBRANCH  16  17
ENDBRANCH   1  16
TORSDOF 5
