REMARK  Name = ZINC03441517
REMARK  11 active torsions:
REMARK  status: ('A' for Active; 'I' for Inactive)
REMARK    1  A    between atoms: C_1  and  C_2
REMARK    2  A    between atoms: C_2  and  C_3
REMARK    3  A    between atoms: C_3  and  C_5
REMARK    4  A    between atoms: C_3  and  N_46
REMARK    5  A    between atoms: C_12  and  C_13
REMARK    6  A    between atoms: C_12  and  N_46
REMARK    7  A    between atoms: C_13  and  C_15
REMARK    8  A    between atoms: C_13  and  O_25
REMARK    9  A    between atoms: C_15  and  O_16
REMARK   10  A    between atoms: O_16  and  C_17
REMARK   11  A    between atoms: C_17  and  C_18
REMARK                            x       y       z     vdW  Elec       q    Type
REMARK                         _______ _______ _______ _____ _____    ______ ____
ROOT
ATOM      1  C   UNL     1       2.561   0.371  -1.338  0.00  0.00    -0.048 C 
ENDROOT
BRANCH   1   2
ATOM      2  N   UNL     1       2.157   1.786  -1.241  0.00  0.00    +0.385 N 
ATOM      3  H   UNL     1       2.985   2.384  -1.348  0.00  0.00    -0.085 HD
ATOM      4  H   UNL     1       1.484   1.998  -1.987  0.00  0.00    -0.085 HD
BRANCH   2   5
ATOM      5  C   UNL     1       1.531   2.052   0.068  0.00  0.00    -0.041 C 
BRANCH   5   6
ATOM      6  C   UNL     1       1.707   3.508   0.414  0.00  0.00    -0.061 A 
ATOM      7  C   UNL     1       1.579   4.472  -0.569  0.00  0.00    +0.003 A 
ATOM      8  C   UNL     1       1.735   5.808  -0.251  0.00  0.00    +0.015 A 
ATOM      9  C   UNL     1       2.029   6.180   1.048  0.00  0.00    +0.018 A 
ATOM     10  C   UNL     1       2.161   5.215   2.030  0.00  0.00    +0.015 A 
ATOM     11  C   UNL     1       2.000   3.879   1.713  0.00  0.00    +0.003 A 
ATOM     12 BR   UNL     1       2.250   8.007   1.482  0.00  0.00    -0.050 Br
ENDBRANCH   5   6
BRANCH   5  14
ATOM     13  C   UNL     1      -0.583   1.875   1.387  0.00  0.00    +0.002 C 
ATOM     14  C   UNL     1       0.039   1.720  -0.002  0.00  0.00    -0.015 C 
ENDBRANCH   5  14
ENDBRANCH   2   5
ENDBRANCH   1   2
BRANCH   1  15
ATOM     15  C   UNL     1       3.090   0.096  -2.747  0.00  0.00    +0.123 C 
BRANCH  15  16
ATOM     16  O   UNL     1       2.063   0.368  -3.703  0.00  0.00    -0.391 OA
ATOM     17  H   UNL     1       1.267  -0.168  -3.588  0.00  0.00    +0.210 HD
ENDBRANCH  15  16
BRANCH  15  18
ATOM     18  C   UNL     1       3.513  -1.370  -2.856  0.00  0.00    +0.189 C 
BRANCH  18  19
ATOM     19  O   UNL     1       4.114  -1.599  -4.132  0.00  0.00    -0.373 OA
BRANCH  19  20
ATOM     20  C   UNL     1       4.547  -2.945  -4.338  0.00  0.00    +0.196 C 
BRANCH  20  21
ATOM     21  C   UNL     1       5.162  -3.072  -5.708  0.00  0.00    -0.004 A 
ATOM     22  C   UNL     1       5.227  -1.970  -6.541  0.00  0.00    +0.007 A 
ATOM     23  C   UNL     1       5.795  -2.085  -7.796  0.00  0.00    +0.000 A 
ATOM     24  C   UNL     1       6.289  -3.304  -8.222  0.00  0.00    +0.001 A 
ATOM     25  C   UNL     1       6.220  -4.407  -7.393  0.00  0.00    +0.020 A 
ATOM     26  C   UNL     1       5.656  -4.291  -6.134  0.00  0.00    +0.046 A 
ATOM     27 CL   UNL     1       5.569  -5.676  -5.092  0.00  0.00    -0.083 Cl
ENDBRANCH  20  21
ENDBRANCH  19  20
ENDBRANCH  18  19
ENDBRANCH  15  18
ENDBRANCH   1  15
TORSDOF 10
