REMARK  Name = ZINC20907200
REMARK  9 active torsions:
REMARK  status: ('A' for Active; 'I' for Inactive)
REMARK    1  A    between atoms: C_1  and  C_2
REMARK    2  A    between atoms: C_2  and  C_4
REMARK    3  A    between atoms: C_7  and  N_10
REMARK    4  A    between atoms: C_11  and  C_13
REMARK    5  A    between atoms: C_13  and  S_14
REMARK    6  A    between atoms: S_14  and  C_15
REMARK    7  A    between atoms: N_20  and  N_21
REMARK    8  A    between atoms: C_22  and  C_23
REMARK    9  A    between atoms: C_32  and  O_33
REMARK                            x       y       z     vdW  Elec       q    Type
REMARK                         _______ _______ _______ _____ _____    ______ ____
ROOT
ATOM      1  C   UNL     1      -3.268  11.563   0.464  0.00  0.00    +0.211 A 
ATOM      2  N   UNL     1      -3.703  10.275   0.598  0.00  0.00    -0.186 NA
ATOM      3  C   UNL     1      -2.616   9.450   0.509  0.00  0.00    +0.232 A 
ATOM      4  N   UNL     1      -1.554  10.198   0.333  0.00  0.00    -0.245 N 
ATOM      5  N   UNL     1      -1.967  11.536   0.299  0.00  0.00    -0.144 NA
ATOM      6  N   UNL     1      -2.634   8.066   0.597  0.00  0.00    -0.205 N 
ATOM      7  H   UNL     1      -3.585   7.537   0.751  0.00  0.00    +0.177 HD
ATOM      8  H   UNL     1      -0.562   9.731   0.241  0.00  0.00    +0.192 HD
ENDROOT
BRANCH   6   9
ATOM      9  N   UNL     1      -1.439   7.342   0.488  0.00  0.00    -0.187 NA
ATOM     10  C   UNL     1      -1.456   6.045   0.570  0.00  0.00    +0.142 C 
BRANCH  10  11
ATOM     11  C   UNL     1      -0.203   5.285   0.456  0.00  0.00    +0.044 A 
ATOM     12  C   UNL     1      -0.203   3.826   0.546  0.00  0.00    -0.006 A 
ATOM     13  C   UNL     1      -1.388   3.107   0.742  0.00  0.00    +0.009 A 
ATOM     14  C   UNL     1      -1.345   1.746   0.815  0.00  0.00    +0.001 A 
ATOM     15  C   UNL     1      -0.137   1.061   0.707  0.00  0.00    +0.001 A 
ATOM     16  C   UNL     1       1.033   1.730   0.515  0.00  0.00    +0.008 A 
ATOM     17  C   UNL     1       1.027   3.133   0.430  0.00  0.00    -0.017 A 
ATOM     18  C   UNL     1       2.215   3.857   0.232  0.00  0.00    +0.012 A 
ATOM     19  C   UNL     1       2.197   5.214   0.151  0.00  0.00    +0.046 A 
ATOM     20  C   UNL     1       1.013   5.941   0.259  0.00  0.00    +0.126 A 
BRANCH  20  21
ATOM     21  O   UNL     1       1.042   7.296   0.172  0.00  0.00    -0.506 OA
ATOM     22  H   UNL     1       1.998   7.816   0.017  0.00  0.00    +0.292 HD
ENDBRANCH  20  21
ENDBRANCH  10  11
ENDBRANCH   6   9
BRANCH   1  23
ATOM     23  S   UNL     1      -4.277  13.007   0.504  0.00  0.00    -0.075 S 
BRANCH  23  24
ATOM     24  C   UNL     1      -3.103  14.370   0.271  0.00  0.00    +0.173 C 
BRANCH  24  26
ATOM     25  N   UNL     1      -3.173  16.838   0.129  0.00  0.00    -0.285 N 
ATOM     26  C   UNL     1      -3.846  15.681   0.286  0.00  0.00    +0.227 C 
ATOM     27  O   UNL     1      -5.049  15.694   0.438  0.00  0.00    -0.275 OA
ATOM     28  H   UNL     1      -2.075  16.833   0.075  0.00  0.00    +0.155 HD
BRANCH  25  32
ATOM     29  C   UNL     1      -5.253  20.431  -0.150  0.00  0.00    +0.017 A 
ATOM     30  C   UNL     1      -3.992  20.394   0.459  0.00  0.00    +0.013 A 
ATOM     31  C   UNL     1      -3.311  19.208   0.549  0.00  0.00    +0.024 A 
ATOM     32  C   UNL     1      -3.870  18.041   0.035  0.00  0.00    +0.033 A 
ATOM     33  C   UNL     1      -5.120  18.074  -0.577  0.00  0.00    +0.024 A 
ATOM     34  C   UNL     1      -5.811  19.254  -0.666  0.00  0.00    +0.013 A 
BRANCH  29  36
ATOM     35  C   UNL     1      -7.393  21.715  -0.792  0.00  0.00    +0.091 C 
ATOM     36  C   UNL     1      -5.987  21.699  -0.249  0.00  0.00    +0.160 C 
ATOM     37  O   UNL     1      -5.462  22.733   0.107  0.00  0.00    -0.292 OA
ENDBRANCH  29  36
ENDBRANCH  25  32
ENDBRANCH  24  26
ENDBRANCH  23  24
ENDBRANCH   1  23
TORSDOF 8
