REMARK  Name = ZINC24000929
REMARK  8 active torsions:
REMARK  status: ('A' for Active; 'I' for Inactive)
REMARK    1  A    between atoms: C_1  and  C_2
REMARK    2  A    between atoms: C_5  and  C_8
REMARK    3  A    between atoms: C_10  and  S_13
REMARK    4  A    between atoms: S_13  and  C_14
REMARK    5  A    between atoms: C_14  and  C_16
REMARK    6  A    between atoms: C_14  and  C_17
REMARK    7  A    between atoms: N_19  and  C_20
REMARK    8  A    between atoms: C_23  and  C_27
REMARK                            x       y       z     vdW  Elec       q    Type
REMARK                         _______ _______ _______ _____ _____    ______ ____
ROOT
ATOM      1  S   UNL     1       3.797   0.913  -0.056  0.00  0.00    -0.074 S 
ENDROOT
BRANCH   1   4
ATOM      2  C   UNL     1      -0.005   0.014  -0.054  0.00  0.00    +0.182 A 
ATOM      3  N   UNL     1       1.314  -0.375  -0.061  0.00  0.00    -0.201 NA
ATOM      4  C   UNL     1       2.040   0.782  -0.053  0.00  0.00    +0.185 A 
ATOM      5  N   UNL     1       1.184   1.779  -0.042  0.00  0.00    -0.253 N 
ATOM      6  N   UNL     1      -0.019   1.327  -0.043  0.00  0.00    -0.152 NA
ATOM      7  H   UNL     1       1.364   2.864  -0.032  0.00  0.00    +0.191 HD
BRANCH   2  12
ATOM      8  C   UNL     1      -4.596  -3.455  -0.077  0.00  0.00    +0.044 C 
ATOM      9  C   UNL     1      -3.394  -2.547  -0.070  0.00  0.00    -0.050 A 
ATOM     10  C   UNL     1      -3.568  -1.174  -0.058  0.00  0.00    +0.004 A 
ATOM     11  C   UNL     1      -2.472  -0.337  -0.052  0.00  0.00    +0.012 A 
ATOM     12  C   UNL     1      -1.185  -0.877  -0.060  0.00  0.00    +0.021 A 
ATOM     13  C   UNL     1      -1.016  -2.262  -0.078  0.00  0.00    +0.012 A 
ATOM     14  C   UNL     1      -2.121  -3.089  -0.078  0.00  0.00    +0.004 A 
ENDBRANCH   2  12
ENDBRANCH   1   4
BRANCH   1  15
ATOM     15  C   UNL     1       3.978   2.714  -0.040  0.00  0.00    +0.137 C 
ATOM     16  C   UNL     1       3.419   3.294  -1.341  0.00  0.00    +0.029 C 
BRANCH  15  17
ATOM     17  C   UNL     1       5.436   3.072   0.084  0.00  0.00    +0.230 C 
ATOM     18  O   UNL     1       6.286   2.291  -0.290  0.00  0.00    -0.274 OA
ATOM     19  N   UNL     1       5.797   4.259   0.610  0.00  0.00    -0.282 N 
ATOM     20  H   UNL     1       5.027   4.997   0.881  0.00  0.00    +0.155 HD
BRANCH  19  21
ATOM     21  C   UNL     1       7.151   4.554   0.811  0.00  0.00    +0.069 A 
ATOM     22  C   UNL     1       8.105   4.082  -0.080  0.00  0.00    +0.026 A 
ATOM     23  C   UNL     1       9.441   4.374   0.120  0.00  0.00    +0.005 A 
ATOM     24  C   UNL     1       9.828   5.137   1.207  0.00  0.00    -0.048 A 
ATOM     25  C   UNL     1       8.882   5.609   2.097  0.00  0.00    +0.043 A 
ATOM     26  C   UNL     1       7.543   5.324   1.900  0.00  0.00    +0.145 A 
ATOM     27  F   UNL     1       6.617   5.790   2.766  0.00  0.00    -0.204 F 
ATOM     28  C   UNL     1      11.286   5.454   1.421  0.00  0.00    +0.044 C 
ENDBRANCH  19  21
ENDBRANCH  15  17
ENDBRANCH   1  15
TORSDOF 5
