REMARK  Name = ZINC00649199
REMARK  14 active torsions:
REMARK  status: ('A' for Active; 'I' for Inactive)
REMARK    1  A    between atoms: C_1  and  C_2
REMARK    2  A    between atoms: C_3  and  C_36
REMARK    3  A    between atoms: C_4  and  C_25
REMARK    4  A    between atoms: C_10  and  C_15
REMARK    5  A    between atoms: C_18  and  O_23
REMARK    6  A    between atoms: C_19  and  O_21
REMARK    7  A    between atoms: O_21  and  C_22
REMARK    8  A    between atoms: O_23  and  C_24
REMARK    9  A    between atoms: C_27  and  O_34
REMARK   10  A    between atoms: C_28  and  O_32
REMARK   11  A    between atoms: O_32  and  C_33
REMARK   12  A    between atoms: O_34  and  C_35
REMARK   13  A    between atoms: C_36  and  O_38
REMARK   14  A    between atoms: O_38  and  C_39
REMARK                            x       y       z     vdW  Elec       q    Type
REMARK                         _______ _______ _______ _____ _____    ______ ____
ROOT
ATOM      1  C   UNL     1      -0.018   1.503   0.010  0.00  0.00    +0.061 C 
ATOM      2  C   UNL     1       0.002  -0.004   0.002  0.00  0.00    +0.016 C 
ATOM      3  C   UNL     1      -1.155  -0.687   0.004  0.00  0.00    +0.065 C 
ATOM      4  C   UNL     1      -1.174  -2.188   0.004  0.00  0.00    +0.092 C 
ATOM      5  C   UNL     1       0.160  -2.745  -0.427  0.00  0.00    +0.024 C 
ATOM      6  C   UNL     1       1.268  -1.974  -0.407  0.00  0.00    +0.016 C 
ATOM      7  N   UNL     1       1.198  -0.667  -0.013  0.00  0.00    -0.321 N 
ATOM      8  C   UNL     1       2.608  -2.531  -0.819  0.00  0.00    +0.059 C 
ATOM      9  C   UNL     1       2.410  -3.613  -1.883  0.00  0.00    +0.032 C 
ATOM     10  C   UNL     1       1.508  -4.706  -1.303  0.00  0.00    +0.088 C 
ATOM     11  C   UNL     1       0.215  -4.085  -0.850  0.00  0.00    +0.162 C 
ATOM     12  O   UNL     1      -0.800  -4.753  -0.848  0.00  0.00    -0.292 OA
ATOM     13  H   UNL     1       2.006  -0.206   0.263  0.00  0.00    +0.152 HD
ENDROOT
BRANCH   4  14
ATOM     14  C   UNL     1      -1.489  -2.679   1.393  0.00  0.00    -0.030 A 
ATOM     15  C   UNL     1      -2.607  -3.463   1.611  0.00  0.00    +0.054 A 
ATOM     16  C   UNL     1      -2.898  -3.915   2.888  0.00  0.00    +0.163 A 
ATOM     17  C   UNL     1      -2.063  -3.580   3.949  0.00  0.00    +0.175 A 
ATOM     18  C   UNL     1      -0.943  -2.795   3.724  0.00  0.00    +0.063 A 
ATOM     19  C   UNL     1      -0.656  -2.350   2.446  0.00  0.00    +0.023 A 
ATOM     20 BR   UNL     1       0.195  -2.336   5.163  0.00  0.00    -0.046 Br
BRANCH  17  21
ATOM     21  O   UNL     1      -2.345  -4.021   5.204  0.00  0.00    -0.490 OA
ATOM     22  C   UNL     1      -1.788  -5.280   5.590  0.00  0.00    +0.277 C 
ENDBRANCH  17  21
BRANCH  16  23
ATOM     23  O   UNL     1      -3.998  -4.685   3.103  0.00  0.00    -0.491 OA
ATOM     24  C   UNL     1      -4.810  -4.989   1.967  0.00  0.00    +0.277 C 
ENDBRANCH  16  23
ENDBRANCH   4  14
BRANCH   9  25
ATOM     25  C   UNL     1       3.745  -4.201  -2.262  0.00  0.00    -0.040 A 
ATOM     26  C   UNL     1       4.522  -4.823  -1.302  0.00  0.00    +0.008 A 
ATOM     27  C   UNL     1       5.748  -5.364  -1.644  0.00  0.00    +0.049 A 
ATOM     28  C   UNL     1       6.200  -5.283  -2.951  0.00  0.00    +0.161 A 
ATOM     29  C   UNL     1       5.418  -4.657  -3.917  0.00  0.00    +0.162 A 
ATOM     30  C   UNL     1       4.188  -4.122  -3.569  0.00  0.00    +0.053 A 
BRANCH  29  31
ATOM     31  O   UNL     1       5.857  -4.576  -5.202  0.00  0.00    -0.491 OA
ATOM     32  C   UNL     1       5.002  -3.920  -6.140  0.00  0.00    +0.277 C 
ENDBRANCH  29  31
BRANCH  28  33
ATOM     33  O   UNL     1       7.405  -5.814  -3.289  0.00  0.00    -0.491 OA
ATOM     34  C   UNL     1       8.154  -6.441  -2.246  0.00  0.00    +0.277 C 
ENDBRANCH  28  33
ENDBRANCH   9  25
BRANCH   3  35
ATOM     35  C   UNL     1      -2.380   0.021   0.006  0.00  0.00    +0.337 C 
ATOM     36  O   UNL     1      -2.378   1.238   0.007  0.00  0.00    -0.245 OA
BRANCH  35  37
ATOM     37  O   UNL     1      -3.549  -0.652   0.008  0.00  0.00    -0.465 OA
ATOM     38  C   UNL     1      -4.747   0.128   0.011  0.00  0.00    +0.280 C 
ENDBRANCH  35  37
ENDBRANCH   3  35
TORSDOF 8
