REMARK  Name = ZINC09094788
REMARK  8 active torsions:
REMARK  status: ('A' for Active; 'I' for Inactive)
REMARK    1  A    between atoms: C_1  and  C_2
REMARK    2  A    between atoms: C_5  and  C_8
REMARK    3  A    between atoms: N_9  and  N_10
REMARK    4  A    between atoms: C_11  and  C_13
REMARK    5  A    between atoms: C_14  and  C_30
REMARK    6  A    between atoms: C_15  and  C_28
REMARK    7  A    between atoms: N_18  and  C_20
REMARK    8  A    between atoms: C_23  and  C_27
REMARK                            x       y       z     vdW  Elec       q    Type
REMARK                         _______ _______ _______ _____ _____    ______ ____
ROOT
ATOM      1  C   UNL     1       2.743   0.851  -0.779  0.00  0.00    +0.152 A 
ATOM      2  C   UNL     1       3.884   1.479  -1.322  0.00  0.00    +0.004 A 
ATOM      3  C   UNL     1       4.688   0.738  -2.183  0.00  0.00    +0.123 A 
ATOM      4  C   UNL     1       4.270  -0.642  -2.464  0.00  0.00    +0.290 A 
ATOM      5  O   UNL     1       4.923  -1.348  -3.213  0.00  0.00    -0.264 OA
ATOM      6  N   UNL     1       3.151  -1.112  -1.879  0.00  0.00    -0.195 N 
ATOM      7  N   UNL     1       2.446  -0.392  -1.088  0.00  0.00    -0.158 NA
ATOM      8  C   UNL     1       4.225   2.905  -0.975  0.00  0.00    +0.048 C 
ENDROOT
BRANCH   6   9
ATOM      9  C   UNL     1       2.748  -2.425  -2.143  0.00  0.00    +0.071 A 
ATOM     10  C   UNL     1       2.664  -2.877  -3.454  0.00  0.00    +0.028 A 
ATOM     11  C   UNL     1       2.270  -4.176  -3.711  0.00  0.00    +0.007 A 
ATOM     12  C   UNL     1       1.949  -5.023  -2.666  0.00  0.00    -0.032 A 
ATOM     13  C   UNL     1       2.026  -4.574  -1.359  0.00  0.00    +0.046 A 
ATOM     14  C   UNL     1       2.425  -3.277  -1.095  0.00  0.00    +0.048 A 
ATOM     15 CL   UNL     1       1.621  -5.641  -0.051  0.00  0.00    -0.083 Cl
ATOM     16  C   UNL     1       1.514  -6.437  -2.951  0.00  0.00    +0.045 C 
ENDBRANCH   6   9
BRANCH   1  18
ATOM     17  N   UNL     1       0.760   1.020   0.646  0.00  0.00    -0.202 N 
ATOM     18  C   UNL     1       1.867   1.603   0.144  0.00  0.00    +0.284 C 
ATOM     19  O   UNL     1       2.144   2.746   0.450  0.00  0.00    -0.267 OA
ATOM     20  H   UNL     1       0.500   0.134   0.348  0.00  0.00    +0.178 HD
BRANCH  17  22
ATOM     21  C   UNL     1      -1.017   1.094   2.164  0.00  0.00    +0.138 C 
ATOM     22  N   UNL     1      -0.018   1.697   1.595  0.00  0.00    -0.187 NA
BRANCH  21  27
ATOM     23  C   UNL     1      -1.167  -4.652   2.373  0.00  0.00    +0.044 C 
ATOM     24  C   UNL     1      -1.128  -3.146   2.318  0.00  0.00    -0.050 A 
ATOM     25  C   UNL     1       0.029  -2.502   1.916  0.00  0.00    +0.004 A 
ATOM     26  C   UNL     1       0.072  -1.124   1.863  0.00  0.00    +0.010 A 
ATOM     27  C   UNL     1      -1.056  -0.379   2.217  0.00  0.00    -0.005 A 
ATOM     28  C   UNL     1      -2.218  -1.036   2.627  0.00  0.00    +0.010 A 
ATOM     29  C   UNL     1      -2.249  -2.415   2.670  0.00  0.00    +0.004 A 
ENDBRANCH  21  27
ENDBRANCH  17  22
ENDBRANCH   1  18
BRANCH   3  30
ATOM     30  C   UNL     1       5.866   1.297  -2.773  0.00  0.00    +0.105 C 
ATOM     31  N   UNL     1       6.801   1.741  -3.241  0.00  0.00    -0.191 NA
ENDBRANCH   3  30
TORSDOF 5
