REMARK  Name = ZINC12769013
REMARK  13 active torsions:
REMARK  status: ('A' for Active; 'I' for Inactive)
REMARK    1  A    between atoms: C_1  and  C_2
REMARK    2  A    between atoms: C_6  and  N_9
REMARK    3  A    between atoms: C_7  and  C_8
REMARK    4  A    between atoms: C_10  and  C_12
REMARK    5  A    between atoms: C_12  and  N_13
REMARK    6  A    between atoms: N_13  and  C_14
REMARK    7  A    between atoms: N_13  and  C_18
REMARK    8  A    between atoms: C_14  and  C_15
REMARK    9  A    between atoms: C_15  and  O_16
REMARK   10  A    between atoms: O_16  and  C_17
REMARK   11  A    between atoms: C_18  and  C_19
REMARK   12  A    between atoms: C_25  and  C_30
REMARK   13  A    between atoms: C_33  and  C_35
REMARK                            x       y       z     vdW  Elec       q    Type
REMARK                         _______ _______ _______ _____ _____    ______ ____
ROOT
ATOM      1  N   UNL     1      -0.313  -6.324   3.377  0.00  0.00    -0.285 NA
ENDROOT
BRANCH   1   2
ATOM      2  C   UNL     1      -0.049  -4.885   3.513  0.00  0.00    +0.181 C 
BRANCH   2   4
ATOM      3  N   UNL     1       0.237  -2.931   2.024  0.00  0.00    -0.284 N 
ATOM      4  C   UNL     1       0.005  -4.253   2.147  0.00  0.00    +0.231 C 
ATOM      5  O   UNL     1      -0.162  -4.934   1.157  0.00  0.00    -0.274 OA
ATOM      6  H   UNL     1       0.446  -2.400   2.809  0.00  0.00    +0.155 HD
BRANCH   3  12
ATOM      7  C   UNL     1       1.435   0.811  -0.931  0.00  0.00    +0.044 C 
ATOM      8  C   UNL     1       0.748  -0.509  -0.695  0.00  0.00    -0.046 A 
ATOM      9  C   UNL     1       0.058  -1.122  -1.725  0.00  0.00    +0.004 A 
ATOM     10  C   UNL     1      -0.573  -2.334  -1.512  0.00  0.00    +0.002 A 
ATOM     11  C   UNL     1      -0.515  -2.937  -0.271  0.00  0.00    +0.023 A 
ATOM     12  C   UNL     1       0.177  -2.324   0.765  0.00  0.00    +0.037 A 
ATOM     13  C   UNL     1       0.814  -1.109   0.547  0.00  0.00    -0.026 A 
ATOM     14  C   UNL     1       1.571  -0.443   1.667  0.00  0.00    +0.046 C 
ENDBRANCH   3  12
ENDBRANCH   2   4
ENDBRANCH   1   2
BRANCH   1  15
ATOM     15  C   UNL     1       0.810  -7.006   2.720  0.00  0.00    +0.113 C 
BRANCH  15  16
ATOM     16  C   UNL     1       0.354  -8.381   2.229  0.00  0.00    +0.174 C 
BRANCH  16  17
ATOM     17  O   UNL     1      -0.625  -8.220   1.201  0.00  0.00    -0.382 OA
ATOM     18  C   UNL     1      -1.200  -9.447   0.748  0.00  0.00    +0.194 C 
ENDBRANCH  16  17
ENDBRANCH  15  16
ENDBRANCH   1  15
BRANCH   1  19
ATOM     19  C   UNL     1      -0.607  -6.931   4.683  0.00  0.00    +0.159 C 
BRANCH  19  20
ATOM     20  C   UNL     1      -2.011  -6.575   5.097  0.00  0.00    +0.125 A 
ATOM     21  N   UNL     1      -2.460  -6.950   6.323  0.00  0.00    -0.309 N 
ATOM     22  H   UNL     1      -1.871  -7.442   6.915  0.00  0.00    +0.170 HD
ATOM     23  C   UNL     1      -3.708  -6.652   6.731  0.00  0.00    +0.260 A 
ATOM     24  O   UNL     1      -4.096  -6.996   7.835  0.00  0.00    -0.267 OA
ATOM     25  C   UNL     1      -4.571  -5.926   5.852  0.00  0.00    +0.080 A 
ATOM     26  C   UNL     1      -5.947  -5.489   6.062  0.00  0.00    +0.010 A 
ATOM     27  C   UNL     1      -6.572  -4.805   5.071  0.00  0.00    +0.057 A 
ATOM     28  S   UNL     1      -5.334  -4.710   3.791  0.00  0.00    -0.076 S 
ATOM     29  C   UNL     1      -4.021  -5.581   4.606  0.00  0.00    +0.116 A 
ATOM     30  N   UNL     1      -2.774  -5.907   4.274  0.00  0.00    -0.225 NA
BRANCH  26  31
ATOM     31  C   UNL     1      -6.647  -5.787   7.329  0.00  0.00    +0.021 A 
ATOM     32  C   UNL     1      -7.347  -4.941   8.147  0.00  0.00    +0.016 A 
ATOM     33  C   UNL     1      -7.922  -5.452   9.292  0.00  0.00    +0.011 A 
ATOM     34  C   UNL     1      -7.777  -6.771   9.572  0.00  0.00    -0.013 A 
ATOM     35  S   UNL     1      -6.806  -7.344   8.187  0.00  0.00    -0.093 S 
ATOM     36  C   UNL     1      -8.304  -7.553  10.747  0.00  0.00    +0.051 C 
ENDBRANCH  26  31
ENDBRANCH  19  20
ENDBRANCH   1  19
TORSDOF 9
