REMARK  Name = ZINC28055006
REMARK  6 active torsions:
REMARK  status: ('A' for Active; 'I' for Inactive)
REMARK    1  A    between atoms: C_1  and  C_2
REMARK    2  A    between atoms: C_2  and  O_3
REMARK    3  A    between atoms: O_3  and  C_4
REMARK    4  A    between atoms: C_7  and  C_10
REMARK    5  A    between atoms: C_16  and  C_21
REMARK    6  A    between atoms: C_28  and  C_30
REMARK                            x       y       z     vdW  Elec       q    Type
REMARK                         _______ _______ _______ _____ _____    ______ ____
ROOT
ATOM      1  C   UNL     1      -3.489   1.702  -0.670  0.00  0.00    +0.234 C 
ATOM      2  C   UNL     1      -3.520   3.155  -0.254  0.00  0.00    +0.025 C 
ATOM      3  C   UNL     1      -2.378   3.760   0.079  0.00  0.00    +0.050 C 
ATOM      4  C   UNL     1      -1.126   2.966   0.058  0.00  0.00    +0.038 A 
ATOM      5  C   UNL     1       0.121   3.577   0.065  0.00  0.00    +0.016 A 
ATOM      6  C   UNL     1       1.262   2.797   0.046  0.00  0.00    -0.050 A 
ATOM      7  C   UNL     1       1.164   1.417   0.020  0.00  0.00    +0.007 A 
ATOM      8  C   UNL     1      -0.075   0.800   0.013  0.00  0.00    +0.046 A 
ATOM      9  C   UNL     1      -1.224   1.569   0.027  0.00  0.00    +0.131 A 
ATOM     10  O   UNL     1      -2.458   1.002   0.024  0.00  0.00    -0.479 OA
ATOM     11  C   UNL     1       2.619   3.453   0.053  0.00  0.00    +0.044 C 
ATOM     12  N   UNL     1      -2.325   5.112   0.437  0.00  0.00    -0.282 N 
ATOM     13  C   UNL     1      -3.448   5.882   0.182  0.00  0.00    +0.240 A 
ATOM     14  N   UNL     1      -3.625   7.172   0.187  0.00  0.00    -0.092 NA
ATOM     15  N   UNL     1      -4.845   7.456  -0.119  0.00  0.00    -0.021 NA
ATOM     16  N   UNL     1      -5.519   6.373  -0.337  0.00  0.00    -0.042 NA
ATOM     17  N   UNL     1      -4.637   5.311  -0.145  0.00  0.00    -0.201 N 
ATOM     18  C   UNL     1      -4.847   3.873  -0.244  0.00  0.00    +0.174 C 
ATOM     19  H   UNL     1      -1.417   5.523   0.902  0.00  0.00    +0.155 HD
ENDROOT
BRANCH  18  20
ATOM     20  C   UNL     1      -5.657   3.404   0.936  0.00  0.00    -0.019 A 
ATOM     21  C   UNL     1      -5.174   3.580   2.220  0.00  0.00    +0.009 A 
ATOM     22  C   UNL     1      -5.919   3.155   3.304  0.00  0.00    +0.039 A 
ATOM     23  C   UNL     1      -7.144   2.542   3.103  0.00  0.00    +0.123 A 
ATOM     24  C   UNL     1      -7.624   2.361   1.817  0.00  0.00    +0.039 A 
ATOM     25  C   UNL     1      -6.880   2.792   0.735  0.00  0.00    +0.009 A 
ATOM     26  F   UNL     1      -7.870   2.120   4.162  0.00  0.00    -0.205 F 
ENDBRANCH  18  20
BRANCH   1  30
ATOM     27  C   UNL     1      -2.769   1.456  -4.876  0.00  0.00    +0.121 A 
ATOM     28  C   UNL     1      -4.043   1.229  -4.374  0.00  0.00    +0.046 A 
ATOM     29  C   UNL     1      -4.273   1.309  -3.014  0.00  0.00    +0.011 A 
ATOM     30  C   UNL     1      -3.235   1.615  -2.153  0.00  0.00    -0.003 A 
ATOM     31  C   UNL     1      -1.966   1.848  -2.651  0.00  0.00    +0.011 A 
ATOM     32  C   UNL     1      -1.730   1.764  -4.010  0.00  0.00    +0.046 A 
BRANCH  27  33
ATOM     33  O   UNL     1      -2.540   1.378  -6.213  0.00  0.00    -0.492 OA
BRANCH  33  35
ATOM     34  C   UNL     1      -1.143   1.492  -8.181  0.00  0.00    +0.048 C 
ATOM     35  C   UNL     1      -1.205   1.625  -6.658  0.00  0.00    +0.225 C 
ENDBRANCH  33  35
ENDBRANCH  27  33
ENDBRANCH   1  30
TORSDOF 4
