REMARK  Name = ZINC61696186
REMARK  7 active torsions:
REMARK  status: ('A' for Active; 'I' for Inactive)
REMARK    1  A    between atoms: C_1  and  C_2
REMARK    2  A    between atoms: C_2  and  C_4
REMARK    3  A    between atoms: C_2  and  N_20
REMARK    4  A    between atoms: C_7  and  N_11
REMARK    5  A    between atoms: C_16  and  C_18
REMARK    6  A    between atoms: C_18  and  O_19
REMARK    7  A    between atoms: N_20  and  C_21
REMARK                            x       y       z     vdW  Elec       q    Type
REMARK                         _______ _______ _______ _____ _____    ______ ____
ROOT
ATOM      1  C   UNL     1      -1.412  -0.526   0.013  0.00  0.00    -0.061 A 
ATOM      2  C   UNL     1      -2.122  -0.570   1.199  0.00  0.00    +0.004 A 
ATOM      3  C   UNL     1      -3.418  -1.047   1.212  0.00  0.00    +0.024 A 
ATOM      4  C   UNL     1      -4.008  -1.483   0.033  0.00  0.00    +0.044 A 
ATOM      5  C   UNL     1      -3.293  -1.437  -1.157  0.00  0.00    +0.039 A 
ATOM      6  C   UNL     1      -1.998  -0.953  -1.164  0.00  0.00    +0.019 A 
ATOM      7 BR   UNL     1      -4.091  -2.029  -2.766  0.00  0.00    -0.048 Br
ENDROOT
BRANCH   4   8
ATOM      8  N   UNL     1      -5.319  -1.966   0.044  0.00  0.00    -0.324 N 
ATOM      9  C   UNL     1      -5.589  -3.393   0.270  0.00  0.00    +0.105 C 
ATOM     10  C   UNL     1      -6.463  -3.917  -0.874  0.00  0.00    +0.019 C 
ATOM     11  C   UNL     1      -7.719  -3.050  -0.990  0.00  0.00    +0.003 C 
ATOM     12  C   UNL     1      -7.318  -1.608  -1.310  0.00  0.00    +0.025 C 
ATOM     13  C   UNL     1      -6.454  -1.057  -0.165  0.00  0.00    +0.099 C 
BRANCH  13  14
ATOM     14  C   UNL     1      -5.936   0.334  -0.535  0.00  0.00    +0.178 C 
BRANCH  14  15
ATOM     15  O   UNL     1      -5.265   0.273  -1.796  0.00  0.00    -0.393 OA
ATOM     16  H   UNL     1      -4.910   1.121  -2.094  0.00  0.00    +0.209 HD
ENDBRANCH  14  15
ENDBRANCH  13  14
ENDBRANCH   4   8
BRANCH   1  18
ATOM     17  C   UNL     1      -0.019   1.526   0.010  0.00  0.00    -0.009 C 
ATOM     18  C   UNL     1       0.002  -0.004   0.002  0.00  0.00    -0.044 C 
BRANCH  18  19
ATOM     19  N   UNL     1       0.713  -0.491   1.192  0.00  0.00    +0.382 N 
ATOM     20  C   UNL     1       2.122  -0.083   1.122  0.00  0.00    -0.100 C 
ATOM     21  H   UNL     1       0.290  -0.099   2.020  0.00  0.00    -0.085 HD
ATOM     22  H   UNL     1       0.655  -1.497   1.230  0.00  0.00    -0.085 HD
ENDBRANCH  18  19
ENDBRANCH   1  18
TORSDOF 5
