REMARK  Name = ZINC07349095
REMARK  4 active torsions:
REMARK  status: ('A' for Active; 'I' for Inactive)
REMARK    1  A    between atoms: C_4  and  S_7
REMARK    2  A    between atoms: S_7  and  C_8
REMARK    3  A    between atoms: C_8  and  C_9
REMARK    4  A    between atoms: C_9  and  C_10
REMARK                            x       y       z     vdW  Elec       q    Type
REMARK                         _______ _______ _______ _____ _____    ______ ____
ROOT
ATOM      1  C   UNL     1      -0.759   3.810   1.279  0.00  0.00    +0.219 C 
ATOM      2  O   UNL     1      -0.251   4.428   0.368  0.00  0.00    -0.275 OA
ATOM      3  N   UNL     1      -1.342   4.470   2.299  0.00  0.00    -0.265 N 
ATOM      4  C   UNL     1      -1.361   5.856   2.307  0.00  0.00    +0.166 A 
ATOM      5  N   UNL     1      -0.865   6.691   1.424  0.00  0.00    -0.223 NA
ATOM      6  C   UNL     1      -0.961   8.032   1.558  0.00  0.00    +0.099 A 
ATOM      7  C   UNL     1      -1.623   8.484   2.722  0.00  0.00    +0.044 A 
ATOM      8  S   UNL     1      -2.061   6.961   3.525  0.00  0.00    -0.052 S 
ATOM      9  C   UNL     1      -1.797   9.816   3.005  0.00  0.00    +0.037 A 
ATOM     10  C   UNL     1      -1.312  10.770   2.128  0.00  0.00    +0.044 A 
ATOM     11  C   UNL     1      -0.656  10.362   0.975  0.00  0.00    +0.042 A 
ATOM     12  C   UNL     1      -0.478   9.034   0.684  0.00  0.00    +0.069 A 
ATOM     13 CL   UNL     1       0.349   8.577  -0.772  0.00  0.00    -0.081 Cl
ATOM     14 CL   UNL     1      -1.521  12.460   2.467  0.00  0.00    -0.083 Cl
ATOM     15  H   UNL     1      -1.748   3.976   3.028  0.00  0.00    +0.157 HD
ENDROOT
BRANCH   1  16
ATOM     16  C   UNL     1      -0.739   2.303   1.271  0.00  0.00    +0.107 C 
BRANCH  16  17
ATOM     17  C   UNL     1      -0.022   1.810   0.012  0.00  0.00    +0.083 C 
BRANCH  17  18
ATOM     18  S   UNL     1       0.002  -0.004   0.002  0.00  0.00    -0.125 S 
BRANCH  18  22
ATOM     19  C   UNL     1       2.178  -1.049  -3.830  0.00  0.00    +0.000 A 
ATOM     20  C   UNL     1       1.720  -2.056  -3.001  0.00  0.00    +0.001 A 
ATOM     21  C   UNL     1       1.056  -1.742  -1.831  0.00  0.00    +0.015 A 
ATOM     22  C   UNL     1       0.848  -0.411  -1.489  0.00  0.00    +0.008 A 
ATOM     23  C   UNL     1       1.305   0.599  -2.328  0.00  0.00    +0.015 A 
ATOM     24  C   UNL     1       1.974   0.276  -3.492  0.00  0.00    +0.001 A 
ENDBRANCH  18  22
ENDBRANCH  17  18
ENDBRANCH  16  17
ENDBRANCH   1  16
TORSDOF 4
