REMARK  Name = ZINC59875567
REMARK  14 active torsions:
REMARK  status: ('A' for Active; 'I' for Inactive)
REMARK    1  A    between atoms: C_1  and  C_2
REMARK    2  A    between atoms: C_2  and  C_3
REMARK    3  A    between atoms: C_2  and  C_4
REMARK    4  A    between atoms: C_4  and  C_6
REMARK    5  A    between atoms: C_4  and  N_16
REMARK    6  A    between atoms: C_9  and  C_12
REMARK    7  A    between atoms: C_12  and  C_13
REMARK    8  A    between atoms: C_12  and  C_14
REMARK    9  A    between atoms: C_12  and  C_15
REMARK   10  A    between atoms: C_17  and  C_19
REMARK   11  A    between atoms: C_19  and  C_20
REMARK   12  A    between atoms: C_20  and  C_21
REMARK   13  A    between atoms: C_21  and  C_22
REMARK   14  A    between atoms: C_22  and  C_23
REMARK                            x       y       z     vdW  Elec       q    Type
REMARK                         _______ _______ _______ _____ _____    ______ ____
ROOT
ATOM      1  N   UNL     1       2.116  -0.004   1.231  0.00  0.00    -0.308 N 
ATOM      2  C   UNL     1       2.387   1.219   1.728  0.00  0.00    +0.213 C 
ATOM      3  O   UNL     1       1.493   1.900   2.184  0.00  0.00    -0.276 OA
ATOM      4  H   UNL     1       2.832  -0.548   0.866  0.00  0.00    +0.149 HD
ENDROOT
BRANCH   1   5
ATOM      5  C   UNL     1       0.742  -0.511   1.242  0.00  0.00    +0.106 C 
BRANCH   5   6
ATOM      6  C   UNL     1       0.762  -2.018   1.233  0.00  0.00    -0.027 A 
ATOM      7  C   UNL     1       1.685  -2.692   0.456  0.00  0.00    +0.006 A 
ATOM      8  C   UNL     1       1.704  -4.074   0.448  0.00  0.00    +0.004 A 
ATOM      9  C   UNL     1       0.800  -4.782   1.218  0.00  0.00    -0.042 A 
ATOM     10  C   UNL     1      -0.122  -4.108   1.997  0.00  0.00    +0.004 A 
ATOM     11  C   UNL     1      -0.138  -2.725   2.008  0.00  0.00    +0.006 A 
BRANCH   9  12
ATOM     12  C   UNL     1       0.820  -6.289   1.209  0.00  0.00    -0.013 C 
ATOM     13  C   UNL     1       2.185  -6.784   1.692  0.00  0.00    +0.015 C 
ATOM     14  C   UNL     1      -0.273  -6.819   2.139  0.00  0.00    +0.015 C 
ATOM     15  C   UNL     1       0.568  -6.794  -0.213  0.00  0.00    +0.015 C 
ENDBRANCH   9  12
ENDBRANCH   5   6
BRANCH   5  17
ATOM     16  C   UNL     1      -0.019   1.526   0.010  0.00  0.00    +0.009 C 
ATOM     17  C   UNL     1       0.002  -0.004   0.002  0.00  0.00    +0.008 C 
ATOM     18  C   UNL     1       0.718  -0.497  -1.257  0.00  0.00    +0.009 C 
ENDBRANCH   5  17
ENDBRANCH   1   5
BRANCH   2  19
ATOM     19  C   UNL     1       3.801   1.741   1.718  0.00  0.00    +0.096 C 
BRANCH  19  20
ATOM     20  C   UNL     1       3.833   3.141   2.335  0.00  0.00    +0.009 C 
BRANCH  20  21
ATOM     21  C   UNL     1       5.268   3.670   2.324  0.00  0.00    +0.002 C 
BRANCH  21  22
ATOM     22  C   UNL     1       5.300   5.070   2.941  0.00  0.00    +0.016 C 
BRANCH  22  23
ATOM     23  C   UNL     1       6.736   5.599   2.930  0.00  0.00    +0.069 C 
ATOM     24  C   UNL     1       6.803   7.030   3.506  0.00  0.00    +0.108 C 
ATOM     25  C   UNL     1       8.022   7.277   4.400  0.00  0.00    +0.105 C 
ATOM     26  C   UNL     1       8.937   6.043   4.555  0.00  0.00    +0.093 C 
ATOM     27  S   UNL     1       7.793   4.673   4.126  0.00  0.00    -0.154 S 
ATOM     28  N   UNL     1       7.443   7.604   5.712  0.00  0.00    -0.294 N 
ATOM     29  C   UNL     1       6.107   7.561   5.623  0.00  0.00    +0.300 C 
ATOM     30  O   UNL     1       5.371   7.791   6.563  0.00  0.00    -0.253 OA
ATOM     31  N   UNL     1       5.660   7.239   4.410  0.00  0.00    -0.294 N 
ATOM     32  H   UNL     1       7.947   7.816   6.513  0.00  0.00    +0.151 HD
ATOM     33  H   UNL     1       4.726   7.158   4.164  0.00  0.00    +0.151 HD
ENDBRANCH  22  23
ENDBRANCH  21  22
ENDBRANCH  20  21
ENDBRANCH  19  20
ENDBRANCH   2  19
TORSDOF 9
