REMARK  Name = ZINC13637828
REMARK  7 active torsions:
REMARK  status: ('A' for Active; 'I' for Inactive)
REMARK    1  A    between atoms: C_4  and  C_7
REMARK    2  A    between atoms: C_7  and  C_8
REMARK    3  A    between atoms: C_8  and  C_9
REMARK    4  A    between atoms: C_9  and  O_10
REMARK    5  A    between atoms: O_10  and  C_11
REMARK    6  A    between atoms: C_24  and  C_27
REMARK    7  A    between atoms: C_30  and  O_33
REMARK                            x       y       z     vdW  Elec       q    Type
REMARK                         _______ _______ _______ _____ _____    ______ ____
ROOT
ATOM      1  C   UNL     1       0.083  -3.884   2.949  0.00  0.00    +0.121 A 
ATOM      2  C   UNL     1       0.078  -4.722   1.843  0.00  0.00    +0.047 A 
ATOM      3  C   UNL     1       0.103  -6.090   2.022  0.00  0.00    +0.027 A 
ATOM      4  C   UNL     1       0.121  -6.624   3.304  0.00  0.00    +0.032 A 
ATOM      5  C   UNL     1       0.121  -5.794   4.414  0.00  0.00    -0.016 A 
ATOM      6  C   UNL     1       0.102  -4.418   4.225  0.00  0.00    +0.051 A 
ATOM      7  C   UNL     1       0.143  -6.325   5.812  0.00  0.00    +0.049 C 
ATOM      8  C   UNL     1      -1.210  -6.197   6.471  0.00  0.00    -0.023 C 
ATOM      9  C   UNL     1      -1.440  -7.207   7.256  0.00  0.00    -0.030 C 
ATOM     10  C   UNL     1      -0.276  -8.178   7.220  0.00  0.00    +0.033 C 
ATOM     11  C   UNL     1       0.437  -7.836   5.878  0.00  0.00    +0.029 C 
ATOM     12  C   UNL     1      -0.318  -8.565   4.763  0.00  0.00    +0.105 C 
ATOM     13  N   UNL     1       0.102  -8.017   3.469  0.00  0.00    -0.336 N 
ATOM     14  H   UNL     1       0.372  -8.603   2.744  0.00  0.00    +0.147 HD
ENDROOT
BRANCH  12  15
ATOM     15  C   UNL     1       0.001 -10.036   4.815  0.00  0.00    -0.027 A 
ATOM     16  C   UNL     1       1.181 -10.507   4.268  0.00  0.00    +0.009 A 
ATOM     17  C   UNL     1       1.479 -11.855   4.320  0.00  0.00    +0.046 A 
ATOM     18  C   UNL     1       0.587 -12.738   4.911  0.00  0.00    +0.117 A 
ATOM     19  C   UNL     1      -0.598 -12.265   5.454  0.00  0.00    +0.046 A 
ATOM     20  C   UNL     1      -0.889 -10.915   5.405  0.00  0.00    +0.009 A 
BRANCH  18  21
ATOM     21  O   UNL     1       0.875 -14.066   4.959  0.00  0.00    -0.507 OA
ATOM     22  H   UNL     1       0.557 -14.565   4.195  0.00  0.00    +0.292 HD
ENDBRANCH  18  21
ENDBRANCH  12  15
BRANCH   1  23
ATOM     23  O   UNL     1       0.063  -2.535   2.778  0.00  0.00    -0.492 OA
BRANCH  23  24
ATOM     24  C   UNL     1       0.043  -2.052   1.433  0.00  0.00    +0.229 C 
BRANCH  24  25
ATOM     25  C   UNL     1       0.023  -0.522   1.442  0.00  0.00    +0.046 C 
BRANCH  25  26
ATOM     26  C   UNL     1       0.002  -0.004   0.002  0.00  0.00    +0.038 C 
BRANCH  26  30
ATOM     27  C   UNL     1      -0.056   4.267   0.025  0.00  0.00    +0.000 A 
ATOM     28  C   UNL     1       1.151   3.592   0.010  0.00  0.00    +0.000 A 
ATOM     29  C   UNL     1       1.169   2.210   0.003  0.00  0.00    +0.003 A 
ATOM     30  C   UNL     1      -0.018   1.503   0.010  0.00  0.00    -0.047 A 
ATOM     31  C   UNL     1      -1.225   2.178   0.020  0.00  0.00    +0.003 A 
ATOM     32  C   UNL     1      -1.244   3.560   0.032  0.00  0.00    +0.000 A 
ENDBRANCH  26  30
ENDBRANCH  25  26
ENDBRANCH  24  25
ENDBRANCH  23  24
ENDBRANCH   1  23
TORSDOF 7
