REMARK  Name = ZINC20982295
REMARK  9 active torsions:
REMARK  status: ('A' for Active; 'I' for Inactive)
REMARK    1  A    between atoms: C_1  and  C_2
REMARK    2  A    between atoms: C_2  and  C_4
REMARK    3  A    between atoms: C_2  and  O_15
REMARK    4  A    between atoms: N_6  and  C_7
REMARK    5  A    between atoms: O_15  and  C_16
REMARK    6  A    between atoms: C_16  and  C_18
REMARK    7  A    between atoms: C_18  and  C_19
REMARK    8  A    between atoms: C_19  and  C_21
REMARK    9  A    between atoms: C_19  and  N_28
REMARK                            x       y       z     vdW  Elec       q    Type
REMARK                         _______ _______ _______ _____ _____    ______ ____
ROOT
ATOM      1  C   UNL     1       4.207   8.174  -1.002  0.00  0.00    +0.310 C 
ATOM      2  O   UNL     1       5.168   7.663  -1.527  0.00  0.00    -0.251 OA
ENDROOT
BRANCH   1   3
ATOM      3  O   UNL     1       3.343   7.420  -0.304  0.00  0.00    -0.452 OA
BRANCH   3   5
ATOM      4  C   UNL     1       4.499   5.722   1.005  0.00  0.00    +0.062 C 
ATOM      5  C   UNL     1       3.626   5.998  -0.222  0.00  0.00    +0.259 C 
BRANCH   5   6
ATOM      6  C   UNL     1       2.333   5.234  -0.100  0.00  0.00    +0.258 C 
ATOM      7  O   UNL     1       1.276   5.830  -0.085  0.00  0.00    -0.271 OA
ATOM      8  N   UNL     1       2.350   3.890  -0.009  0.00  0.00    -0.281 N 
ATOM      9  H   UNL     1       3.310   3.355   0.051  0.00  0.00    +0.155 HD
BRANCH   8  10
ATOM     10  C   UNL     1       1.147   3.174   0.010  0.00  0.00    +0.053 A 
ATOM     11  C   UNL     1       0.028   3.711   0.631  0.00  0.00    +0.044 A 
ATOM     12  C   UNL     1      -1.158   3.002   0.648  0.00  0.00    +0.043 A 
ATOM     13  C   UNL     1      -1.232   1.760   0.041  0.00  0.00    +0.021 A 
ATOM     14  C   UNL     1      -0.117   1.220  -0.573  0.00  0.00    +0.023 A 
ATOM     15  C   UNL     1       1.072   1.925  -0.594  0.00  0.00    +0.062 A 
ATOM     16 CL   UNL     1       2.469   1.249  -1.371  0.00  0.00    -0.082 Cl
ATOM     17 CL   UNL     1      -2.559   3.672   1.424  0.00  0.00    -0.083 Cl
ENDBRANCH   8  10
ENDBRANCH   5   6
ENDBRANCH   3   5
ENDBRANCH   1   3
BRANCH   1  18
ATOM     18  C   UNL     1       3.978   9.658  -1.131  0.00  0.00    +0.147 C 
BRANCH  18  19
ATOM     19  C   UNL     1       5.099  10.276  -1.970  0.00  0.00    +0.115 C 
BRANCH  19  20
ATOM     20  C   UNL     1       4.806  11.736  -2.202  0.00  0.00    -0.027 A 
ATOM     21  C   UNL     1       3.515  12.212  -2.065  0.00  0.00    +0.007 A 
ATOM     22  C   UNL     1       3.247  13.552  -2.273  0.00  0.00    +0.020 A 
ATOM     23  C   UNL     1       4.269  14.414  -2.629  0.00  0.00    +0.041 A 
ATOM     24  C   UNL     1       5.559  13.936  -2.771  0.00  0.00    +0.020 A 
ATOM     25  C   UNL     1       5.827  12.597  -2.558  0.00  0.00    +0.007 A 
ATOM     26 CL   UNL     1       3.931  16.096  -2.897  0.00  0.00    -0.084 Cl
ENDBRANCH  19  20
BRANCH  19  27
ATOM     27  N   UNL     1       6.372  10.140  -1.258  0.00  0.00    -0.292 N 
ATOM     28  C   UNL     1       6.564  10.785  -0.090  0.00  0.00    +0.298 C 
ATOM     29  O   UNL     1       5.650  11.405   0.419  0.00  0.00    -0.253 OA
ATOM     30  N   UNL     1       7.768  10.742   0.514  0.00  0.00    -0.313 N 
ATOM     31  H   UNL     1       7.172   9.512  -1.677  0.00  0.00    +0.151 HD
ATOM     32  H   UNL     1       7.924  11.269   1.467  0.00  0.00    +0.146 HD
ATOM     33  H   UNL     1       8.594  10.181   0.054  0.00  0.00    +0.146 HD
ENDBRANCH  19  27
ENDBRANCH  18  19
ENDBRANCH   1  18
TORSDOF 8
