REMARK  Name = ZINC13174264
REMARK  8 active torsions:
REMARK  status: ('A' for Active; 'I' for Inactive)
REMARK    1  A    between atoms: C_1  and  C_2
REMARK    2  A    between atoms: C_5  and  C_34
REMARK    3  A    between atoms: C_6  and  N_8
REMARK    4  A    between atoms: C_9  and  C_11
REMARK    5  A    between atoms: C_11  and  S_12
REMARK    6  A    between atoms: S_12  and  C_13
REMARK    7  A    between atoms: C_14  and  C_32
REMARK    8  A    between atoms: C_15  and  C_25
REMARK                            x       y       z     vdW  Elec       q    Type
REMARK                         _______ _______ _______ _____ _____    ______ ____
ROOT
ATOM      1  C   UNL     1       0.537  -2.770   7.657  0.00  0.00    +0.080 C 
ATOM      2  C   UNL     1       0.637  -2.216   8.895  0.00  0.00    +0.069 C 
ATOM      3  C   UNL     1       0.753  -3.075  10.120  0.00  0.00    +0.097 C 
ATOM      4  C   UNL     1       1.172  -4.479   9.763  0.00  0.00    +0.024 C 
ATOM      5  C   UNL     1       1.047  -4.940   8.500  0.00  0.00    +0.016 C 
ATOM      6  N   UNL     1       0.543  -4.138   7.511  0.00  0.00    -0.311 N 
ATOM      7  C   UNL     1       1.448  -6.351   8.146  0.00  0.00    +0.051 C 
ATOM      8  C   UNL     1       2.602  -6.799   9.045  0.00  0.00    +0.014 C 
ATOM      9  C   UNL     1       2.148  -6.699  10.505  0.00  0.00    +0.080 C 
ATOM     10  C   UNL     1       1.698  -5.291  10.783  0.00  0.00    +0.162 C 
ATOM     11  O   UNL     1       1.790  -4.847  11.910  0.00  0.00    -0.292 OA
ATOM     12  H   UNL     1       0.191  -4.536   6.699  0.00  0.00    +0.152 HD
ENDROOT
BRANCH   3  13
ATOM     13  C   UNL     1      -0.581  -3.121  10.819  0.00  0.00    -0.035 A 
ATOM     14  C   UNL     1      -1.688  -3.624  10.162  0.00  0.00    +0.006 A 
ATOM     15  C   UNL     1      -2.912  -3.667  10.803  0.00  0.00    +0.020 A 
ATOM     16  C   UNL     1      -3.029  -3.206  12.102  0.00  0.00    +0.041 A 
ATOM     17  C   UNL     1      -1.920  -2.703  12.759  0.00  0.00    +0.020 A 
ATOM     18  C   UNL     1      -0.696  -2.666  12.119  0.00  0.00    +0.006 A 
ATOM     19 CL   UNL     1      -4.566  -3.259  12.907  0.00  0.00    -0.084 Cl
ENDBRANCH   3  13
BRANCH   2  20
ATOM     20  C   UNL     1       0.631  -0.791   9.031  0.00  0.00    +0.098 C 
ATOM     21  N   UNL     1       0.627   0.340   9.140  0.00  0.00    -0.191 NA
ENDBRANCH   2  20
BRANCH   1  22
ATOM     22  S   UNL     1       0.391  -1.734   6.239  0.00  0.00    -0.100 S 
BRANCH  22  23
ATOM     23  C   UNL     1       0.280  -2.900   4.854  0.00  0.00    +0.171 C 
BRANCH  23  25
ATOM     24  N   UNL     1       0.052  -2.797   2.393  0.00  0.00    -0.285 N 
ATOM     25  C   UNL     1       0.150  -2.135   3.562  0.00  0.00    +0.227 C 
ATOM     26  O   UNL     1       0.134  -0.922   3.575  0.00  0.00    -0.275 OA
ATOM     27  H   UNL     1      -0.016  -3.765   2.388  0.00  0.00    +0.155 HD
BRANCH  24  33
ATOM     28  C   UNL     1       1.264   1.227  -0.158  0.00  0.00    +0.044 C 
ATOM     29  C   UNL     1       0.628  -0.137  -0.079  0.00  0.00    -0.049 A 
ATOM     30  C   UNL     1       0.039  -0.690  -1.201  0.00  0.00    +0.004 A 
ATOM     31  C   UNL     1      -0.546  -1.941  -1.133  0.00  0.00    +0.005 A 
ATOM     32  C   UNL     1      -0.543  -2.643   0.057  0.00  0.00    -0.029 A 
ATOM     33  C   UNL     1       0.048  -2.090   1.185  0.00  0.00    +0.037 A 
ATOM     34  C   UNL     1       0.639  -0.835   1.112  0.00  0.00    +0.027 A 
ATOM     35  C   UNL     1      -1.181  -4.006   0.131  0.00  0.00    +0.045 C 
ENDBRANCH  24  33
ENDBRANCH  23  25
ENDBRANCH  22  23
ENDBRANCH   1  22
TORSDOF 6
