REMARK  Name = ZINC38658548
REMARK  15 active torsions:
REMARK  status: ('A' for Active; 'I' for Inactive)
REMARK    1  A    between atoms: C_1  and  C_2
REMARK    2  A    between atoms: C_2  and  C_3
REMARK    3  A    between atoms: C_2  and  C_4
REMARK    4  A    between atoms: C_4  and  O_5
REMARK    5  A    between atoms: O_5  and  C_6
REMARK    6  A    between atoms: C_9  and  C_12
REMARK    7  A    between atoms: C_12  and  O_14
REMARK    8  A    between atoms: O_14  and  C_15
REMARK    9  A    between atoms: C_22  and  N_38
REMARK   10  A    between atoms: C_23  and  C_36
REMARK   11  A    between atoms: C_24  and  C_26
REMARK   12  A    between atoms: C_29  and  O_34
REMARK   13  A    between atoms: C_30  and  O_32
REMARK   14  A    between atoms: O_32  and  C_33
REMARK   15  A    between atoms: O_34  and  C_35
REMARK                            x       y       z     vdW  Elec       q    Type
REMARK                         _______ _______ _______ _____ _____    ______ ____
ROOT
ATOM      1  C   UNL     1       7.276  -1.651  -6.680  0.00  0.00    +0.135 A 
ATOM      2  C   UNL     1       6.586  -2.296  -7.697  0.00  0.00    +0.047 A 
ATOM      3  C   UNL     1       7.253  -2.697  -8.838  0.00  0.00    +0.012 A 
ATOM      4  C   UNL     1       8.609  -2.459  -8.972  0.00  0.00    +0.008 A 
ATOM      5  C   UNL     1       9.304  -1.816  -7.960  0.00  0.00    +0.138 A 
ATOM      6  C   UNL     1       8.633  -1.407  -6.814  0.00  0.00    +0.093 A 
ATOM      7  O   UNL     1      10.633  -1.574  -8.073  0.00  0.00    -0.441 OA
ATOM      8  C   UNL     1      11.217  -1.594  -9.283  0.00  0.00    +0.199 C 
ATOM      9  C   UNL     1      10.645  -2.208 -10.345  0.00  0.00    +0.098 C 
ATOM     10  C   UNL     1       9.319  -2.904 -10.224  0.00  0.00    +0.098 C 
ENDROOT
BRANCH  10  11
ATOM     11  C   UNL     1       9.540  -4.394 -10.168  0.00  0.00    -0.031 A 
ATOM     12  C   UNL     1      10.284  -4.943  -9.141  0.00  0.00    +0.008 A 
ATOM     13  C   UNL     1      10.490  -6.309  -9.086  0.00  0.00    +0.050 A 
ATOM     14  C   UNL     1       9.950  -7.131 -10.062  0.00  0.00    +0.162 A 
ATOM     15  C   UNL     1       9.201  -6.578 -11.096  0.00  0.00    +0.162 A 
ATOM     16  C   UNL     1       8.994  -5.209 -11.143  0.00  0.00    +0.054 A 
BRANCH  15  17
ATOM     17  O   UNL     1       8.669  -7.381 -12.057  0.00  0.00    -0.491 OA
ATOM     18  C   UNL     1       7.912  -6.744 -13.088  0.00  0.00    +0.277 C 
ENDBRANCH  15  17
BRANCH  14  19
ATOM     19  O   UNL     1      10.152  -8.475 -10.009  0.00  0.00    -0.491 OA
ATOM     20  C   UNL     1      10.931  -8.972  -8.919  0.00  0.00    +0.277 C 
ENDBRANCH  14  19
ENDBRANCH  10  11
BRANCH   8  21
ATOM     21  N   UNL     1      12.430  -0.973  -9.447  0.00  0.00    -0.328 N 
ATOM     22  H   UNL     1      12.853  -0.528  -8.695  0.00  0.00    +0.145 HD
ATOM     23  H   UNL     1      12.865  -0.979 -10.314  0.00  0.00    +0.145 HD
ENDBRANCH   8  21
BRANCH   9  24
ATOM     24  C   UNL     1      11.317  -2.195 -11.609  0.00  0.00    +0.101 C 
ATOM     25  N   UNL     1      11.851  -2.184 -12.612  0.00  0.00    -0.191 NA
ENDBRANCH   9  24
BRANCH   1  26
ATOM     26  O   UNL     1       6.621  -1.255  -5.557  0.00  0.00    -0.422 OA
BRANCH  26  27
ATOM     27  C   UNL     1       6.312   0.051  -5.432  0.00  0.00    +0.344 C 
ATOM     28  O   UNL     1       6.697   0.848  -6.264  0.00  0.00    -0.245 OA
BRANCH  27  32
ATOM     29  C   UNL     1       3.995   1.377  -2.131  0.00  0.00    +0.121 A 
ATOM     30  C   UNL     1       4.435   2.291  -3.082  0.00  0.00    +0.046 A 
ATOM     31  C   UNL     1       5.187   1.865  -4.154  0.00  0.00    +0.018 A 
ATOM     32  C   UNL     1       5.508   0.511  -4.285  0.00  0.00    +0.060 A 
ATOM     33  C   UNL     1       5.064  -0.405  -3.328  0.00  0.00    +0.018 A 
ATOM     34  C   UNL     1       4.317   0.030  -2.256  0.00  0.00    +0.046 A 
BRANCH  29  35
ATOM     35  O   UNL     1       3.254   1.801  -1.077  0.00  0.00    -0.492 OA
BRANCH  35  36
ATOM     36  C   UNL     1       2.960   3.198  -1.010  0.00  0.00    +0.232 C 
BRANCH  36  38
ATOM     37  C   UNL     1       2.952   3.185   1.488  0.00  0.00    +0.010 C 
ATOM     38  C   UNL     1       2.122   3.484   0.238  0.00  0.00    +0.020 C 
ATOM     39  C   UNL     1       1.702   4.955   0.244  0.00  0.00    +0.010 C 
ENDBRANCH  36  38
ENDBRANCH  35  36
ENDBRANCH  29  35
ENDBRANCH  27  32
ENDBRANCH  26  27
ENDBRANCH   1  26
TORSDOF 11
