REMARK  Name = ZINC49067627
REMARK  9 active torsions:
REMARK  status: ('A' for Active; 'I' for Inactive)
REMARK    1  A    between atoms: C_8  and  C_10
REMARK    2  A    between atoms: C_10  and  N_11
REMARK    3  A    between atoms: N_11  and  C_12
REMARK    4  A    between atoms: N_11  and  C_28
REMARK    5  A    between atoms: C_12  and  C_13
REMARK    6  A    between atoms: C_16  and  C_19
REMARK    7  A    between atoms: C_19  and  N_20
REMARK    8  A    between atoms: N_20  and  C_21
REMARK    9  A    between atoms: C_21  and  C_22
REMARK                            x       y       z     vdW  Elec       q    Type
REMARK                         _______ _______ _______ _____ _____    ______ ____
ROOT
ATOM      1  N   UNL     1       3.099  -4.460  -1.419  0.00  0.00    -0.284 NA
ENDROOT
BRANCH   1   2
ATOM      2  C   UNL     1       4.315  -3.819  -1.936  0.00  0.00    +0.106 C 
ATOM      3  C   UNL     1       5.218  -3.435  -0.765  0.00  0.00    +0.025 C 
ATOM      4  C   UNL     1       6.373  -2.583  -1.303  0.00  0.00    +0.007 C 
ATOM      5  C   UNL     1       5.812  -1.228  -1.733  0.00  0.00    +0.037 C 
ATOM      6  C   UNL     1       4.626  -1.413  -2.641  0.00  0.00    -0.025 A 
ATOM      7  C   UNL     1       3.934  -2.598  -2.733  0.00  0.00    +0.062 A 
ATOM      8  N   UNL     1       2.891  -2.698  -3.547  0.00  0.00    -0.258 NA
ATOM      9  C   UNL     1       2.479  -1.694  -4.291  0.00  0.00    +0.111 A 
ATOM     10  C   UNL     1       3.130  -0.475  -4.250  0.00  0.00    +0.020 A 
ATOM     11  C   UNL     1       4.221  -0.329  -3.414  0.00  0.00    +0.007 A 
ENDBRANCH   1   2
BRANCH   1  12
ATOM     12  C   UNL     1       2.504  -3.665  -0.336  0.00  0.00    +0.148 C 
BRANCH  12  20
ATOM     13  C   UNL     1      -1.262   0.319  -3.151  0.00  0.00    +0.002 A 
ATOM     14  C   UNL     1      -0.436   1.394  -2.854  0.00  0.00    +0.001 A 
ATOM     15  C   UNL     1       0.733   1.179  -2.148  0.00  0.00    +0.017 A 
ATOM     16  C   UNL     1       1.056  -0.096  -1.753  0.00  0.00    +0.039 A 
ATOM     17  C   UNL     1       0.233  -1.208  -2.042  0.00  0.00    +0.079 A 
ATOM     18  C   UNL     1      -0.951  -0.949  -2.763  0.00  0.00    +0.029 A 
ATOM     19  N   UNL     1       0.722  -2.373  -1.570  0.00  0.00    -0.243 NA
ATOM     20  C   UNL     1       1.844  -2.440  -0.916  0.00  0.00    +0.094 A 
ATOM     21  S   UNL     1       2.393  -0.850  -0.863  0.00  0.00    -0.071 S 
ENDBRANCH  12  20
ENDBRANCH   1  12
BRANCH   1  22
ATOM     22  C   UNL     1       3.374  -5.832  -0.974  0.00  0.00    +0.120 C 
BRANCH  22  23
ATOM     23  C   UNL     1       3.598  -6.715  -2.175  0.00  0.00    -0.033 A 
ATOM     24  C   UNL     1       2.518  -7.260  -2.843  0.00  0.00    +0.005 A 
ATOM     25  C   UNL     1       2.723  -8.069  -3.945  0.00  0.00    +0.002 A 
ATOM     26  C   UNL     1       4.009  -8.332  -4.379  0.00  0.00    -0.064 A 
ATOM     27  C   UNL     1       5.089  -7.786  -3.712  0.00  0.00    +0.002 A 
ATOM     28  C   UNL     1       4.884  -6.973  -2.613  0.00  0.00    +0.005 A 
BRANCH  26  29
ATOM     29  C   UNL     1       4.232  -9.215  -5.580  0.00  0.00    -0.046 C 
BRANCH  29  30
ATOM     30  N   UNL     1       4.367  -8.382  -6.782  0.00  0.00    +0.385 N 
ATOM     31  H   UNL     1       3.557  -7.787  -6.872  0.00  0.00    -0.085 HD
ATOM     32  H   UNL     1       5.197  -7.812  -6.705  0.00  0.00    -0.085 HD
BRANCH  30  33
ATOM     33  C   UNL     1       4.474  -9.245  -7.966  0.00  0.00    -0.026 C 
BRANCH  33  34
ATOM     34  C   UNL     1       4.613  -8.390  -9.200  0.00  0.00    +0.024 A 
ATOM     35  C   UNL     1       5.871  -8.112  -9.700  0.00  0.00    +0.021 A 
ATOM     36  C   UNL     1       5.987  -7.325 -10.835  0.00  0.00    +0.003 A 
ATOM     37  C   UNL     1       4.829  -6.845 -11.427  0.00  0.00    +0.020 A 
ATOM     38  C   UNL     1       3.605  -7.164 -10.870  0.00  0.00    +0.111 A 
ATOM     39  N   UNL     1       3.532  -7.921  -9.792  0.00  0.00    -0.262 NA
ENDBRANCH  33  34
ENDBRANCH  30  33
ENDBRANCH  29  30
ENDBRANCH  26  29
ENDBRANCH  22  23
ENDBRANCH   1  22
TORSDOF 9
