REMARK  Name = ZINC12564588
REMARK  8 active torsions:
REMARK  status: ('A' for Active; 'I' for Inactive)
REMARK    1  A    between atoms: C_1  and  C_2
REMARK    2  A    between atoms: C_3  and  C_10
REMARK    3  A    between atoms: C_12  and  C_21
REMARK    4  A    between atoms: C_13  and  C_15
REMARK    5  A    between atoms: C_15  and  C_17
REMARK    6  A    between atoms: C_17  and  C_18
REMARK    7  A    between atoms: C_17  and  C_19
REMARK    8  A    between atoms: C_17  and  C_20
REMARK                            x       y       z     vdW  Elec       q    Type
REMARK                         _______ _______ _______ _____ _____    ______ ____
ROOT
ATOM      1  C   UNL     1       0.457  -2.649  -0.015  0.00  0.00    +0.128 A 
ATOM      2  N   UNL     1      -0.798  -2.203  -0.001  0.00  0.00    -0.234 NA
ATOM      3  C   UNL     1      -1.071  -0.920   0.013  0.00  0.00    +0.124 A 
ATOM      4  C   UNL     1       0.002  -0.004   0.002  0.00  0.00    +0.086 A 
ATOM      5  S   UNL     1       1.393  -1.127  -0.017  0.00  0.00    -0.062 S 
ENDROOT
BRANCH   1   8
ATOM      6  C   UNL     1       3.463  -3.529  -0.046  0.00  0.00    +0.068 C 
ATOM      7  C   UNL     1       2.258  -4.434  -0.039  0.00  0.00    +0.067 A 
ATOM      8  C   UNL     1       0.943  -4.030  -0.026  0.00  0.00    +0.102 A 
ATOM      9  N   UNL     1       0.156  -5.192  -0.018  0.00  0.00    -0.291 N 
ATOM     10  C   UNL     1      -1.178  -5.526  -0.001  0.00  0.00    +0.101 A 
ATOM     11  C   UNL     1      -1.562  -6.803   0.001  0.00  0.00    +0.067 A 
ATOM     12  S   UNL     1       0.006  -7.658  -0.033  0.00  0.00    -0.058 S 
ATOM     13  C   UNL     1       1.055  -6.222  -0.036  0.00  0.00    +0.178 A 
ATOM     14  N   UNL     1       2.280  -5.766  -0.045  0.00  0.00    -0.226 NA
ENDBRANCH   1   8
BRANCH   3  15
ATOM     15  C   UNL     1      -2.465  -0.447   0.036  0.00  0.00    +0.156 A 
ATOM     16  C   UNL     1      -3.523  -1.043  -0.585  0.00  0.00    +0.052 A 
ATOM     17  C   UNL     1      -4.655  -0.259  -0.298  0.00  0.00    +0.057 A 
ATOM     18  C   UNL     1      -4.240   0.767   0.476  0.00  0.00    +0.171 A 
ATOM     19  O   UNL     1      -2.919   0.647   0.679  0.00  0.00    -0.447 OA
ATOM     20 BR   UNL     1      -5.341   2.143   1.164  0.00  0.00    -0.008 Br
ENDBRANCH   3  15
BRANCH   4  21
ATOM     21  C   UNL     1      -0.017   1.395   0.010  0.00  0.00    +0.177 C 
ATOM     22  O   UNL     1      -1.079   1.989   0.018  0.00  0.00    -0.291 OA
BRANCH  21  23
ATOM     23  C   UNL     1       1.278   2.166   0.002  0.00  0.00    +0.026 C 
ATOM     24  C   UNL     1       0.978   3.667   0.012  0.00  0.00    +0.019 C 
ATOM     25  C   UNL     1       2.097   1.801   1.241  0.00  0.00    +0.019 C 
ATOM     26  C   UNL     1       2.073   1.814  -1.257  0.00  0.00    +0.019 C 
ENDBRANCH  21  23
ENDBRANCH   4  21
TORSDOF 4
