REMARK  Name = ZINC40563479
REMARK  8 active torsions:
REMARK  status: ('A' for Active; 'I' for Inactive)
REMARK    1  A    between atoms: C_1  and  N_2
REMARK    2  A    between atoms: C_15  and  N_18
REMARK    3  A    between atoms: N_18  and  C_19
REMARK    4  A    between atoms: C_19  and  C_20
REMARK    5  A    between atoms: C_20  and  C_22
REMARK    6  A    between atoms: C_20  and  N_29
REMARK    7  A    between atoms: N_29  and  C_30
REMARK    8  A    between atoms: N_29  and  C_31
REMARK                            x       y       z     vdW  Elec       q    Type
REMARK                         _______ _______ _______ _____ _____    ______ ____
ROOT
ATOM      1  C   UNL     1       0.626   2.697  -0.038  0.00  0.00    +0.152 C 
ATOM      2  N   UNL     1       0.893   1.272  -0.244  0.00  0.00    -0.311 N 
ATOM      3  C   UNL     1       1.098   0.643  -1.458  0.00  0.00    +0.070 A 
ATOM      4  C   UNL     1       1.124   1.076  -2.776  0.00  0.00    +0.028 A 
ATOM      5  C   UNL     1       1.362   0.170  -3.788  0.00  0.00    +0.002 A 
ATOM      6  C   UNL     1       1.575  -1.170  -3.497  0.00  0.00    +0.002 A 
ATOM      7  C   UNL     1       1.553  -1.614  -2.206  0.00  0.00    +0.030 A 
ATOM      8  C   UNL     1       1.314  -0.714  -1.163  0.00  0.00    +0.091 A 
ATOM      9  N   UNL     1       1.232  -0.848   0.185  0.00  0.00    -0.211 NA
ATOM     10  C   UNL     1       0.991   0.318   0.728  0.00  0.00    +0.236 A 
ATOM     11  N   UNL     1       0.851   0.549   2.090  0.00  0.00    -0.161 N 
ATOM     12  C   UNL     1       0.974  -0.474   2.957  0.00  0.00    +0.295 A 
ATOM     13  O   UNL     1       1.208  -1.601   2.549  0.00  0.00    -0.264 OA
ATOM     14  C   UNL     1       0.832  -0.238   4.332  0.00  0.00    +0.129 A 
ATOM     15  C   UNL     1       0.568   1.048   4.768  0.00  0.00    +0.071 A 
ATOM     16  C   UNL     1       0.447   2.089   3.822  0.00  0.00    +0.158 A 
ATOM     17  N   UNL     1       0.588   1.844   2.549  0.00  0.00    -0.167 NA
ATOM     18 CL   UNL     1       0.986  -1.539   5.471  0.00  0.00    -0.076 Cl
ENDROOT
BRANCH  15  19
ATOM     19  N   UNL     1       0.423   1.312   6.120  0.00  0.00    -0.343 N 
ATOM     20  H   UNL     1       0.506   0.594   6.766  0.00  0.00    +0.146 HD
BRANCH  19  21
ATOM     21  C   UNL     1       0.143   2.677   6.573  0.00  0.00    +0.091 C 
BRANCH  21  22
ATOM     22  C   UNL     1      -0.088   2.674   8.086  0.00  0.00    -0.020 C 
BRANCH  22  23
ATOM     23  C   UNL     1      -1.331   1.883   8.403  0.00  0.00    -0.041 A 
ATOM     24  C   UNL     1      -1.225   0.580   8.853  0.00  0.00    +0.003 A 
ATOM     25  C   UNL     1      -2.365  -0.146   9.144  0.00  0.00    +0.000 A 
ATOM     26  C   UNL     1      -3.611   0.430   8.985  0.00  0.00    +0.001 A 
ATOM     27  C   UNL     1      -3.719   1.732   8.534  0.00  0.00    +0.020 A 
ATOM     28  C   UNL     1      -2.578   2.462   8.249  0.00  0.00    +0.043 A 
ATOM     29 CL   UNL     1      -2.711   4.099   7.689  0.00  0.00    -0.083 Cl
ENDBRANCH  22  23
BRANCH  22  30
ATOM     30  N   UNL     1       1.067   2.061   8.756  0.00  0.00    +0.382 N 
ATOM     31  C   UNL     1       2.296   2.752   8.343  0.00  0.00    -0.096 C 
ATOM     32  C   UNL     1       0.906   2.177  10.212  0.00  0.00    -0.096 C 
ATOM     33  H   UNL     1       1.126   1.087   8.501  0.00  0.00    -0.082 HD
ENDBRANCH  22  30
ENDBRANCH  21  22
ENDBRANCH  19  21
ENDBRANCH  15  19
TORSDOF 5
