REMARK  Name = ZINC40299434
REMARK  7 active torsions:
REMARK  status: ('A' for Active; 'I' for Inactive)
REMARK    1  A    between atoms: C_8  and  C_21
REMARK    2  A    between atoms: N_9  and  C_10
REMARK    3  A    between atoms: C_10  and  C_11
REMARK    4  A    between atoms: N_13  and  C_14
REMARK    5  A    between atoms: C_21  and  C_22
REMARK    6  A    between atoms: C_22  and  N_23
REMARK    7  A    between atoms: C_24  and  C_26
REMARK                            x       y       z     vdW  Elec       q    Type
REMARK                         _______ _______ _______ _____ _____    ______ ____
ROOT
ATOM      1  C   UNL     1      -0.010   1.368  -0.011  0.00  0.00    +0.002 A 
ATOM      2  C   UNL     1       1.176   2.089  -0.022  0.00  0.00    +0.002 A 
ATOM      3  C   UNL     1       2.390   1.436  -0.031  0.00  0.00    +0.028 A 
ATOM      4  C   UNL     1       2.425   0.049  -0.029  0.00  0.00    +0.069 A 
ATOM      5  C   UNL     1       1.224  -0.681  -0.018  0.00  0.00    +0.089 A 
ATOM      6  C   UNL     1       0.005   0.002  -0.009  0.00  0.00    +0.030 A 
ATOM      7  N   UNL     1       1.561  -1.996  -0.019  0.00  0.00    -0.232 NA
ATOM      8  C   UNL     1       2.856  -2.117  -0.030  0.00  0.00    +0.113 A 
ATOM      9  N   UNL     1       3.439  -0.888  -0.037  0.00  0.00    -0.319 N 
ENDROOT
BRANCH   9  10
ATOM     10  C   UNL     1       4.878  -0.610  -0.050  0.00  0.00    +0.219 C 
BRANCH  10  11
ATOM     11  C   UNL     1       5.383  -0.512   1.366  0.00  0.00    +0.237 C 
ATOM     12  O   UNL     1       4.618  -0.661   2.295  0.00  0.00    -0.274 OA
ATOM     13  N   UNL     1       6.687  -0.260   1.601  0.00  0.00    -0.284 N 
ATOM     14  H   UNL     1       7.311  -0.208   0.861  0.00  0.00    +0.155 HD
BRANCH  13  15
ATOM     15  C   UNL     1       7.138  -0.074   2.912  0.00  0.00    +0.034 A 
ATOM     16  C   UNL     1       8.152   0.838   3.176  0.00  0.00    +0.024 A 
ATOM     17  C   UNL     1       8.596   1.020   4.471  0.00  0.00    +0.017 A 
ATOM     18  C   UNL     1       8.031   0.295   5.505  0.00  0.00    +0.018 A 
ATOM     19  C   UNL     1       7.021  -0.614   5.246  0.00  0.00    +0.017 A 
ATOM     20  C   UNL     1       6.569  -0.796   3.953  0.00  0.00    +0.024 A 
ATOM     21 BR   UNL     1       8.641   0.547   7.277  0.00  0.00    -0.050 Br
ENDBRANCH  13  15
ENDBRANCH  10  11
ENDBRANCH   9  10
BRANCH   8  22
ATOM     22  C   UNL     1       3.602  -3.426  -0.034  0.00  0.00    +0.093 C 
BRANCH  22  23
ATOM     23  C   UNL     1       3.842  -3.872  -1.478  0.00  0.00    +0.112 C 
BRANCH  23  24
ATOM     24  N   UNL     1       4.567  -5.145  -1.482  0.00  0.00    -0.313 N 
ATOM     25  C   UNL     1       4.891  -5.732  -2.651  0.00  0.00    +0.242 C 
ATOM     26  O   UNL     1       4.582  -5.207  -3.700  0.00  0.00    -0.273 OA
ATOM     27  H   UNL     1       4.814  -5.565  -0.643  0.00  0.00    +0.149 HD
BRANCH  25  28
ATOM     28  C   UNL     1       5.636  -7.042  -2.655  0.00  0.00    +0.204 C 
ATOM     29  C   UNL     1       4.750  -8.167  -2.064  0.00  0.00    +0.043 C 
ATOM     30  C   UNL     1       5.380  -9.420  -2.732  0.00  0.00    +0.031 C 
ATOM     31  C   UNL     1       5.804  -8.877  -4.113  0.00  0.00    +0.161 C 
ATOM     32  O   UNL     1       5.917  -7.452  -4.003  0.00  0.00    -0.367 OA
ENDBRANCH  25  28
ENDBRANCH  23  24
ENDBRANCH  22  23
ENDBRANCH   8  22
TORSDOF 7
