REMARK  Name = ZINC40985629
REMARK  13 active torsions:
REMARK  status: ('A' for Active; 'I' for Inactive)
REMARK    1  A    between atoms: C_1  and  C_2
REMARK    2  A    between atoms: C_2  and  C_3
REMARK    3  A    between atoms: C_3  and  S_4
REMARK    4  A    between atoms: S_4  and  C_5
REMARK    5  A    between atoms: C_8  and  C_12
REMARK    6  A    between atoms: N_14  and  C_15
REMARK    7  A    between atoms: C_15  and  C_16
REMARK    8  A    between atoms: C_16  and  C_18
REMARK    9  A    between atoms: C_16  and  N_28
REMARK   10  A    between atoms: C_21  and  C_24
REMARK   11  A    between atoms: C_24  and  C_25
REMARK   12  A    between atoms: C_24  and  C_26
REMARK   13  A    between atoms: C_24  and  C_27
REMARK                            x       y       z     vdW  Elec       q    Type
REMARK                         _______ _______ _______ _____ _____    ______ ____
ROOT
ATOM      1  C   UNL     1       5.149  -1.687  -8.934  0.00  0.00    -0.020 C 
ENDROOT
BRANCH   1   2
ATOM      2  C   UNL     1       5.637  -2.025 -10.319  0.00  0.00    -0.059 A 
ATOM      3  C   UNL     1       4.728  -2.288 -11.327  0.00  0.00    +0.002 A 
ATOM      4  C   UNL     1       5.175  -2.598 -12.598  0.00  0.00    +0.004 A 
ATOM      5  C   UNL     1       6.531  -2.645 -12.861  0.00  0.00    -0.042 A 
ATOM      6  C   UNL     1       7.440  -2.382 -11.854  0.00  0.00    +0.004 A 
ATOM      7  C   UNL     1       6.993  -2.068 -10.584  0.00  0.00    +0.002 A 
BRANCH   5   8
ATOM      8  C   UNL     1       7.018  -2.985 -14.246  0.00  0.00    -0.013 C 
ATOM      9  C   UNL     1       6.484  -1.953 -15.242  0.00  0.00    +0.015 C 
ATOM     10  C   UNL     1       8.548  -2.970 -14.267  0.00  0.00    +0.015 C 
ATOM     11  C   UNL     1       6.517  -4.377 -14.636  0.00  0.00    +0.015 C 
ENDBRANCH   5   8
ENDBRANCH   1   2
BRANCH   1  12
ATOM     12  N   UNL     1       3.972  -0.813  -9.029  0.00  0.00    +0.385 N 
ATOM     13  C   UNL     1       3.523  -0.411  -7.672  0.00  0.00    -0.078 C 
ATOM     14  C   UNL     1       2.708   0.881  -7.937  0.00  0.00    -0.020 C 
ATOM     15  C   UNL     1       3.511   1.570  -9.064  0.00  0.00    -0.020 C 
ATOM     16  C   UNL     1       4.324   0.443  -9.726  0.00  0.00    -0.078 C 
ATOM     17  H   UNL     1       3.226  -1.286  -9.518  0.00  0.00    -0.081 HD
ENDBRANCH   1  12
BRANCH   1  18
ATOM     18  C   UNL     1       4.771  -2.974  -8.198  0.00  0.00    +0.094 C 
BRANCH  18  21
ATOM     19  C   UNL     1       5.896  -4.930  -7.277  0.00  0.00    +0.248 C 
ATOM     20  O   UNL     1       4.830  -5.288  -6.814  0.00  0.00    -0.270 OA
ATOM     21  N   UNL     1       5.972  -3.786  -7.986  0.00  0.00    -0.312 N 
ATOM     22  H   UNL     1       6.823  -3.500  -8.355  0.00  0.00    +0.149 HD
BRANCH  19  26
ATOM     23  C   UNL     1       9.304  -7.233  -6.674  0.00  0.00    +0.190 A 
ATOM     24  N   UNL     1       9.400  -6.109  -7.375  0.00  0.00    -0.229 NA
ATOM     25  C   UNL     1       8.342  -5.351  -7.589  0.00  0.00    +0.129 A 
ATOM     26  C   UNL     1       7.105  -5.747  -7.064  0.00  0.00    +0.092 A 
ATOM     27  C   UNL     1       7.046  -6.941  -6.328  0.00  0.00    +0.146 A 
ATOM     28  N   UNL     1       8.151  -7.646  -6.164  0.00  0.00    -0.209 NA
ATOM     29 CL   UNL     1       5.543  -7.486  -5.651  0.00  0.00    -0.061 Cl
BRANCH  23  30
ATOM     30  S   UNL     1      10.750  -8.208  -6.419  0.00  0.00    -0.086 S 
BRANCH  30  31
ATOM     31  C   UNL     1      12.058  -7.283  -7.270  0.00  0.00    +0.077 C 
BRANCH  31  33
ATOM     32  C   UNL     1      14.490  -7.250  -7.843  0.00  0.00    +0.004 C 
ATOM     33  C   UNL     1      13.386  -8.029  -7.125  0.00  0.00    +0.008 C 
ENDBRANCH  31  33
ENDBRANCH  30  31
ENDBRANCH  23  30
ENDBRANCH  19  26
ENDBRANCH  18  21
ENDBRANCH   1  18
TORSDOF 9
