REMARK  Name = ZINC39302889
REMARK  7 active torsions:
REMARK  status: ('A' for Active; 'I' for Inactive)
REMARK    1  A    between atoms: C_1  and  C_2
REMARK    2  A    between atoms: C_2  and  C_3
REMARK    3  A    between atoms: C_3  and  C_4
REMARK    4  A    between atoms: C_16  and  C_18
REMARK    5  A    between atoms: N_22  and  C_23
REMARK    6  A    between atoms: N_29  and  C_30
REMARK    7  A    between atoms: C_30  and  C_31
REMARK                            x       y       z     vdW  Elec       q    Type
REMARK                         _______ _______ _______ _____ _____    ______ ____
ROOT
ATOM      1  C   UNL     1      -1.105  -5.994   2.710  0.00  0.00    +0.113 A 
ATOM      2  C   UNL     1      -2.107  -6.927   2.613  0.00  0.00    +0.079 A 
ATOM      3  S   UNL     1      -1.373  -8.297   3.497  0.00  0.00    -0.061 S 
ATOM      4  C   UNL     1       0.175  -7.503   3.903  0.00  0.00    +0.144 A 
ATOM      5  N   UNL     1       1.258  -8.006   4.606  0.00  0.00    -0.295 N 
ATOM      6  N   UNL     1       0.019  -6.316   3.354  0.00  0.00    -0.314 N 
ATOM      7  H   UNL     1       2.001  -7.425   4.833  0.00  0.00    +0.154 HD
ENDROOT
BRANCH   1  19
ATOM      8  C   UNL     1      -4.324  -2.845   1.173  0.00  0.00    +0.064 C 
ATOM      9  C   UNL     1      -2.783  -2.961   1.052  0.00  0.00    +0.134 C 
ATOM     10  N   UNL     1      -2.456  -4.292   1.595  0.00  0.00    -0.293 N 
ATOM     11  C   UNL     1      -3.645  -5.151   1.483  0.00  0.00    +0.123 C 
ATOM     12  C   UNL     1      -4.774  -4.292   0.888  0.00  0.00    +0.117 C 
ATOM     13  C   UNL     1      -6.075  -4.592   1.568  0.00  0.00    +0.227 C 
ATOM     14  O   UNL     1      -6.816  -5.421   1.085  0.00  0.00    -0.275 OA
ATOM     15  N   UNL     1      -6.441  -3.965   2.697  0.00  0.00    -0.240 N 
ATOM     16  C   UNL     1      -5.692  -2.976   3.209  0.00  0.00    +0.306 C 
ATOM     17  O   UNL     1      -5.968  -2.531   4.306  0.00  0.00    -0.252 OA
ATOM     18  N   UNL     1      -4.670  -2.458   2.536  0.00  0.00    -0.291 N 
ATOM     19  C   UNL     1      -1.266  -4.661   2.107  0.00  0.00    +0.264 C 
ATOM     20  O   UNL     1      -0.324  -3.892   2.072  0.00  0.00    -0.268 OA
ATOM     21  H   UNL     1      -7.258  -4.230   3.149  0.00  0.00    +0.159 HD
ATOM     22  H   UNL     1      -4.120  -1.796   2.985  0.00  0.00    +0.151 HD
BRANCH   8  23
ATOM     23  C   UNL     1      -4.899  -1.864   0.148  0.00  0.00    +0.028 C 
BRANCH  23  25
ATOM     24  C   UNL     1      -4.997   0.534  -0.548  0.00  0.00    +0.004 C 
ATOM     25  C   UNL     1      -4.422  -0.447   0.476  0.00  0.00    -0.001 C 
ENDBRANCH  23  25
ENDBRANCH   8  23
ENDBRANCH   1  19
BRANCH   5  26
ATOM     26  C   UNL     1       1.280  -9.350   4.989  0.00  0.00    +0.033 A 
ATOM     27  C   UNL     1       0.599 -10.299   4.237  0.00  0.00    +0.023 A 
ATOM     28  C   UNL     1       0.623 -11.626   4.617  0.00  0.00    +0.002 A 
ATOM     29  C   UNL     1       1.323 -12.011   5.745  0.00  0.00    +0.000 A 
ATOM     30  C   UNL     1       2.002 -11.069   6.497  0.00  0.00    +0.002 A 
ATOM     31  C   UNL     1       1.987  -9.741   6.119  0.00  0.00    +0.023 A 
ENDBRANCH   5  26
BRANCH   6  32
ATOM     32  C   UNL     1       1.096  -5.328   3.456  0.00  0.00    +0.159 C 
BRANCH  32  33
ATOM     33  C   UNL     1       0.909  -4.508   4.707  0.00  0.00    -0.028 A 
ATOM     34  C   UNL     1       0.067  -3.412   4.695  0.00  0.00    +0.005 A 
ATOM     35  C   UNL     1      -0.105  -2.660   5.842  0.00  0.00    +0.000 A 
ATOM     36  C   UNL     1       0.565  -3.005   7.001  0.00  0.00    +0.000 A 
ATOM     37  C   UNL     1       1.407  -4.102   7.013  0.00  0.00    +0.000 A 
ATOM     38  C   UNL     1       1.575  -4.856   5.867  0.00  0.00    +0.005 A 
ENDBRANCH  32  33
ENDBRANCH   6  32
TORSDOF 6
