REMARK  Name = ZINC09971612
REMARK  9 active torsions:
REMARK  status: ('A' for Active; 'I' for Inactive)
REMARK    1  A    between atoms: C_1  and  C_2
REMARK    2  A    between atoms: C_2  and  O_3
REMARK    3  A    between atoms: O_3  and  C_4
REMARK    4  A    between atoms: C_4  and  C_6
REMARK    5  A    between atoms: C_11  and  C_13
REMARK    6  A    between atoms: C_11  and  C_20
REMARK    7  A    between atoms: C_11  and  N_63
REMARK    8  A    between atoms: C_24  and  N_25
REMARK    9  A    between atoms: C_26  and  C_28
REMARK                            x       y       z     vdW  Elec       q    Type
REMARK                         _______ _______ _______ _____ _____    ______ ____
ROOT
ATOM      1  C   UNL     1      -3.921   3.095   0.253  0.00  0.00    -0.004 C 
ENDROOT
BRANCH   1   2
ATOM      2  C   UNL     1      -3.926   1.597   0.094  0.00  0.00    -0.025 A 
ATOM      3  C   UNL     1      -5.122   0.886   0.204  0.00  0.00    -0.033 A 
ATOM      4  C   UNL     1      -5.046  -0.463   0.049  0.00  0.00    -0.005 A 
ATOM      5  S   UNL     1      -3.325  -0.760  -0.258  0.00  0.00    -0.078 S 
ATOM      6  C   UNL     1      -2.766   0.934  -0.156  0.00  0.00    +0.074 A 
ATOM      7  C   UNL     1      -6.164  -1.452   0.118  0.00  0.00    +0.043 C 
ATOM      8  C   UNL     1      -7.380  -0.764   0.757  0.00  0.00    +0.005 C 
ATOM      9  C   UNL     1      -7.586   0.594   0.080  0.00  0.00    +0.005 C 
ATOM     10  C   UNL     1      -6.466   1.554   0.482  0.00  0.00    +0.036 C 
BRANCH   6  11
ATOM     11  N   UNL     1      -1.474   1.445  -0.303  0.00  0.00    -0.280 N 
ATOM     12  C   UNL     1      -0.465   0.631  -0.671  0.00  0.00    +0.214 C 
ATOM     13  O   UNL     1      -0.678  -0.545  -0.875  0.00  0.00    -0.276 OA
ATOM     14  C   UNL     1       0.928   1.183  -0.835  0.00  0.00    +0.109 C 
ATOM     15  H   UNL     1      -1.303   2.386  -0.139  0.00  0.00    +0.155 HD
ENDBRANCH   6  11
ENDBRANCH   1   2
BRANCH   1  21
ATOM     16  C   UNL     1      -1.384   4.650   3.323  0.00  0.00    +0.094 C 
ATOM     17  C   UNL     1      -1.436   5.349   1.962  0.00  0.00    -0.004 C 
ATOM     18  C   UNL     1      -2.726   4.955   1.240  0.00  0.00    -0.077 C 
ATOM     19  C   UNL     1      -2.763   2.806   2.359  0.00  0.00    -0.077 C 
ATOM     20  C   UNL     1      -1.474   3.136   3.114  0.00  0.00    -0.004 C 
ATOM     21  N   UNL     1      -2.740   3.489   1.048  0.00  0.00    +0.387 N 
ATOM     22  H   UNL     1      -1.890   3.211   0.543  0.00  0.00    -0.080 HD
BRANCH  16  23
ATOM     23  C   UNL     1      -0.088   4.989   4.014  0.00  0.00    +0.310 C 
ATOM     24  O   UNL     1       0.713   5.715   3.474  0.00  0.00    -0.251 OA
BRANCH  23  25
ATOM     25  O   UNL     1       0.176   4.484   5.230  0.00  0.00    -0.465 OA
BRANCH  25  27
ATOM     26  C   UNL     1       1.565   4.186   7.207  0.00  0.00    +0.048 C 
ATOM     27  C   UNL     1       1.443   4.852   5.835  0.00  0.00    +0.229 C 
ENDBRANCH  25  27
ENDBRANCH  23  25
ENDBRANCH  16  23
ENDBRANCH   1  21
BRANCH   1  28
ATOM     28  C   UNL     1      -3.833   3.744  -1.105  0.00  0.00    -0.054 A 
ATOM     29  C   UNL     1      -4.986   4.135  -1.760  0.00  0.00    +0.002 A 
ATOM     30  C   UNL     1      -4.907   4.730  -3.005  0.00  0.00    +0.003 A 
ATOM     31  C   UNL     1      -3.675   4.935  -3.596  0.00  0.00    +0.038 A 
ATOM     32  C   UNL     1      -2.519   4.543  -2.942  0.00  0.00    +0.124 A 
ATOM     33  C   UNL     1      -2.600   3.952  -1.692  0.00  0.00    +0.040 A 
ATOM     34  F   UNL     1      -1.314   4.743  -3.519  0.00  0.00    -0.205 F 
ENDBRANCH   1  28
TORSDOF 7
