REMARK  Name = ZINC11635029
REMARK  9 active torsions:
REMARK  status: ('A' for Active; 'I' for Inactive)
REMARK    1  A    between atoms: C_1  and  C_2
REMARK    2  A    between atoms: C_2  and  C_3
REMARK    3  A    between atoms: C_3  and  C_4
REMARK    4  A    between atoms: C_3  and  C_5
REMARK    5  A    between atoms: C_3  and  C_6
REMARK    6  A    between atoms: C_14  and  N_20
REMARK    7  A    between atoms: C_15  and  C_19
REMARK    8  A    between atoms: N_20  and  S_21
REMARK    9  A    between atoms: S_21  and  C_24
REMARK                            x       y       z     vdW  Elec       q    Type
REMARK                         _______ _______ _______ _____ _____    ______ ____
ROOT
ATOM      1  C   UNL     1      -2.899   4.668   6.499  0.00  0.00    -0.000 C 
ATOM      2  C   UNL     1      -1.802   4.029   7.355  0.00  0.00    +0.012 C 
ATOM      3  C   UNL     1      -0.471   4.071   6.596  0.00  0.00    +0.075 C 
ATOM      4  C   UNL     1      -0.692   3.514   5.208  0.00  0.00    +0.109 A 
ATOM      5  C   UNL     1      -1.905   3.378   4.647  0.00  0.00    +0.002 A 
ATOM      6  C   UNL     1      -1.693   2.810   3.318  0.00  0.00    +0.025 A 
ATOM      7  C   UNL     1      -2.530   2.440   2.264  0.00  0.00    +0.036 A 
ATOM      8  C   UNL     1      -1.981   1.923   1.105  0.00  0.00    +0.051 A 
ATOM      9  C   UNL     1      -0.601   1.762   0.995  0.00  0.00    -0.025 A 
ATOM     10  C   UNL     1       0.231   2.124   2.031  0.00  0.00    +0.052 A 
ATOM     11  C   UNL     1      -0.301   2.651   3.201  0.00  0.00    +0.136 A 
ATOM     12  O   UNL     1       0.252   3.085   4.354  0.00  0.00    -0.459 OA
ATOM     13  C   UNL     1      -0.014   1.192  -0.270  0.00  0.00    +0.046 C 
ATOM     14  C   UNL     1      -3.206   3.755   5.305  0.00  0.00    +0.043 C 
ENDROOT
BRANCH   1  15
ATOM     15  C   UNL     1      -4.163   4.850   7.341  0.00  0.00    -0.032 C 
ATOM     16  C   UNL     1      -5.261   5.483   6.484  0.00  0.00    +0.011 C 
ATOM     17  C   UNL     1      -4.637   3.487   7.851  0.00  0.00    +0.011 C 
BRANCH  15  19
ATOM     18  C   UNL     1      -5.120   5.943   9.374  0.00  0.00    +0.004 C 
ATOM     19  C   UNL     1      -3.856   5.761   8.532  0.00  0.00    +0.003 C 
ENDBRANCH  15  19
ENDBRANCH   1  15
BRANCH   8  20
ATOM     20  N   UNL     1      -2.814   1.555   0.042  0.00  0.00    -0.221 N 
ATOM     21  H   UNL     1      -2.591   0.786  -0.505  0.00  0.00    +0.173 HD
BRANCH  20  22
ATOM     22  S   UNL     1      -4.180   2.434  -0.282  0.00  0.00    +0.040 S 
ATOM     23  O   UNL     1      -4.719   1.845  -1.457  0.00  0.00    -0.155 OA
ATOM     24  O   UNL     1      -4.913   2.425   0.935  0.00  0.00    -0.155 OA
ATOM     25  C   UNL     1      -3.583   4.109  -0.639  0.00  0.00    +0.218 C 
ENDBRANCH  20  22
ENDBRANCH   8  20
TORSDOF 4
