REMARK  Name = ZINC04755084
REMARK  7 active torsions:
REMARK  status: ('A' for Active; 'I' for Inactive)
REMARK    1  A    between atoms: C_1  and  C_2
REMARK    2  A    between atoms: C_2  and  O_3
REMARK    3  A    between atoms: O_3  and  C_4
REMARK    4  A    between atoms: C_8  and  C_11
REMARK    5  A    between atoms: C_9  and  O_10
REMARK    6  A    between atoms: C_12  and  C_13
REMARK    7  A    between atoms: C_20  and  O_23
REMARK                            x       y       z     vdW  Elec       q    Type
REMARK                         _______ _______ _______ _____ _____    ______ ____
ROOT
ATOM      1  C   UNL     1       5.885   3.612  -0.032  0.00  0.00    +0.014 C 
ATOM      2  C   UNL     1       5.941   2.269  -0.040  0.00  0.00    +0.028 C 
ENDROOT
BRANCH   2   3
ATOM      3  C   UNL     1       4.699   1.480  -0.033  0.00  0.00    +0.065 A 
ATOM      4  C   UNL     1       4.774   0.075  -0.042  0.00  0.00    +0.028 A 
ATOM      5  C   UNL     1       3.631  -0.665  -0.036  0.00  0.00    +0.012 A 
ATOM      6  C   UNL     1       2.395   0.014  -0.021  0.00  0.00    +0.004 A 
ATOM      7  C   UNL     1       1.180  -0.689  -0.013  0.00  0.00    +0.010 A 
ATOM      8  C   UNL     1       0.002  -0.004   0.002  0.00  0.00    +0.004 A 
ATOM      9  C   UNL     1      -0.017   1.388   0.010  0.00  0.00    +0.047 A 
ATOM     10  C   UNL     1       1.145   2.107   0.002  0.00  0.00    +0.143 A 
ATOM     11  C   UNL     1       2.384   1.431  -0.013  0.00  0.00    +0.113 A 
ATOM     12  N   UNL     1       3.534   2.108  -0.019  0.00  0.00    -0.244 NA
BRANCH  10  13
ATOM     13  O   UNL     1       1.107   3.465   0.010  0.00  0.00    -0.505 OA
ATOM     14  H   UNL     1       1.105   3.853   0.896  0.00  0.00    +0.292 HD
ENDBRANCH  10  13
ENDBRANCH   2   3
BRANCH   1  19
ATOM     15  C   UNL     1       8.253   6.535  -0.037  0.00  0.00    +0.163 A 
ATOM     16  C   UNL     1       9.476   5.883  -0.051  0.00  0.00    +0.064 A 
ATOM     17  C   UNL     1       9.531   4.500  -0.059  0.00  0.00    +0.022 A 
ATOM     18  C   UNL     1       8.369   3.756  -0.047  0.00  0.00    +0.027 A 
ATOM     19  C   UNL     1       7.128   4.401  -0.039  0.00  0.00    +0.021 A 
ATOM     20  C   UNL     1       7.074   5.801  -0.031  0.00  0.00    +0.166 A 
ATOM     21 BR   UNL     1      11.207   3.624  -0.078  0.00  0.00    -0.050 Br
BRANCH  20  22
ATOM     22  O   UNL     1       5.873   6.437  -0.016  0.00  0.00    -0.503 OA
ATOM     23  H   UNL     1       5.534   6.617   0.871  0.00  0.00    +0.292 HD
ENDBRANCH  20  22
BRANCH  15  24
ATOM     24  O   UNL     1       8.207   7.895  -0.030  0.00  0.00    -0.489 OA
BRANCH  24  26
ATOM     25  C   UNL     1       9.207  10.095  -0.027  0.00  0.00    +0.048 C 
ATOM     26  C   UNL     1       9.458   8.586  -0.037  0.00  0.00    +0.226 C 
ENDBRANCH  24  26
ENDBRANCH  15  24
ENDBRANCH   1  19
TORSDOF 6
