REMARK  Name = ZINC62038567
REMARK  6 active torsions:
REMARK  status: ('A' for Active; 'I' for Inactive)
REMARK    1  A    between atoms: C_1  and  C_2
REMARK    2  A    between atoms: C_2  and  C_4
REMARK    3  A    between atoms: C_2  and  S_15
REMARK    4  A    between atoms: N_6  and  C_7
REMARK    5  A    between atoms: C_12  and  O_13
REMARK    6  A    between atoms: S_15  and  C_16
REMARK                            x       y       z     vdW  Elec       q    Type
REMARK                         _______ _______ _______ _____ _____    ______ ____
ROOT
ATOM      1  C   UNL     1       0.000   1.507   0.011  0.00  0.00    +0.029 C 
ATOM      2  C   UNL     1       0.008  -0.023   0.004  0.00  0.00    +0.137 C 
ENDROOT
BRANCH   2   3
ATOM      3  C   UNL     1      -1.410  -0.533   0.014  0.00  0.00    +0.230 C 
ATOM      4  O   UNL     1      -1.927  -0.905  -1.018  0.00  0.00    -0.274 OA
ATOM      5  N   UNL     1      -2.103  -0.575   1.169  0.00  0.00    -0.282 N 
ATOM      6  H   UNL     1      -1.670  -0.339   2.003  0.00  0.00    +0.155 HD
BRANCH   5   7
ATOM      7  C   UNL     1      -3.450  -0.960   1.163  0.00  0.00    +0.077 A 
ATOM      8  C   UNL     1      -3.894  -1.923   0.269  0.00  0.00    +0.047 A 
ATOM      9  C   UNL     1      -5.224  -2.302   0.266  0.00  0.00    +0.043 A 
ATOM     10  C   UNL     1      -6.114  -1.723   1.153  0.00  0.00    +0.023 A 
ATOM     11  C   UNL     1      -5.678  -0.762   2.047  0.00  0.00    +0.049 A 
ATOM     12  C   UNL     1      -4.346  -0.382   2.060  0.00  0.00    +0.138 A 
ATOM     13 CL   UNL     1      -5.779  -3.508  -0.854  0.00  0.00    -0.083 Cl
BRANCH  12  14
ATOM     14  O   UNL     1      -3.914   0.559   2.942  0.00  0.00    -0.505 OA
ATOM     15  H   UNL     1      -3.968   1.465   2.609  0.00  0.00    +0.292 HD
ENDBRANCH  12  14
ENDBRANCH   5   7
ENDBRANCH   2   3
BRANCH   2  16
ATOM     16  S   UNL     1       0.855  -0.616  -1.486  0.00  0.00    -0.075 S 
BRANCH  16  17
ATOM     17  C   UNL     1       2.517  -0.069  -1.279  0.00  0.00    +0.171 A 
ATOM     18  N   UNL     1       2.842   0.603  -0.195  0.00  0.00    -0.185 NA
ATOM     19  C   UNL     1       4.083   1.048   0.026  0.00  0.00    +0.282 A 
ATOM     20  O   UNL     1       4.346   1.667   1.045  0.00  0.00    -0.265 OA
ATOM     21  C   UNL     1       5.137   0.779  -0.981  0.00  0.00    +0.075 A 
ATOM     22  C   UNL     1       6.554   1.171  -0.945  0.00  0.00    -0.023 A 
ATOM     23  C   UNL     1       7.312   0.804  -1.992  0.00  0.00    -0.004 A 
ATOM     24  S   UNL     1       6.203  -0.073  -3.071  0.00  0.00    -0.075 S 
ATOM     25  C   UNL     1       4.726   0.065  -2.103  0.00  0.00    +0.092 A 
ATOM     26  N   UNL     1       3.437  -0.355  -2.243  0.00  0.00    -0.328 N 
ATOM     27  C   UNL     1       8.738   1.261  -1.850  0.00  0.00    +0.043 C 
ATOM     28  C   UNL     1       8.690   2.350  -0.756  0.00  0.00    +0.010 C 
ATOM     29  C   UNL     1       7.440   1.933   0.045  0.00  0.00    +0.037 C 
ATOM     30  H   UNL     1       3.174  -0.856  -3.031  0.00  0.00    +0.168 HD
ENDBRANCH  16  17
ENDBRANCH   2  16
TORSDOF 5
