REMARK  Name = ZINC59966327
REMARK  7 active torsions:
REMARK  status: ('A' for Active; 'I' for Inactive)
REMARK    1  A    between atoms: C_1  and  C_2
REMARK    2  A    between atoms: C_2  and  C_3
REMARK    3  A    between atoms: C_2  and  N_4
REMARK    4  A    between atoms: C_13  and  C_15
REMARK    5  A    between atoms: N_17  and  N_18
REMARK    6  A    between atoms: C_19  and  C_21
REMARK    7  A    between atoms: C_21  and  N_22
REMARK                            x       y       z     vdW  Elec       q    Type
REMARK                         _______ _______ _______ _____ _____    ______ ____
ROOT
ATOM      1  C   UNL     1      -4.169  -0.161   2.294  0.00  0.00    +0.281 C 
ATOM      2  O   UNL     1      -5.324  -0.524   2.406  0.00  0.00    -0.267 OA
ATOM      3  N   UNL     1      -3.614   0.624   3.240  0.00  0.00    -0.229 N 
ATOM      4  H   UNL     1      -2.693   0.913   3.151  0.00  0.00    +0.173 HD
ENDROOT
BRANCH   1  14
ATOM      5  N   UNL     1      -1.372  -0.511   0.012  0.00  0.00    -0.226 N 
ATOM      6  C   UNL     1      -1.774  -1.288  -1.014  0.00  0.00    +0.275 A 
ATOM      7  O   UNL     1      -1.012  -1.560  -1.924  0.00  0.00    -0.266 OA
ATOM      8  C   UNL     1      -3.151  -1.800  -1.009  0.00  0.00    +0.050 A 
ATOM      9  C   UNL     1      -3.662  -2.607  -2.020  0.00  0.00    +0.014 A 
ATOM     10  C   UNL     1      -4.967  -3.046  -1.940  0.00  0.00    +0.001 A 
ATOM     11  C   UNL     1      -5.771  -2.689  -0.866  0.00  0.00    +0.001 A 
ATOM     12  C   UNL     1      -5.284  -1.889   0.146  0.00  0.00    +0.011 A 
ATOM     13  C   UNL     1      -3.970  -1.437   0.086  0.00  0.00    +0.020 A 
ATOM     14  C   UNL     1      -3.373  -0.580   1.123  0.00  0.00    +0.155 A 
ATOM     15  N   UNL     1      -2.126  -0.197   0.997  0.00  0.00    -0.163 NA
BRANCH   5  17
ATOM     16  C   UNL     1      -0.019   1.526   0.010  0.00  0.00    +0.032 C 
ATOM     17  C   UNL     1       0.002  -0.004   0.002  0.00  0.00    +0.105 C 
ATOM     18  C   UNL     1       0.742  -0.511   1.242  0.00  0.00    +0.032 C 
ENDBRANCH   5  17
ENDBRANCH   1  14
BRANCH   3  19
ATOM     19  N   UNL     1      -4.369   1.021   4.351  0.00  0.00    -0.233 N 
ATOM     20  C   UNL     1      -3.815   1.806   5.296  0.00  0.00    +0.249 C 
ATOM     21  O   UNL     1      -2.663   2.168   5.185  0.00  0.00    -0.272 OA
ATOM     22  H   UNL     1      -5.291   0.732   4.440  0.00  0.00    +0.173 HD
BRANCH  20  23
ATOM     23  C   UNL     1      -4.627   2.234   6.492  0.00  0.00    +0.219 C 
BRANCH  23  24
ATOM     24  N   UNL     1      -3.804   3.074   7.365  0.00  0.00    -0.338 N 
ATOM     25  C   UNL     1      -3.094   2.627   8.447  0.00  0.00    +0.087 A 
ATOM     26  C   UNL     1      -2.451   3.651   9.027  0.00  0.00    +0.027 A 
ATOM     27  C   UNL     1      -2.774   4.854   8.255  0.00  0.00    -0.000 A 
ATOM     28  C   UNL     1      -3.625   4.431   7.217  0.00  0.00    +0.051 A 
ATOM     29  C   UNL     1      -4.100   5.366   6.303  0.00  0.00    +0.046 A 
ATOM     30  C   UNL     1      -3.732   6.689   6.422  0.00  0.00    +0.043 A 
ATOM     31  C   UNL     1      -2.889   7.100   7.447  0.00  0.00    +0.021 A 
ATOM     32  C   UNL     1      -2.417   6.199   8.360  0.00  0.00    +0.011 A 
ATOM     33 CL   UNL     1      -4.327   7.853   5.280  0.00  0.00    -0.083 Cl
ENDBRANCH  23  24
ENDBRANCH  20  23
ENDBRANCH   3  19
TORSDOF 5
