REMARK  Name = ZINC00841023
REMARK  6 active torsions:
REMARK  status: ('A' for Active; 'I' for Inactive)
REMARK    1  A    between atoms: C_2  and  C_3
REMARK    2  A    between atoms: C_3  and  C_4
REMARK    3  A    between atoms: C_13  and  C_15
REMARK    4  A    between atoms: N_17  and  N_18
REMARK    5  A    between atoms: C_19  and  C_21
REMARK    6  A    between atoms: C_25  and  N_27
REMARK                            x       y       z     vdW  Elec       q    Type
REMARK                         _______ _______ _______ _____ _____    ______ ____
ROOT
ATOM      1  C   UNL     1      -8.535   1.773   0.054  0.00  0.00    +0.267 C 
ATOM      2  O   UNL     1      -8.547   2.989   0.061  0.00  0.00    -0.268 OA
ATOM      3  N   UNL     1      -7.361   1.110   0.045  0.00  0.00    -0.230 N 
ATOM      4  H   UNL     1      -7.352   0.140   0.040  0.00  0.00    +0.173 HD
ENDROOT
BRANCH   1  14
ATOM      5  C   UNL     1     -13.461  -0.994   0.066  0.00  0.00    -0.001 A 
ATOM      6  C   UNL     1     -13.474  -2.373   0.058  0.00  0.00    +0.007 A 
ATOM      7  C   UNL     1     -12.287  -3.091   0.047  0.00  0.00    +0.001 A 
ATOM      8  C   UNL     1     -11.085  -2.443   0.045  0.00  0.00    +0.011 A 
ATOM      9  C   UNL     1     -11.048  -1.041   0.053  0.00  0.00    +0.019 A 
ATOM     10  C   UNL     1     -12.250  -0.310   0.063  0.00  0.00    +0.143 A 
ATOM     11  O   UNL     1     -12.240   1.040   0.070  0.00  0.00    -0.421 OA
ATOM     12  C   UNL     1     -11.088   1.732   0.073  0.00  0.00    +0.350 A 
ATOM     13  O   UNL     1     -11.111   2.948   0.085  0.00  0.00    -0.244 OA
ATOM     14  C   UNL     1      -9.803   1.024   0.057  0.00  0.00    +0.123 A 
ATOM     15  C   UNL     1      -9.804  -0.360   0.049  0.00  0.00    +0.031 A 
BRANCH   5  16
ATOM     16  C   UNL     1     -14.758  -0.228   0.076  0.00  0.00    +0.065 C 
BRANCH  16  18
ATOM     17  C   UNL     1     -16.307  -0.200  -1.811  0.00  0.00    +0.004 C 
ATOM     18  C   UNL     1     -15.135   0.142  -1.335  0.00  0.00    -0.030 C 
ENDBRANCH  16  18
ENDBRANCH   5  16
ENDBRANCH   1  14
BRANCH   3  19
ATOM     19  N   UNL     1      -6.155   1.822   0.043  0.00  0.00    -0.230 N 
ATOM     20  C   UNL     1      -4.981   1.160   0.033  0.00  0.00    +0.260 C 
ATOM     21  O   UNL     1      -4.969  -0.055   0.026  0.00  0.00    -0.269 OA
ATOM     22  H   UNL     1      -6.164   2.792   0.048  0.00  0.00    +0.173 HD
BRANCH  20  23
ATOM     23  C   UNL     1      -3.708   1.912   0.030  0.00  0.00    +0.040 A 
ATOM     24  C   UNL     1      -3.718   3.308   0.039  0.00  0.00    +0.013 A 
ATOM     25  C   UNL     1      -2.527   4.003   0.037  0.00  0.00    +0.003 A 
ATOM     26  C   UNL     1      -1.323   3.320   0.032  0.00  0.00    +0.033 A 
ATOM     27  C   UNL     1      -1.306   1.936   0.019  0.00  0.00    +0.127 A 
ATOM     28  C   UNL     1      -2.491   1.229   0.021  0.00  0.00    +0.045 A 
BRANCH  27  29
ATOM     29  N   UNL     1      -0.014   1.214   0.009  0.00  0.00    +0.056 N 
ATOM     30  O   UNL     1       0.002  -0.004   0.002  0.00  0.00    -0.126 OA
ATOM     31  O   UNL     1       1.032   1.837   0.002  0.00  0.00    -0.126 OA
ENDBRANCH  27  29
ENDBRANCH  20  23
ENDBRANCH   3  19
TORSDOF 6
