REMARK  Name = ZINC01778580
REMARK  10 active torsions:
REMARK  status: ('A' for Active; 'I' for Inactive)
REMARK    1  A    between atoms: C_1  and  C_2
REMARK    2  A    between atoms: C_2  and  O_3
REMARK    3  A    between atoms: O_3  and  C_4
REMARK    4  A    between atoms: C_4  and  C_6
REMARK    5  A    between atoms: C_7  and  N_17
REMARK    6  A    between atoms: C_12  and  C_16
REMARK    7  A    between atoms: C_18  and  C_20
REMARK    8  A    between atoms: C_20  and  S_21
REMARK    9  A    between atoms: S_21  and  C_22
REMARK   10  A    between atoms: C_32  and  C_36
REMARK                            x       y       z     vdW  Elec       q    Type
REMARK                         _______ _______ _______ _____ _____    ______ ____
ROOT
ATOM      1  N   UNL     1       0.027   0.915  -0.157  0.00  0.00    -0.283 N 
ATOM      2  C   UNL     1      -0.867   0.905   0.852  0.00  0.00    +0.227 C 
ATOM      3  O   UNL     1      -0.706   1.628   1.812  0.00  0.00    -0.275 OA
ATOM      4  H   UNL     1      -0.139   0.392  -0.957  0.00  0.00    +0.155 HD
ENDROOT
BRANCH   1   6
ATOM      5  C   UNL     1       2.378   1.124   0.403  0.00  0.00    +0.118 A 
ATOM      6  C   UNL     1       1.188   1.681  -0.052  0.00  0.00    +0.058 A 
ATOM      7  C   UNL     1       1.194   3.028  -0.405  0.00  0.00    -0.015 A 
ATOM      8  C   UNL     1       2.376   3.695  -0.263  0.00  0.00    -0.004 A 
ATOM      9  S   UNL     1       3.487   2.520   0.330  0.00  0.00    -0.085 S 
ATOM     10  C   UNL     1       2.639   5.138  -0.567  0.00  0.00    +0.046 C 
ATOM     11  C   UNL     1       1.291   5.859  -0.704  0.00  0.00    -0.009 C 
ATOM     12  C   UNL     1       0.384   5.035  -1.623  0.00  0.00    +0.008 C 
ATOM     13  C   UNL     1      -0.050   3.752  -0.913  0.00  0.00    +0.038 C 
ATOM     14  C   UNL     1       1.510   7.248  -1.307  0.00  0.00    +0.008 C 
BRANCH   5  15
ATOM     15  C   UNL     1       2.642  -0.204   0.815  0.00  0.00    +0.348 C 
ATOM     16  O   UNL     1       1.755  -1.037   0.785  0.00  0.00    -0.244 OA
BRANCH  15  17
ATOM     17  O   UNL     1       3.875  -0.546   1.242  0.00  0.00    -0.461 OA
BRANCH  17  19
ATOM     18  C   UNL     1       5.519  -2.100   2.093  0.00  0.00    +0.048 C 
ATOM     19  C   UNL     1       4.070  -1.903   1.644  0.00  0.00    +0.229 C 
ENDBRANCH  17  19
ENDBRANCH  15  17
ENDBRANCH   5  15
ENDBRANCH   1   6
BRANCH   2  20
ATOM     20  C   UNL     1      -2.067  -0.004   0.786  0.00  0.00    +0.171 C 
BRANCH  20  21
ATOM     21  S   UNL     1      -3.070   0.212   2.277  0.00  0.00    -0.096 S 
BRANCH  21  22
ATOM     22  C   UNL     1      -4.365  -0.935   1.944  0.00  0.00    +0.109 A 
ATOM     23  C   UNL     1      -5.424  -1.120   2.877  0.00  0.00    +0.043 A 
ATOM     24  C   UNL     1      -5.636  -0.455   4.164  0.00  0.00    -0.025 A 
ATOM     25  C   UNL     1      -6.735  -0.809   4.861  0.00  0.00    -0.004 A 
ATOM     26  S   UNL     1      -7.547  -2.026   3.858  0.00  0.00    -0.073 S 
ATOM     27  C   UNL     1      -6.405  -2.058   2.501  0.00  0.00    +0.113 A 
ATOM     28  N   UNL     1      -6.327  -2.719   1.363  0.00  0.00    -0.228 NA
ATOM     29  C   UNL     1      -5.317  -2.510   0.539  0.00  0.00    +0.223 A 
ATOM     30  N   UNL     1      -4.364  -1.642   0.824  0.00  0.00    -0.229 NA
ATOM     31  C   UNL     1      -7.172  -0.285   6.195  0.00  0.00    +0.046 C 
ATOM     32  C   UNL     1      -6.379   0.995   6.496  0.00  0.00    -0.009 C 
ATOM     33  C   UNL     1      -4.896   0.730   6.218  0.00  0.00    +0.008 C 
ATOM     34  C   UNL     1      -4.668   0.589   4.713  0.00  0.00    +0.037 C 
ATOM     35  C   UNL     1      -6.564   1.379   7.965  0.00  0.00    +0.008 C 
ENDBRANCH  21  22
ENDBRANCH  20  21
ENDBRANCH   2  20
TORSDOF 7
