REMARK  Name = ZINC46012412
REMARK  10 active torsions:
REMARK  status: ('A' for Active; 'I' for Inactive)
REMARK    1  A    between atoms: C_1  and  C_2
REMARK    2  A    between atoms: C_2  and  C_3
REMARK    3  A    between atoms: C_6  and  C_10
REMARK    4  A    between atoms: C_7  and  C_9
REMARK    5  A    between atoms: C_10  and  N_11
REMARK    6  A    between atoms: N_11  and  C_12
REMARK    7  A    between atoms: N_11  and  C_19
REMARK    8  A    between atoms: C_12  and  C_13
REMARK    9  A    between atoms: C_19  and  C_20
REMARK   10  A    between atoms: N_23  and  C_26
REMARK                            x       y       z     vdW  Elec       q    Type
REMARK                         _______ _______ _______ _____ _____    ______ ____
ROOT
ATOM      1  N   UNL     1       1.000  -0.230   5.398  0.00  0.00    -0.294 NA
ENDROOT
BRANCH   1   2
ATOM      2  C   UNL     1       2.182   0.065   4.577  0.00  0.00    +0.139 C 
BRANCH   2   6
ATOM      3  C   UNL     1       1.234   0.861   1.180  0.00  0.00    +0.084 A 
ATOM      4  N   UNL     1       1.639   0.025   2.097  0.00  0.00    -0.346 N 
ATOM      5  H   UNL     1       0.785   2.887   1.293  0.00  0.00    +0.167 HD
ATOM      6  C   UNL     1       1.745   0.671   3.268  0.00  0.00    +0.050 A 
ATOM      7  C   UNL     1       1.393   1.955   3.069  0.00  0.00    +0.035 A 
ATOM      8  N   UNL     1       1.074   2.078   1.743  0.00  0.00    -0.347 N 
ATOM      9  C   UNL     1       1.361   3.049   4.105  0.00  0.00    +0.065 C 
ATOM     10  H   UNL     1       1.832  -0.915   1.954  0.00  0.00    +0.167 HD
BRANCH   3  12
ATOM     11  C   UNL     1      -0.461   0.082  -0.454  0.00  0.00    +0.012 C 
ATOM     12  C   UNL     1       0.992   0.525  -0.269  0.00  0.00    +0.069 C 
ENDBRANCH   3  12
ENDBRANCH   2   6
ENDBRANCH   1   2
BRANCH   1  13
ATOM     13  C   UNL     1       0.180  -1.282   4.782  0.00  0.00    +0.116 C 
BRANCH  13  14
ATOM     14  C   UNL     1      -1.229  -1.243   5.377  0.00  0.00    +0.132 C 
ATOM     15  C   UNL     1      -2.134  -2.294   4.686  0.00  0.00    +0.035 C 
ATOM     16  C   UNL     1      -3.196  -2.541   5.791  0.00  0.00    +0.031 C 
ATOM     17  C   UNL     1      -2.366  -2.391   7.084  0.00  0.00    +0.160 C 
ATOM     18  O   UNL     1      -1.197  -1.626   6.761  0.00  0.00    -0.375 OA
ENDBRANCH  13  14
ENDBRANCH   1  13
BRANCH   1  19
ATOM     19  C   UNL     1       1.389  -0.598   6.766  0.00  0.00    +0.088 C 
BRANCH  19  20
ATOM     20  C   UNL     1       1.822   0.656   7.528  0.00  0.00    -0.000 C 
ATOM     21  C   UNL     1       0.621   1.589   7.705  0.00  0.00    -0.014 C 
ATOM     22  C   UNL     1       1.042   2.802   8.536  0.00  0.00    -0.078 C 
ATOM     23  N   UNL     1       1.516   2.358   9.852  0.00  0.00    +0.382 N 
ATOM     24  C   UNL     1       2.712   1.521   9.694  0.00  0.00    -0.078 C 
ATOM     25  C   UNL     1       2.354   0.258   8.908  0.00  0.00    -0.014 C 
ATOM     26  H   UNL     1       0.791   1.824  10.307  0.00  0.00    -0.081 HD
BRANCH  23  27
ATOM     27  C   UNL     1       1.846   3.530  10.674  0.00  0.00    -0.060 C 
ATOM     28  C   UNL     1       0.589   4.385  10.940  0.00  0.00    +0.020 C 
ATOM     29  C   UNL     1       0.024   3.863  12.243  0.00  0.00    -0.046 A 
ATOM     30  C   UNL     1      -1.233   4.021  12.803  0.00  0.00    +0.004 A 
ATOM     31  C   UNL     1      -1.528   3.444  14.023  0.00  0.00    +0.000 A 
ATOM     32  C   UNL     1      -0.565   2.707  14.688  0.00  0.00    +0.000 A 
ATOM     33  C   UNL     1       0.689   2.549  14.131  0.00  0.00    +0.004 A 
ATOM     34  C   UNL     1       0.986   3.127  12.908  0.00  0.00    -0.046 A 
ATOM     35  C   UNL     1       2.264   3.103  12.097  0.00  0.00    +0.020 C 
ENDBRANCH  23  27
ENDBRANCH  19  20
ENDBRANCH   1  19
TORSDOF 8
