REMARK  Name = ZINC39674765
REMARK  10 active torsions:
REMARK  status: ('A' for Active; 'I' for Inactive)
REMARK    1  A    between atoms: C_1  and  C_2
REMARK    2  A    between atoms: C_4  and  C_14
REMARK    3  A    between atoms: C_7  and  C_12
REMARK    4  A    between atoms: C_14  and  C_15
REMARK    5  A    between atoms: C_15  and  N_16
REMARK    6  A    between atoms: C_17  and  C_19
REMARK    7  A    between atoms: C_30  and  C_32
REMARK    8  A    between atoms: C_32  and  C_33
REMARK    9  A    between atoms: C_33  and  S_34
REMARK   10  A    between atoms: S_34  and  C_35
REMARK                            x       y       z     vdW  Elec       q    Type
REMARK                         _______ _______ _______ _____ _____    ______ ____
ROOT
ATOM      1  N   UNL     1       2.466  -0.325  -5.293  0.00  0.00    -0.315 N 
ATOM      2  C   UNL     1       1.751  -1.248  -5.966  0.00  0.00    +0.218 C 
ATOM      3  O   UNL     1       1.411  -2.273  -5.414  0.00  0.00    -0.275 OA
ATOM      4  H   UNL     1       2.739   0.494  -5.735  0.00  0.00    +0.149 HD
ENDROOT
BRANCH   2   5
ATOM      5  C   UNL     1       1.375  -1.007  -7.406  0.00  0.00    +0.100 C 
ATOM      6  C   UNL     1       0.059  -1.740  -7.748  0.00  0.00    +0.121 C 
ATOM      7  N   UNL     1       0.251  -2.228  -9.134  0.00  0.00    -0.300 N 
ATOM      8  C   UNL     1       1.663  -2.675  -9.175  0.00  0.00    +0.115 C 
ATOM      9  C   UNL     1       2.426  -1.624  -8.344  0.00  0.00    -0.004 C 
ATOM     10  C   UNL     1       3.012  -0.553  -9.258  0.00  0.00    -0.010 C 
ATOM     11  C   UNL     1       4.094  -1.179 -10.142  0.00  0.00    -0.082 C 
ATOM     12  N   UNL     1       5.145  -1.757  -9.296  0.00  0.00    +0.379 N 
ATOM     13  C   UNL     1       4.592  -2.850  -8.487  0.00  0.00    -0.082 C 
ATOM     14  C   UNL     1       3.531  -2.294  -7.533  0.00  0.00    -0.010 C 
ATOM     15  C   UNL     1      -0.654  -2.257 -10.132  0.00  0.00    +0.216 C 
ATOM     16  O   UNL     1      -0.342  -2.690 -11.221  0.00  0.00    -0.276 OA
ATOM     17  H   UNL     1       5.886  -2.115  -9.881  0.00  0.00    -0.086 HD
ATOM     18  H   UNL     1       5.516  -1.043  -8.688  0.00  0.00    -0.086 HD
BRANCH  15  19
ATOM     19  C   UNL     1      -2.054  -1.752  -9.895  0.00  0.00    +0.106 C 
BRANCH  19  20
ATOM     20  C   UNL     1      -2.873  -1.897 -11.179  0.00  0.00    +0.078 C 
BRANCH  20  21
ATOM     21  S   UNL     1      -4.558  -1.289 -10.893  0.00  0.00    -0.164 S 
ATOM     22  C   UNL     1      -5.387  -1.527 -12.489  0.00  0.00    +0.084 C 
ENDBRANCH  20  21
ENDBRANCH  19  20
ENDBRANCH  15  19
ENDBRANCH   2   5
BRANCH   1  23
ATOM     23  C   UNL     1       2.832  -0.559  -3.894  0.00  0.00    +0.108 C 
BRANCH  23  24
ATOM     24  C   UNL     1       3.635   0.633  -3.370  0.00  0.00    +0.052 C 
BRANCH  24  27
ATOM     25  C   UNL     1       6.201   1.542  -1.612  0.00  0.00    +0.035 C 
ATOM     26  C   UNL     1       4.804   1.313  -1.032  0.00  0.00    +0.103 C 
ATOM     27  C   UNL     1       4.011   0.392  -1.931  0.00  0.00    -0.037 C 
ATOM     28  C   UNL     1       3.707  -0.696  -1.179  0.00  0.00    +0.000 A 
ATOM     29  C   UNL     1       2.986  -1.882  -1.477  0.00  0.00    +0.028 A 
ATOM     30  C   UNL     1       2.818  -2.849  -0.513  0.00  0.00    +0.052 A 
ATOM     31  C   UNL     1       3.371  -2.686   0.827  0.00  0.00    +0.021 A 
ATOM     32  C   UNL     1       4.065  -1.581   1.167  0.00  0.00    +0.027 A 
ATOM     33  C   UNL     1       4.272  -0.518   0.177  0.00  0.00    +0.043 A 
ATOM     34  N   UNL     1       4.899   0.631   0.263  0.00  0.00    -0.378 N 
ATOM     35  H   UNL     1       5.351   0.973   1.050  0.00  0.00    +0.160 HD
BRANCH  30  36
ATOM     36  C   UNL     1       2.087  -4.039  -0.832  0.00  0.00    +0.099 C 
ATOM     37  N   UNL     1       1.508  -4.982  -1.084  0.00  0.00    -0.191 NA
ENDBRANCH  30  36
ENDBRANCH  24  27
ENDBRANCH  23  24
ENDBRANCH   1  23
TORSDOF 8
