REMARK  Name = ZINC20694819
REMARK  4 active torsions:
REMARK  status: ('A' for Active; 'I' for Inactive)
REMARK    1  A    between atoms: C_3  and  C_8
REMARK    2  A    between atoms: C_19  and  S_24
REMARK    3  A    between atoms: S_24  and  N_27
REMARK    4  A    between atoms: N_27  and  C_28
REMARK                            x       y       z     vdW  Elec       q    Type
REMARK                         _______ _______ _______ _____ _____    ______ ____
ROOT
ATOM      1  C   UNL     1       1.268   1.710  -0.001  0.00  0.00    +0.105 C 
ATOM      2  C   UNL     1       1.453   2.904  -0.919  0.00  0.00    +0.029 C 
ATOM      3  C   UNL     1       2.833   3.574  -0.925  0.00  0.00    +0.033 C 
ATOM      4  C   UNL     1       2.473   5.019  -1.275  0.00  0.00    -0.030 C 
ATOM      5  C   UNL     1       1.226   5.280  -0.901  0.00  0.00    -0.023 C 
ATOM      6  C   UNL     1       0.664   4.069  -0.250  0.00  0.00    +0.049 C 
ATOM      7  C   UNL     1      -0.776   3.741  -0.315  0.00  0.00    -0.018 A 
ATOM      8  C   UNL     1      -1.748   4.704  -0.482  0.00  0.00    +0.034 A 
ATOM      9  C   UNL     1      -3.083   4.348  -0.519  0.00  0.00    +0.106 A 
ATOM     10  C   UNL     1      -3.449   3.021  -0.388  0.00  0.00    +0.030 A 
ATOM     11  C   UNL     1      -2.484   2.048  -0.230  0.00  0.00    +0.025 A 
ATOM     12  C   UNL     1      -1.138   2.393  -0.203  0.00  0.00    +0.031 A 
ATOM     13  N   UNL     1      -0.175   1.388  -0.052  0.00  0.00    -0.336 N 
ATOM     14  H   UNL     1      -0.509   0.343   0.030  0.00  0.00    +0.147 HD
ENDROOT
BRANCH   1  17
ATOM     15  C   UNL     1       3.351   2.201   3.109  0.00  0.00    +0.002 A 
ATOM     16  C   UNL     1       2.978   1.872   1.819  0.00  0.00    +0.005 A 
ATOM     17  C   UNL     1       1.673   2.064   1.407  0.00  0.00    -0.026 A 
ATOM     18  C   UNL     1       0.738   2.576   2.287  0.00  0.00    +0.025 A 
ATOM     19  C   UNL     1       1.109   2.901   3.579  0.00  0.00    +0.041 A 
ATOM     20  C   UNL     1       2.417   2.713   3.990  0.00  0.00    +0.020 A 
ATOM     21 CL   UNL     1      -0.064   3.543   4.685  0.00  0.00    -0.084 Cl
ENDBRANCH   1  17
BRANCH   9  22
ATOM     22  S   UNL     1      -4.319   5.586  -0.733  0.00  0.00    +0.059 S 
ATOM     23  O   UNL     1      -5.521   5.059  -0.187  0.00  0.00    -0.153 OA
ATOM     24  O   UNL     1      -3.751   6.809  -0.284  0.00  0.00    -0.153 OA
BRANCH  22  25
ATOM     25  N   UNL     1      -4.571   5.751  -2.361  0.00  0.00    -0.187 NA
ATOM     26  H   UNL     1      -4.166   6.631  -2.881  0.00  0.00    +0.148 HD
BRANCH  25  27
ATOM     27  C   UNL     1      -5.131   4.638  -3.132  0.00  0.00    +0.077 C 
ATOM     28  C   UNL     1      -3.994   3.829  -3.760  0.00  0.00    +0.020 C 
ATOM     29  C   UNL     1      -4.579   2.667  -4.565  0.00  0.00    +0.002 C 
ATOM     30  C   UNL     1      -5.484   3.216  -5.669  0.00  0.00    +0.000 C 
ATOM     31  C   UNL     1      -6.621   4.025  -5.041  0.00  0.00    +0.002 C 
ATOM     32  C   UNL     1      -6.036   5.187  -4.236  0.00  0.00    +0.020 C 
ENDBRANCH  25  27
ENDBRANCH  22  25
ENDBRANCH   9  22
TORSDOF 4
