REMARK  Name = ZINC39696641
REMARK  6 active torsions:
REMARK  status: ('A' for Active; 'I' for Inactive)
REMARK    1  A    between atoms: C_1  and  N_2
REMARK    2  A    between atoms: C_6  and  C_9
REMARK    3  A    between atoms: C_9  and  N_10
REMARK    4  A    between atoms: C_11  and  C_13
REMARK    5  A    between atoms: C_24  and  C_26
REMARK    6  A    between atoms: C_31  and  C_32
REMARK                            x       y       z     vdW  Elec       q    Type
REMARK                         _______ _______ _______ _____ _____    ______ ____
ROOT
ATOM      1  C   UNL     1       2.394  -6.776   2.929  0.00  0.00    +0.100 C 
ATOM      2  C   UNL     1       0.903  -7.013   3.259  0.00  0.00    +0.121 C 
ATOM      3  N   UNL     1       0.908  -8.119   4.245  0.00  0.00    -0.296 N 
ATOM      4  C   UNL     1       2.073  -7.830   5.117  0.00  0.00    +0.115 C 
ATOM      5  C   UNL     1       3.158  -7.313   4.151  0.00  0.00    -0.004 C 
ATOM      6  C   UNL     1       4.083  -8.454   3.737  0.00  0.00    -0.010 C 
ATOM      7  C   UNL     1       4.873  -8.932   4.958  0.00  0.00    -0.082 C 
ATOM      8  N   UNL     1       5.654  -7.816   5.506  0.00  0.00    +0.379 N 
ATOM      9  C   UNL     1       4.753  -6.762   5.986  0.00  0.00    -0.082 C 
ATOM     10  C   UNL     1       3.957  -6.192   4.809  0.00  0.00    -0.010 C 
ATOM     11  C   UNL     1       0.049  -9.154   4.332  0.00  0.00    +0.247 C 
ATOM     12  O   UNL     1       0.125  -9.931   5.263  0.00  0.00    -0.270 OA
ATOM     13  H   UNL     1       6.221  -8.148   6.272  0.00  0.00    -0.086 HD
ATOM     14  H   UNL     1       6.254  -7.442   4.785  0.00  0.00    -0.086 HD
ENDROOT
BRANCH  11  15
ATOM     15  C   UNL     1      -0.986  -9.344   3.293  0.00  0.00    +0.049 A 
ATOM     16  C   UNL     1      -1.613  -8.238   2.718  0.00  0.00    +0.013 A 
ATOM     17  C   UNL     1      -2.577  -8.422   1.749  0.00  0.00    +0.001 A 
ATOM     18  C   UNL     1      -2.923  -9.700   1.347  0.00  0.00    +0.001 A 
ATOM     19  C   UNL     1      -2.305 -10.801   1.913  0.00  0.00    +0.013 A 
ATOM     20  C   UNL     1      -1.335 -10.630   2.879  0.00  0.00    +0.067 A 
BRANCH  20  21
ATOM     21  C   UNL     1      -0.659 -11.830   3.491  0.00  0.00    +0.418 C 
ATOM     22  F   UNL     1      -1.174 -12.998   2.918  0.00  0.00    -0.166 F 
ATOM     23  F   UNL     1       0.718 -11.762   3.252  0.00  0.00    -0.166 F 
ATOM     24  F   UNL     1      -0.893 -11.844   4.870  0.00  0.00    -0.166 F 
ENDBRANCH  20  21
ENDBRANCH  11  15
BRANCH   1  26
ATOM     25  N   UNL     1       3.650  -4.898   1.923  0.00  0.00    -0.313 N 
ATOM     26  C   UNL     1       2.663  -5.305   2.746  0.00  0.00    +0.218 C 
ATOM     27  O   UNL     1       1.992  -4.487   3.340  0.00  0.00    -0.275 OA
ATOM     28  H   UNL     1       4.186  -5.552   1.449  0.00  0.00    +0.149 HD
BRANCH  25  29
ATOM     29  C   UNL     1       3.911  -3.467   1.746  0.00  0.00    +0.137 C 
BRANCH  29  35
ATOM     30  C   UNL     1       6.783  -0.190  -0.544  0.00  0.00    +0.105 C 
ATOM     31  N   UNL     1       6.516  -1.613  -0.296  0.00  0.00    -0.301 NA
ATOM     32  C   UNL     1       7.698  -2.280   0.268  0.00  0.00    +0.112 C 
ATOM     33  C   UNL     1       7.396  -3.770   0.455  0.00  0.00    +0.175 C 
ATOM     34  O   UNL     1       6.243  -3.917   1.287  0.00  0.00    -0.372 OA
ATOM     35  C   UNL     1       5.073  -3.279   0.767  0.00  0.00    +0.149 C 
ATOM     36  C   UNL     1       5.351  -1.785   0.584  0.00  0.00    +0.117 C 
ENDBRANCH  29  35
ENDBRANCH  25  29
ENDBRANCH   1  26
TORSDOF 5
