REMARK  Name = ZINC14457159
REMARK  10 active torsions:
REMARK  status: ('A' for Active; 'I' for Inactive)
REMARK    1  A    between atoms: C_1  and  C_2
REMARK    2  A    between atoms: C_2  and  C_3
REMARK    3  A    between atoms: C_2  and  C_4
REMARK    4  A    between atoms: C_2  and  N_5
REMARK    5  A    between atoms: N_5  and  S_6
REMARK    6  A    between atoms: S_6  and  C_9
REMARK    7  A    between atoms: C_22  and  C_25
REMARK    8  A    between atoms: C_28  and  O_32
REMARK    9  A    between atoms: C_29  and  O_31
REMARK   10  A    between atoms: O_32  and  C_33
REMARK                            x       y       z     vdW  Elec       q    Type
REMARK                         _______ _______ _______ _____ _____    ______ ____
ROOT
ATOM      1  C   UNL     1       8.544   3.680   1.460  0.00  0.00    +0.106 A 
ATOM      2  C   UNL     1       8.014   4.939   1.246  0.00  0.00    +0.030 A 
ATOM      3  C   UNL     1       6.815   5.295   1.830  0.00  0.00    +0.025 A 
ATOM      4  C   UNL     1       6.132   4.393   2.636  0.00  0.00    +0.031 A 
ATOM      5  C   UNL     1       6.668   3.116   2.837  0.00  0.00    -0.018 A 
ATOM      6  C   UNL     1       7.869   2.773   2.255  0.00  0.00    +0.034 A 
ATOM      7  C   UNL     1       5.888   2.171   3.664  0.00  0.00    +0.049 C 
ATOM      8  C   UNL     1       6.536   1.073   4.427  0.00  0.00    -0.023 C 
ATOM      9  C   UNL     1       5.822   0.838   5.521  0.00  0.00    -0.030 C 
ATOM     10  C   UNL     1       4.637   1.803   5.590  0.00  0.00    +0.033 C 
ATOM     11  C   UNL     1       5.181   2.988   4.787  0.00  0.00    +0.029 C 
ATOM     12  C   UNL     1       4.151   3.847   4.075  0.00  0.00    +0.105 C 
ATOM     13  N   UNL     1       4.926   4.782   3.232  0.00  0.00    -0.336 N 
ATOM     14  H   UNL     1       4.594   5.682   3.089  0.00  0.00    +0.147 HD
ENDROOT
BRANCH  12  15
ATOM     15  C   UNL     1       3.261   2.987   3.215  0.00  0.00    -0.023 A 
ATOM     16  C   UNL     1       3.554   2.815   1.875  0.00  0.00    +0.009 A 
ATOM     17  C   UNL     1       2.740   2.027   1.082  0.00  0.00    +0.050 A 
ATOM     18  C   UNL     1       1.628   1.408   1.630  0.00  0.00    +0.161 A 
ATOM     19  C   UNL     1       1.333   1.581   2.978  0.00  0.00    +0.159 A 
ATOM     20  C   UNL     1       2.150   2.377   3.767  0.00  0.00    +0.054 A 
BRANCH  19  21
ATOM     21  O   UNL     1       0.243   0.976   3.521  0.00  0.00    -0.503 OA
ATOM     22  H   UNL     1       0.419   0.094   3.876  0.00  0.00    +0.292 HD
ENDBRANCH  19  21
BRANCH  18  23
ATOM     23  O   UNL     1       0.826   0.634   0.851  0.00  0.00    -0.491 OA
ATOM     24  C   UNL     1       1.190   0.501  -0.525  0.00  0.00    +0.277 C 
ENDBRANCH  18  23
ENDBRANCH  12  15
BRANCH   1  25
ATOM     25  S   UNL     1      10.079   3.232   0.719  0.00  0.00    +0.059 S 
ATOM     26  O   UNL     1       9.999   1.844   0.427  0.00  0.00    -0.153 OA
ATOM     27  O   UNL     1      10.347   4.207  -0.281  0.00  0.00    -0.153 OA
BRANCH  25  28
ATOM     28  N   UNL     1      11.251   3.407   1.876  0.00  0.00    -0.185 NA
ATOM     29  H   UNL     1      11.708   2.626   2.225  0.00  0.00    +0.149 HD
BRANCH  28  31
ATOM     30  C   UNL     1      10.331   5.447   2.863  0.00  0.00    +0.029 C 
ATOM     31  C   UNL     1      11.597   4.741   2.373  0.00  0.00    +0.032 C 
ATOM     32  C   UNL     1      12.589   4.612   3.530  0.00  0.00    +0.029 C 
ATOM     33  C   UNL     1      12.231   5.556   1.245  0.00  0.00    +0.029 C 
ENDBRANCH  28  31
ENDBRANCH  25  28
ENDBRANCH   1  25
TORSDOF 6
