REMARK  Name = ZINC58892479
REMARK  10 active torsions:
REMARK  status: ('A' for Active; 'I' for Inactive)
REMARK    1  A    between atoms: C_4  and  C_7
REMARK    2  A    between atoms: C_7  and  C_9
REMARK    3  A    between atoms: C_7  and  O_32
REMARK    4  A    between atoms: C_9  and  C_10
REMARK    5  A    between atoms: C_10  and  C_11
REMARK    6  A    between atoms: N_13  and  N_14
REMARK    7  A    between atoms: C_15  and  C_16
REMARK    8  A    between atoms: C_21  and  O_22
REMARK    9  A    between atoms: O_22  and  C_23
REMARK   10  A    between atoms: C_23  and  C_24
REMARK                            x       y       z     vdW  Elec       q    Type
REMARK                         _______ _______ _______ _____ _____    ______ ____
ROOT
ATOM      1  N   UNL     1       7.205  -3.571  -4.369  0.00  0.00    -0.188 NA
ATOM      2  C   UNL     1       7.861  -4.683  -4.504  0.00  0.00    +0.142 C 
ENDROOT
BRANCH   2   3
ATOM      3  C   UNL     1       8.580  -5.259  -3.354  0.00  0.00    +0.037 A 
ATOM      4  C   UNL     1       8.167  -4.970  -2.051  0.00  0.00    +0.028 A 
ATOM      5  C   UNL     1       8.845  -5.513  -0.979  0.00  0.00    +0.019 A 
ATOM      6  C   UNL     1       9.934  -6.343  -1.189  0.00  0.00    +0.019 A 
ATOM      7  C   UNL     1      10.352  -6.636  -2.474  0.00  0.00    +0.047 A 
ATOM      8  C   UNL     1       9.679  -6.104  -3.561  0.00  0.00    +0.130 A 
ATOM      9 BR   UNL     1       8.286  -5.121   0.784  0.00  0.00    -0.050 Br
BRANCH   8  10
ATOM     10  O   UNL     1      10.086  -6.396  -4.824  0.00  0.00    -0.487 OA
BRANCH  10  11
ATOM     11  C   UNL     1      11.148  -7.342  -4.961  0.00  0.00    +0.264 C 
BRANCH  11  12
ATOM     12  C   UNL     1      11.529  -7.462  -6.414  0.00  0.00    -0.010 A 
ATOM     13  C   UNL     1      10.974  -8.459  -7.194  0.00  0.00    +0.008 A 
ATOM     14  C   UNL     1      11.324  -8.570  -8.526  0.00  0.00    +0.020 A 
ATOM     15  C   UNL     1      12.229  -7.683  -9.080  0.00  0.00    +0.041 A 
ATOM     16  C   UNL     1      12.784  -6.685  -8.299  0.00  0.00    +0.020 A 
ATOM     17  C   UNL     1      12.430  -6.571  -6.968  0.00  0.00    +0.008 A 
ATOM     18 CL   UNL     1      12.669  -7.822 -10.753  0.00  0.00    -0.084 Cl
ENDBRANCH  11  12
ENDBRANCH  10  11
ENDBRANCH   8  10
ENDBRANCH   2   3
BRANCH   1  21
ATOM     19  C   UNL     1       6.573  -1.725  -3.005  0.00  0.00    +0.232 C 
ATOM     20  O   UNL     1       5.703  -1.447  -3.805  0.00  0.00    -0.274 OA
ATOM     21  N   UNL     1       7.340  -2.816  -3.196  0.00  0.00    -0.207 N 
ATOM     22  H   UNL     1       7.986  -3.079  -2.522  0.00  0.00    +0.177 HD
BRANCH  19  23
ATOM     23  C   UNL     1       6.794  -0.850  -1.799  0.00  0.00    +0.100 C 
BRANCH  23  24
ATOM     24  C   UNL     1       5.717   0.236  -1.751  0.00  0.00    +0.045 C 
BRANCH  24  25
ATOM     25  C   UNL     1       5.871   1.051  -0.465  0.00  0.00    +0.145 C 
BRANCH  25  29
ATOM     26  C   UNL     1       3.104   4.305  -0.506  0.00  0.00    +0.000 A 
ATOM     27  C   UNL     1       4.423   4.515  -0.861  0.00  0.00    +0.000 A 
ATOM     28  C   UNL     1       5.319   3.462  -0.848  0.00  0.00    +0.006 A 
ATOM     29  C   UNL     1       4.895   2.199  -0.479  0.00  0.00    -0.019 A 
ATOM     30  C   UNL     1       3.576   1.989  -0.122  0.00  0.00    +0.006 A 
ATOM     31  C   UNL     1       2.680   3.042  -0.137  0.00  0.00    +0.000 A 
ENDBRANCH  25  29
BRANCH  25  32
ATOM     32  O   UNL     1       5.607   0.214   0.663  0.00  0.00    -0.387 OA
ATOM     33  H   UNL     1       4.749  -0.232   0.630  0.00  0.00    +0.210 HD
ENDBRANCH  25  32
ENDBRANCH  24  25
ENDBRANCH  23  24
ENDBRANCH  19  23
ENDBRANCH   1  21
TORSDOF 10
