REMARK  Name = ZINC44875059
REMARK  5 active torsions:
REMARK  status: ('A' for Active; 'I' for Inactive)
REMARK    1  A    between atoms: C_1  and  C_2
REMARK    2  A    between atoms: C_2  and  C_4
REMARK    3  A    between atoms: C_2  and  C_8
REMARK    4  A    between atoms: N_5  and  O_6
REMARK    5  A    between atoms: N_10  and  C_11
REMARK                            x       y       z     vdW  Elec       q    Type
REMARK                         _______ _______ _______ _____ _____    ______ ____
ROOT
ATOM      1  C   UNL     1       0.735  -0.499   1.223  0.00  0.00    +0.227 C 
ATOM      2  O   UNL     1       1.727  -1.185   1.099  0.00  0.00    -0.275 OA
ATOM      3  N   UNL     1       0.278  -0.191   2.453  0.00  0.00    -0.284 N 
ATOM      4  H   UNL     1      -0.476   0.411   2.554  0.00  0.00    +0.155 HD
ENDROOT
BRANCH   3   5
ATOM      5  C   UNL     1       0.891  -0.739   3.585  0.00  0.00    +0.049 A 
ATOM      6  C   UNL     1       2.262  -0.963   3.594  0.00  0.00    +0.039 A 
ATOM      7  C   UNL     1       2.865  -1.504   4.714  0.00  0.00    +0.020 A 
ATOM      8  C   UNL     1       2.104  -1.823   5.825  0.00  0.00    +0.016 A 
ATOM      9  C   UNL     1       0.740  -1.601   5.819  0.00  0.00    +0.018 A 
ATOM     10  C   UNL     1       0.132  -1.055   4.705  0.00  0.00    +0.039 A 
ATOM     11 BR   UNL     1      -1.734  -0.745   4.700  0.00  0.00    -0.048 Br
ATOM     12 BR   UNL     1       4.731  -1.810   4.727  0.00  0.00    -0.050 Br
ENDBRANCH   3   5
BRANCH   1  14
ATOM     13  C   UNL     1      -0.002   1.540   0.018  0.00  0.00    +0.025 C 
ATOM     14  C   UNL     1       0.013   0.010   0.002  0.00  0.00    +0.138 C 
BRANCH  14  15
ATOM     15  C   UNL     1       0.721  -0.473  -1.238  0.00  0.00    +0.143 C 
ATOM     16  N   UNL     1       1.594   0.282  -1.818  0.00  0.00    -0.076 NA
ATOM     17  N   UNL     1       0.438  -1.719  -1.752  0.00  0.00    -0.343 N 
ATOM     18  H   UNL     1      -0.217  -2.286  -1.316  0.00  0.00    +0.144 HD
ATOM     19  H   UNL     1       0.894  -2.029  -2.549  0.00  0.00    +0.144 HD
BRANCH  16  20
ATOM     20  O   UNL     1       2.259  -0.171  -2.983  0.00  0.00    -0.408 OA
ATOM     21  H   UNL     1       2.893   0.463  -3.345  0.00  0.00    +0.328 HD
ENDBRANCH  16  20
ENDBRANCH  14  15
ENDBRANCH   1  14
TORSDOF 4
