REMARK  Name = ZINC16212575
REMARK  9 active torsions:
REMARK  status: ('A' for Active; 'I' for Inactive)
REMARK    1  A    between atoms: C_1  and  C_2
REMARK    2  A    between atoms: C_3  and  C_32
REMARK    3  A    between atoms: C_7  and  N_8
REMARK    4  A    between atoms: N_8  and  C_9
REMARK    5  A    between atoms: C_18  and  N_19
REMARK    6  A    between atoms: N_24  and  C_27
REMARK    7  A    between atoms: C_27  and  C_28
REMARK    8  A    between atoms: C_28  and  C_29
REMARK    9  A    between atoms: C_29  and  O_30
REMARK                            x       y       z     vdW  Elec       q    Type
REMARK                         _______ _______ _______ _____ _____    ______ ____
ROOT
ATOM      1  C   UNL     1      -4.168   1.843  -0.032  0.00  0.00    +0.070 A 
ATOM      2  C   UNL     1      -4.936   1.317  -1.097  0.00  0.00    +0.007 A 
ATOM      3  C   UNL     1      -4.375   0.487  -2.079  0.00  0.00    +0.010 A 
ATOM      4  C   UNL     1      -5.162  -0.002  -3.098  0.00  0.00    +0.001 A 
ATOM      5  C   UNL     1      -6.516   0.295  -3.172  0.00  0.00    +0.014 A 
ATOM      6  C   UNL     1      -7.102   1.117  -2.219  0.00  0.00    +0.046 A 
ATOM      7  C   UNL     1      -6.307   1.632  -1.170  0.00  0.00    +0.008 A 
ATOM      8  C   UNL     1      -6.900   2.471  -0.197  0.00  0.00    +0.048 A 
ATOM      9  C   UNL     1      -6.116   2.977   0.836  0.00  0.00    +0.048 A 
ATOM     10  C   UNL     1      -4.771   2.663   0.911  0.00  0.00    +0.149 A 
ATOM     11  C   UNL     1      -8.329   2.781  -0.311  0.00  0.00    +0.254 C 
ATOM     12  O   UNL     1      -8.858   3.501   0.515  0.00  0.00    -0.270 OA
ATOM     13  N   UNL     1      -9.058   2.275  -1.322  0.00  0.00    -0.234 N 
ATOM     14  C   UNL     1      -8.527   1.474  -2.265  0.00  0.00    +0.254 C 
ATOM     15  O   UNL     1      -9.230   1.044  -3.160  0.00  0.00    -0.270 OA
ENDROOT
BRANCH  10  16
ATOM     16  N   UNL     1      -3.959   3.214   2.019  0.00  0.00    +0.058 N 
ATOM     17  O   UNL     1      -4.494   3.853   2.907  0.00  0.00    -0.126 OA
ATOM     18  O   UNL     1      -2.755   3.028   2.043  0.00  0.00    -0.126 OA
ENDBRANCH  10  16
BRANCH   1  19
ATOM     19  N   UNL     1      -2.821   1.545   0.067  0.00  0.00    -0.312 N 
ATOM     20  H   UNL     1      -2.167   2.103  -0.382  0.00  0.00    +0.152 HD
BRANCH  19  27
ATOM     21  C   UNL     1      -0.063   0.853   0.009  0.00  0.00    +0.046 C 
ATOM     22  C   UNL     1      -1.065   0.067   0.814  0.00  0.00    -0.025 A 
ATOM     23  C   UNL     1      -0.654  -1.022   1.558  0.00  0.00    -0.032 A 
ATOM     24  C   UNL     1      -1.573  -1.743   2.297  0.00  0.00    +0.021 A 
ATOM     25  C   UNL     1      -2.908  -1.377   2.295  0.00  0.00    +0.017 A 
ATOM     26  C   UNL     1      -3.325  -0.289   1.554  0.00  0.00    +0.024 A 
ATOM     27  C   UNL     1      -2.403   0.441   0.814  0.00  0.00    +0.035 A 
ATOM     28 BR   UNL     1      -1.006  -3.234   3.314  0.00  0.00    -0.050 Br
ATOM     29  C   UNL     1       0.799  -1.424   1.563  0.00  0.00    +0.045 C 
ENDBRANCH  19  27
ENDBRANCH   1  19
BRANCH  13  30
ATOM     30  C   UNL     1     -10.483   2.609  -1.401  0.00  0.00    +0.119 C 
BRANCH  30  31
ATOM     31  C   UNL     1     -10.664   3.880  -2.232  0.00  0.00    +0.047 C 
BRANCH  31  32
ATOM     32  C   UNL     1     -12.151   4.229  -2.314  0.00  0.00    +0.157 C 
BRANCH  32  33
ATOM     33  O   UNL     1     -12.320   5.416  -3.091  0.00  0.00    -0.395 OA
ATOM     34  H   UNL     1     -13.241   5.697  -3.185  0.00  0.00    +0.209 HD
ENDBRANCH  32  33
ENDBRANCH  31  32
ENDBRANCH  30  31
ENDBRANCH  13  30
TORSDOF 7
