REMARK  Name = ZINC09310543
REMARK  5 active torsions:
REMARK  status: ('A' for Active; 'I' for Inactive)
REMARK    1  A    between atoms: C_5  and  C_7
REMARK    2  A    between atoms: C_12  and  C_20
REMARK    3  A    between atoms: C_14  and  C_18
REMARK    4  A    between atoms: C_15  and  N_17
REMARK    5  A    between atoms: C_24  and  N_26
REMARK                            x       y       z     vdW  Elec       q    Type
REMARK                         _______ _______ _______ _____ _____    ______ ____
ROOT
ATOM      1  C   UNL     1      -0.013   1.086   0.008  0.00  0.00    +0.035 C 
ATOM      2  C   UNL     1      -0.730   1.597  -1.243  0.00  0.00    +0.083 C 
ATOM      3  C   UNL     1       0.010   1.137  -2.477  0.00  0.00    +0.115 C 
ATOM      4  C   UNL     1       1.344   0.965  -2.453  0.00  0.00    +0.046 C 
ATOM      5  C   UNL     1       2.084   0.518  -3.691  0.00  0.00    +0.101 C 
ATOM      6  C   UNL     1       1.125  -0.104  -4.668  0.00  0.00    +0.098 C 
ATOM      7  C   UNL     1      -0.207   0.125  -4.561  0.00  0.00    +0.198 C 
ATOM      8  O   UNL     1      -0.706   0.910  -3.595  0.00  0.00    -0.445 OA
ATOM      9  C   UNL     1       2.091   1.194  -1.282  0.00  0.00    +0.164 C 
ATOM     10  O   UNL     1       3.297   1.046  -1.304  0.00  0.00    -0.292 OA
ATOM     11  C   UNL     1       1.423   1.620  -0.003  0.00  0.00    +0.088 C 
ENDROOT
BRANCH   1  16
ATOM     12  C   UNL     1      -1.522   3.382   2.597  0.00  0.00    +0.000 A 
ATOM     13  C   UNL     1      -2.035   2.475   3.506  0.00  0.00    +0.001 A 
ATOM     14  C   UNL     1      -1.893   1.119   3.284  0.00  0.00    +0.020 A 
ATOM     15  C   UNL     1      -1.239   0.668   2.151  0.00  0.00    +0.044 A 
ATOM     16  C   UNL     1      -0.726   1.576   1.242  0.00  0.00    -0.025 A 
ATOM     17  C   UNL     1      -0.864   2.933   1.468  0.00  0.00    +0.005 A 
ATOM     18 CL   UNL     1      -1.060  -1.036   1.871  0.00  0.00    -0.083 Cl
ENDBRANCH   1  16
BRANCH   5  19
ATOM     19  C   UNL     1       2.747   1.708  -4.335  0.00  0.00    -0.032 A 
ATOM     20  C   UNL     1       1.982   2.776  -4.767  0.00  0.00    +0.005 A 
ATOM     21  C   UNL     1       2.590   3.868  -5.357  0.00  0.00    +0.003 A 
ATOM     22  C   UNL     1       3.963   3.893  -5.514  0.00  0.00    +0.033 A 
ATOM     23  C   UNL     1       4.728   2.826  -5.082  0.00  0.00    +0.126 A 
ATOM     24  C   UNL     1       4.120   1.736  -4.487  0.00  0.00    +0.037 A 
BRANCH  23  25
ATOM     25  N   UNL     1       6.198   2.853  -5.251  0.00  0.00    +0.056 N 
ATOM     26  O   UNL     1       6.734   3.815  -5.771  0.00  0.00    -0.126 OA
ATOM     27  O   UNL     1       6.872   1.913  -4.870  0.00  0.00    -0.126 OA
ENDBRANCH  23  25
ENDBRANCH   5  19
BRANCH   7  28
ATOM     28  N   UNL     1      -1.063  -0.460  -5.461  0.00  0.00    -0.328 N 
ATOM     29  H   UNL     1      -0.713  -1.030  -6.164  0.00  0.00    +0.145 HD
ATOM     30  H   UNL     1      -2.018  -0.303  -5.394  0.00  0.00    +0.145 HD
ENDBRANCH   7  28
BRANCH   6  31
ATOM     31  C   UNL     1       1.621  -0.943  -5.717  0.00  0.00    +0.101 C 
ATOM     32  N   UNL     1       2.015  -1.609  -6.549  0.00  0.00    -0.191 NA
ENDBRANCH   6  31
TORSDOF 5
