REMARK  Name = ZINC12125714
REMARK  11 active torsions:
REMARK  status: ('A' for Active; 'I' for Inactive)
REMARK    1  A    between atoms: C_1  and  O_2
REMARK    2  A    between atoms: O_2  and  C_3
REMARK    3  A    between atoms: C_7  and  C_9
REMARK    4  A    between atoms: C_9  and  C_10
REMARK    5  A    between atoms: C_10  and  N_11
REMARK    6  A    between atoms: C_22  and  N_65
REMARK    7  A    between atoms: C_26  and  C_27
REMARK    8  A    between atoms: C_26  and  N_65
REMARK    9  A    between atoms: C_27  and  C_28
REMARK   10  A    between atoms: C_33  and  O_34
REMARK   11  A    between atoms: O_34  and  C_35
REMARK                            x       y       z     vdW  Elec       q    Type
REMARK                         _______ _______ _______ _____ _____    ______ ____
ROOT
ATOM      1  N   UNL     1      -6.222   3.390   4.728  0.00  0.00    -0.298 N 
ATOM      2  C   UNL     1      -5.612   4.177   5.651  0.00  0.00    +0.203 A 
ATOM      3  N   UNL     1      -6.246   4.585   6.717  0.00  0.00    -0.230 NA
ATOM      4  C   UNL     1      -7.513   4.242   6.931  0.00  0.00    +0.116 A 
ATOM      5  C   UNL     1      -8.227   3.432   6.034  0.00  0.00    +0.076 A 
ATOM      6  C   UNL     1      -7.504   3.006   4.872  0.00  0.00    +0.262 A 
ATOM      7  O   UNL     1      -8.039   2.304   4.032  0.00  0.00    -0.267 OA
ATOM      8  C   UNL     1      -9.612   3.136   6.401  0.00  0.00    -0.023 A 
ATOM      9  C   UNL     1     -10.065   3.666   7.556  0.00  0.00    -0.006 A 
ATOM     10  S   UNL     1      -8.694   4.578   8.213  0.00  0.00    -0.073 S 
ATOM     11  C   UNL     1     -11.432   3.514   8.150  0.00  0.00    +0.027 C 
ATOM     12  C   UNL     1     -12.143   2.355   7.437  0.00  0.00    -0.067 C 
ATOM     13  C   UNL     1     -11.974   2.530   5.925  0.00  0.00    -0.011 C 
ATOM     14  C   UNL     1     -10.519   2.270   5.531  0.00  0.00    +0.035 C 
ENDROOT
BRANCH  12  15
ATOM     15  N   UNL     1     -13.580   2.373   7.771  0.00  0.00    +0.381 N 
ATOM     16  H   UNL     1     -14.109   1.916   7.019  0.00  0.00    -0.086 HD
ATOM     17  H   UNL     1     -13.893   3.347   7.867  0.00  0.00    -0.086 HD
BRANCH  15  18
ATOM     18  C   UNL     1     -13.820   1.659   9.039  0.00  0.00    -0.077 C 
BRANCH  18  19
ATOM     19  C   UNL     1     -15.315   1.695   9.360  0.00  0.00    +0.020 C 
BRANCH  19  20
ATOM     20  C   UNL     1     -15.569   0.967  10.655  0.00  0.00    -0.007 A 
ATOM     21  C   UNL     1     -15.941  -0.364  10.638  0.00  0.00    +0.007 A 
ATOM     22  C   UNL     1     -16.174  -1.032  11.826  0.00  0.00    +0.000 A 
ATOM     23  C   UNL     1     -16.035  -0.371  13.033  0.00  0.00    +0.004 A 
ATOM     24  C   UNL     1     -15.663   0.958  13.055  0.00  0.00    +0.046 A 
ATOM     25  C   UNL     1     -15.424   1.630  11.864  0.00  0.00    +0.123 A 
BRANCH  25  26
ATOM     26  O   UNL     1     -15.053   2.938  11.883  0.00  0.00    -0.495 OA
ATOM     27  C   UNL     1     -14.923   3.557  13.165  0.00  0.00    +0.277 C 
ENDBRANCH  25  26
ENDBRANCH  19  20
ENDBRANCH  18  19
ENDBRANCH  15  18
ENDBRANCH  12  15
BRANCH   1  28
ATOM     28  C   UNL     1      -5.471   2.956   3.547  0.00  0.00    +0.131 C 
BRANCH  28  29
ATOM     29  C   UNL     1      -4.771   1.629   3.847  0.00  0.00    +0.057 C 
BRANCH  29  34
ATOM     30  C   UNL     1      -1.975   1.163   1.348  0.00  0.00    +0.120 A 
ATOM     31  C   UNL     1      -2.589   0.364   0.395  0.00  0.00    +0.045 A 
ATOM     32  C   UNL     1      -3.902  -0.029   0.567  0.00  0.00    +0.004 A 
ATOM     33  C   UNL     1      -4.608   0.382   1.683  0.00  0.00    +0.004 A 
ATOM     34  C   UNL     1      -3.999   1.183   2.632  0.00  0.00    -0.042 A 
ATOM     35  C   UNL     1      -2.684   1.574   2.467  0.00  0.00    +0.049 A 
BRANCH  30  37
ATOM     36  C   UNL     1      -0.013   1.086   0.008  0.00  0.00    +0.277 C 
ATOM     37  O   UNL     1      -0.682   1.547   1.184  0.00  0.00    -0.495 OA
ENDBRANCH  30  37
ENDBRANCH  29  34
ENDBRANCH  28  29
ENDBRANCH   1  28
TORSDOF 9
