REMARK  Name = ZINC36799226
REMARK  8 active torsions:
REMARK  status: ('A' for Active; 'I' for Inactive)
REMARK    1  A    between atoms: C_1  and  C_2
REMARK    2  A    between atoms: C_5  and  N_9
REMARK    3  A    between atoms: C_7  and  C_8
REMARK    4  A    between atoms: C_19  and  S_20
REMARK    5  A    between atoms: S_20  and  C_21
REMARK    6  A    between atoms: C_21  and  C_22
REMARK    7  A    between atoms: C_24  and  O_25
REMARK    8  A    between atoms: C_34  and  C_36
REMARK                            x       y       z     vdW  Elec       q    Type
REMARK                         _______ _______ _______ _____ _____    ______ ____
ROOT
ATOM      1  N   UNL     1      -0.159  -5.698  -0.237  0.00  0.00    -0.255 N 
ATOM      2  C   UNL     1      -0.215  -6.657   0.716  0.00  0.00    +0.267 A 
ATOM      3  O   UNL     1      -0.058  -6.386   1.893  0.00  0.00    -0.267 OA
ATOM      4  C   UNL     1      -0.473  -8.035   0.281  0.00  0.00    +0.065 A 
ATOM      5  C   UNL     1      -0.550  -9.092   1.187  0.00  0.00    +0.015 A 
ATOM      6  C   UNL     1      -0.793 -10.357   0.727  0.00  0.00    +0.001 A 
ATOM      7  C   UNL     1      -0.964 -10.599  -0.630  0.00  0.00    +0.002 A 
ATOM      8  C   UNL     1      -0.893  -9.582  -1.540  0.00  0.00    +0.028 A 
ATOM      9  C   UNL     1      -0.646  -8.277  -1.101  0.00  0.00    +0.079 A 
ATOM     10  N   UNL     1      -0.569  -7.240  -1.968  0.00  0.00    -0.223 NA
ATOM     11  C   UNL     1      -0.343  -6.018  -1.554  0.00  0.00    +0.177 A 
ENDROOT
BRANCH   1  16
ATOM     12  C   UNL     1       0.825  -0.309   1.242  0.00  0.00    +0.044 C 
ATOM     13  C   UNL     1       0.564  -1.740   0.849  0.00  0.00    -0.047 A 
ATOM     14  C   UNL     1      -0.586  -2.066   0.153  0.00  0.00    +0.005 A 
ATOM     15  C   UNL     1      -0.828  -3.376  -0.208  0.00  0.00    +0.026 A 
ATOM     16  C   UNL     1       0.084  -4.368   0.127  0.00  0.00    +0.052 A 
ATOM     17  C   UNL     1       1.238  -4.038   0.826  0.00  0.00    +0.030 A 
ATOM     18  C   UNL     1       1.477  -2.724   1.180  0.00  0.00    -0.046 A 
ATOM     19  C   UNL     1       2.731  -2.364   1.934  0.00  0.00    +0.044 C 
ENDBRANCH   1  16
BRANCH  11  20
ATOM     20  S   UNL     1      -0.266  -4.727  -2.751  0.00  0.00    -0.083 S 
BRANCH  20  21
ATOM     21  C   UNL     1      -0.559  -5.573  -4.329  0.00  0.00    +0.113 C 
BRANCH  21  22
ATOM     22  C   UNL     1      -0.519  -4.569  -5.452  0.00  0.00    -0.020 A 
ATOM     23  C   UNL     1      -1.569  -3.697  -5.657  0.00  0.00    +0.092 A 
ATOM     24  C   UNL     1      -1.514  -2.780  -6.696  0.00  0.00    +0.285 A 
ATOM     25  O   UNL     1      -0.458  -2.717  -7.515  0.00  0.00    -0.425 OA
ATOM     26  C   UNL     1       0.595  -3.546  -7.360  0.00  0.00    +0.141 A 
ATOM     27  C   UNL     1       0.596  -4.496  -6.314  0.00  0.00    +0.022 A 
ATOM     28  C   UNL     1       1.694  -5.358  -6.146  0.00  0.00    +0.013 A 
ATOM     29  C   UNL     1       2.758  -5.272  -6.987  0.00  0.00    +0.024 A 
ATOM     30  C   UNL     1       2.768  -4.326  -8.027  0.00  0.00    +0.037 A 
ATOM     31  C   UNL     1       1.681  -3.471  -8.214  0.00  0.00    +0.070 A 
ATOM     32  N   UNL     1       3.840  -4.250  -8.863  0.00  0.00    -0.286 N 
ATOM     33  C   UNL     1       4.005  -3.189  -9.629  0.00  0.00    +0.214 C 
ATOM     34  O   UNL     1       3.272  -2.225  -9.500  0.00  0.00    -0.276 OA
ATOM     35  C   UNL     1       5.101  -3.170 -10.664  0.00  0.00    +0.109 C 
ATOM     36  H   UNL     1       4.483  -4.976  -8.895  0.00  0.00    +0.155 HD
BRANCH  24  37
ATOM     37  O   UNL     1      -2.546  -1.935  -6.885  0.00  0.00    -0.480 OA
ATOM     38  H   UNL     1      -2.427  -1.329  -7.630  0.00  0.00    +0.295 HD
ENDBRANCH  24  37
ENDBRANCH  21  22
ENDBRANCH  20  21
ENDBRANCH  11  20
TORSDOF 5
