REMARK  Name = ZINC22179218
REMARK  8 active torsions:
REMARK  status: ('A' for Active; 'I' for Inactive)
REMARK    1  A    between atoms: C_1  and  C_2
REMARK    2  A    between atoms: C_6  and  C_9
REMARK    3  A    between atoms: C_7  and  N_8
REMARK    4  A    between atoms: C_9  and  O_11
REMARK    5  A    between atoms: O_11  and  C_12
REMARK    6  A    between atoms: C_12  and  C_13
REMARK    7  A    between atoms: C_16  and  C_26
REMARK    8  A    between atoms: C_19  and  C_21
REMARK                            x       y       z     vdW  Elec       q    Type
REMARK                         _______ _______ _______ _____ _____    ______ ____
ROOT
ATOM      1  C   UNL     1      -0.236  -6.739   2.865  0.00  0.00    +0.273 C 
ATOM      2  O   UNL     1      -0.314  -7.046   1.694  0.00  0.00    -0.270 OA
ATOM      3  N   UNL     1      -0.261  -7.694   3.816  0.00  0.00    -0.179 N 
ATOM      4  C   UNL     1      -0.373  -9.141   3.572  0.00  0.00    +0.173 C 
ATOM      5  C   UNL     1      -0.353  -9.751   4.988  0.00  0.00    +0.090 C 
ATOM      6  C   UNL     1      -0.230  -8.551   5.899  0.00  0.00    +0.075 C 
ATOM      7  N   UNL     1      -0.179  -7.474   5.189  0.00  0.00    -0.180 NA
ENDROOT
BRANCH   6   8
ATOM      8  C   UNL     1      -0.169  -8.603   7.364  0.00  0.00    +0.035 A 
ATOM      9  C   UNL     1      -0.062  -7.562   8.270  0.00  0.00    +0.017 A 
ATOM     10  C   UNL     1      -0.024  -7.865   9.611  0.00  0.00    +0.008 A 
ATOM     11  C   UNL     1      -0.091  -9.165  10.002  0.00  0.00    +0.046 A 
ATOM     12  S   UNL     1      -0.222 -10.024   8.443  0.00  0.00    -0.095 S 
ENDBRANCH   6   8
BRANCH   4  13
ATOM     13  C   UNL     1      -1.668  -9.462   2.871  0.00  0.00    +0.128 A 
ATOM     14  C   UNL     1      -1.832 -10.384   1.905  0.00  0.00    +0.046 A 
ATOM     15  C   UNL     1      -3.197 -10.351   1.536  0.00  0.00    +0.041 A 
ATOM     16  C   UNL     1      -3.784  -9.411   2.298  0.00  0.00    +0.195 A 
ATOM     17  O   UNL     1      -2.855  -8.880   3.109  0.00  0.00    -0.466 OA
ENDBRANCH   4  13
BRANCH   1  18
ATOM     18  C   UNL     1      -0.111  -5.290   3.257  0.00  0.00    +0.330 C 
BRANCH  18  19
ATOM     19  O   UNL     1      -0.107  -4.477   2.082  0.00  0.00    -0.452 OA
BRANCH  19  20
ATOM     20  C   UNL     1      -0.000  -3.145   2.259  0.00  0.00    +0.341 C 
ATOM     21  O   UNL     1       0.086  -2.687   3.381  0.00  0.00    -0.245 OA
BRANCH  20  27
ATOM     22  C   UNL     1      -0.009   1.480   0.352  0.00  0.00    +0.045 C 
ATOM     23  C   UNL     1       0.006  -0.015   0.166  0.00  0.00    -0.029 A 
ATOM     24  C   UNL     1       0.031  -0.551  -1.105  0.00  0.00    +0.005 A 
ATOM     25  C   UNL     1       0.045  -1.925  -1.288  0.00  0.00    +0.001 A 
ATOM     26  C   UNL     1       0.035  -2.772  -0.202  0.00  0.00    +0.017 A 
ATOM     27  C   UNL     1       0.011  -2.245   1.093  0.00  0.00    +0.080 A 
ATOM     28  C   UNL     1       0.002  -0.853   1.274  0.00  0.00    +0.042 A 
BRANCH  28  29
ATOM     29  N   UNL     1      -0.016  -0.316   2.555  0.00  0.00    -0.357 N 
ATOM     30  H   UNL     1      -0.109   0.642   2.678  0.00  0.00    +0.142 HD
ATOM     31  H   UNL     1       0.063  -0.899   3.326  0.00  0.00    +0.142 HD
ENDBRANCH  28  29
ENDBRANCH  20  27
ENDBRANCH  19  20
ENDBRANCH  18  19
ENDBRANCH   1  18
TORSDOF 7
