REMARK  Name = ZINC52426218
REMARK  9 active torsions:
REMARK  status: ('A' for Active; 'I' for Inactive)
REMARK    1  A    between atoms: C_1  and  C_2
REMARK    2  A    between atoms: C_2  and  C_3
REMARK    3  A    between atoms: C_2  and  C_4
REMARK    4  A    between atoms: C_2  and  N_37
REMARK    5  A    between atoms: N_6  and  C_7
REMARK    6  A    between atoms: C_7  and  C_9
REMARK    7  A    between atoms: C_7  and  C_19
REMARK    8  A    between atoms: C_9  and  C_10
REMARK    9  A    between atoms: C_28  and  O_36
REMARK                            x       y       z     vdW  Elec       q    Type
REMARK                         _______ _______ _______ _____ _____    ______ ____
ROOT
ATOM      1  C   UNL     1      -3.465  -1.164  -1.134  0.00  0.00    +0.163 C 
ENDROOT
BRANCH   1   2
ATOM      2  C   UNL     1      -4.331  -0.251  -0.306  0.00  0.00    +0.236 C 
ATOM      3  O   UNL     1      -3.824   0.496   0.504  0.00  0.00    -0.274 OA
ATOM      4  N   UNL     1      -5.669  -0.263  -0.465  0.00  0.00    -0.300 N 
ATOM      5  C   UNL     1      -6.298  -1.167  -1.438  0.00  0.00    +0.108 C 
ATOM      6  C   UNL     1      -7.366  -1.999  -0.720  0.00  0.00    +0.030 C 
ATOM      7  C   UNL     1      -8.332  -1.066   0.005  0.00  0.00    +0.002 C 
ATOM      8  C   UNL     1      -7.592  -0.220   1.036  0.00  0.00    +0.030 C 
ATOM      9  C   UNL     1      -6.527   0.622   0.335  0.00  0.00    +0.108 C 
ATOM     10  C   UNL     1      -9.044  -0.154  -1.011  0.00  0.00    +0.047 C 
ATOM     11  C   UNL     1     -10.452  -0.008  -0.393  0.00  0.00    +0.146 C 
ATOM     12  C   UNL     1     -10.650  -1.255   0.443  0.00  0.00    -0.015 A 
ATOM     13  C   UNL     1      -9.428  -1.863   0.672  0.00  0.00    -0.035 A 
ATOM     14  C   UNL     1      -9.369  -3.027   1.420  0.00  0.00    +0.004 A 
ATOM     15  C   UNL     1     -10.524  -3.582   1.937  0.00  0.00    +0.000 A 
ATOM     16  C   UNL     1     -11.743  -2.974   1.707  0.00  0.00    +0.000 A 
ATOM     17  C   UNL     1     -11.805  -1.813   0.962  0.00  0.00    +0.006 A 
BRANCH  11  18
ATOM     18  O   UNL     1     -11.440   0.064  -1.422  0.00  0.00    -0.387 OA
ATOM     19  H   UNL     1     -12.345   0.156  -1.093  0.00  0.00    +0.210 HD
ENDBRANCH  11  18
ENDBRANCH   1   2
BRANCH   1  22
ATOM     20  C   UNL     1      -1.412  -0.526   0.013  0.00  0.00    +0.202 C 
ATOM     21  O   UNL     1      -1.939  -0.827   1.062  0.00  0.00    -0.277 OA
ATOM     22  N   UNL     1      -2.090  -0.657  -1.144  0.00  0.00    -0.305 N 
ATOM     23  H   UNL     1      -1.669  -0.416  -1.984  0.00  0.00    +0.149 HD
BRANCH  20  25
ATOM     24  C   UNL     1      -0.019   1.526   0.010  0.00  0.00    -0.001 C 
ATOM     25  C   UNL     1       0.002  -0.004   0.002  0.00  0.00    +0.001 C 
ATOM     26  C   UNL     1       0.742  -0.511   1.242  0.00  0.00    -0.001 C 
BRANCH  25  27
ATOM     27  N   UNL     1       0.690  -0.478  -1.207  0.00  0.00    +0.387 N 
ATOM     28  H   UNL     1       1.636  -0.129  -1.214  0.00  0.00    -0.089 HD
ATOM     29  H   UNL     1       0.703  -1.487  -1.212  0.00  0.00    -0.089 HD
ATOM     30  H   UNL     1       0.202  -0.144  -2.024  0.00  0.00    -0.089 HD
ENDBRANCH  25  27
ENDBRANCH  20  25
ENDBRANCH   1  22
BRANCH   1  31
ATOM     31  C   UNL     1      -3.485  -2.571  -0.532  0.00  0.00    +0.065 C 
BRANCH  31  32
ATOM     32  C   UNL     1      -2.720  -3.511  -1.426  0.00  0.00    -0.039 C 
ATOM     33  C   UNL     1      -1.423  -3.875  -1.304  0.00  0.00    -0.001 A 
ATOM     34  C   UNL     1      -0.376  -3.516  -0.340  0.00  0.00    +0.010 A 
ATOM     35  C   UNL     1       0.857  -4.053  -0.480  0.00  0.00    +0.001 A 
ATOM     36  C   UNL     1       1.160  -4.942  -1.521  0.00  0.00    +0.002 A 
ATOM     37  C   UNL     1       0.252  -5.319  -2.446  0.00  0.00    +0.026 A 
ATOM     38  C   UNL     1      -1.077  -4.815  -2.394  0.00  0.00    +0.043 A 
ATOM     39  N   UNL     1      -2.120  -5.025  -3.160  0.00  0.00    -0.380 N 
ATOM     40  C   UNL     1      -3.248  -4.245  -2.639  0.00  0.00    +0.144 C 
ATOM     41  H   UNL     1      -2.144  -5.603  -3.939  0.00  0.00    +0.160 HD
ENDBRANCH  31  32
ENDBRANCH   1  31
TORSDOF 7
