REMARK  Name = ZINC59337083
REMARK  4 active torsions:
REMARK  status: ('A' for Active; 'I' for Inactive)
REMARK    1  A    between atoms: C_1  and  O_2
REMARK    2  A    between atoms: O_2  and  C_3
REMARK    3  A    between atoms: C_6  and  C_10
REMARK    4  A    between atoms: C_15  and  C_19
REMARK                            x       y       z     vdW  Elec       q    Type
REMARK                         _______ _______ _______ _____ _____    ______ ____
ROOT
ATOM      1  C   UNL     1       2.565  -2.527   4.272  0.00  0.00    +0.030 C 
ATOM      2  C   UNL     1       2.537  -3.904   4.379  0.00  0.00    +0.143 C 
ATOM      3  C   UNL     1       1.942  -4.785   3.337  0.00  0.00    +0.349 C 
ATOM      4  O   UNL     1       1.990  -4.519   2.151  0.00  0.00    -0.245 OA
ATOM      5  O   UNL     1       1.342  -5.911   3.811  0.00  0.00    -0.417 OA
ATOM      6  C   UNL     1       2.086  -6.637   4.797  0.00  0.00    +0.402 C 
ATOM      7  O   UNL     1       2.427  -5.773   5.887  0.00  0.00    -0.417 OA
ATOM      8  C   UNL     1       3.103  -4.637   5.543  0.00  0.00    +0.349 C 
ATOM      9  O   UNL     1       4.089  -4.253   6.142  0.00  0.00    -0.245 OA
ENDROOT
BRANCH   1  13
ATOM     10  C   UNL     1       0.476  -0.607   1.139  0.00  0.00    +0.133 A 
ATOM     11  C   UNL     1       1.654  -0.051   1.631  0.00  0.00    +0.047 A 
ATOM     12  C   UNL     1       2.333  -0.666   2.643  0.00  0.00    +0.011 A 
ATOM     13  C   UNL     1       1.842  -1.862   3.188  0.00  0.00    -0.023 A 
ATOM     14  C   UNL     1       0.654  -2.419   2.688  0.00  0.00    +0.026 A 
ATOM     15  C   UNL     1      -0.019  -1.790   1.679  0.00  0.00    +0.056 A 
ATOM     16  I   UNL     1      -1.797  -2.614   0.938  0.00  0.00    -0.040 I 
BRANCH  10  18
ATOM     17  C   UNL     1       0.370   1.220  -0.375  0.00  0.00    +0.277 C 
ATOM     18  O   UNL     1      -0.194   0.009   0.134  0.00  0.00    -0.494 OA
ENDBRANCH  10  18
ENDBRANCH   1  13
BRANCH   6  19
ATOM     19  C   UNL     1       1.252  -7.783   5.309  0.00  0.00    +0.033 A 
ATOM     20  C   UNL     1      -0.020  -7.989   4.810  0.00  0.00    +0.011 A 
ATOM     21  C   UNL     1      -0.785  -9.041   5.280  0.00  0.00    +0.001 A 
ATOM     22  C   UNL     1      -0.277  -9.886   6.249  0.00  0.00    +0.000 A 
ATOM     23  C   UNL     1       0.996  -9.680   6.748  0.00  0.00    +0.001 A 
ATOM     24  C   UNL     1       1.762  -8.631   6.275  0.00  0.00    +0.011 A 
ENDBRANCH   6  19
TORSDOF 3
