REMARK  Name = ZINC08945025
REMARK  11 active torsions:
REMARK  status: ('A' for Active; 'I' for Inactive)
REMARK    1  A    between atoms: C_1  and  C_2
REMARK    2  A    between atoms: C_3  and  C_13
REMARK    3  A    between atoms: C_4  and  C_7
REMARK    4  A    between atoms: C_16  and  C_18
REMARK    5  A    between atoms: C_18  and  N_55
REMARK    6  A    between atoms: C_19  and  N_55
REMARK    7  A    between atoms: C_20  and  C_22
REMARK    8  A    between atoms: C_20  and  C_23
REMARK    9  A    between atoms: C_20  and  N_55
REMARK   10  A    between atoms: C_26  and  S_29
REMARK   11  A    between atoms: S_29  and  N_32
REMARK                            x       y       z     vdW  Elec       q    Type
REMARK                         _______ _______ _______ _____ _____    ______ ____
ROOT
ATOM      1  C   UNL     1       0.514   1.257   2.371  0.00  0.00    +0.021 C 
ENDROOT
BRANCH   1   5
ATOM      2  C   UNL     1       0.195  -2.246   3.245  0.00  0.00    +0.254 A 
ATOM      3  N   UNL     1       1.141  -2.263   2.335  0.00  0.00    -0.107 NA
ATOM      4  N   UNL     1       1.357  -1.062   1.926  0.00  0.00    -0.114 NA
ATOM      5  C   UNL     1       0.572  -0.237   2.558  0.00  0.00    +0.202 A 
ATOM      6  O   UNL     1      -0.184  -0.961   3.403  0.00  0.00    -0.422 OA
BRANCH   2   9
ATOM      7  C   UNL     1      -2.088  -2.269   5.474  0.00  0.00    +0.090 C 
ATOM      8  C   UNL     1      -1.330  -3.448   4.920  0.00  0.00    +0.147 A 
ATOM      9  C   UNL     1      -0.353  -3.415   3.962  0.00  0.00    +0.108 A 
ATOM     10  C   UNL     1       0.025  -4.836   3.827  0.00  0.00    +0.126 A 
ATOM     11  N   UNL     1      -0.744  -5.477   4.672  0.00  0.00    -0.077 NA
ATOM     12  O   UNL     1      -1.484  -4.731   5.266  0.00  0.00    -0.359 OA
BRANCH  10  13
ATOM     13  C   UNL     1       1.053  -5.414   2.928  0.00  0.00    +0.004 A 
ATOM     14  C   UNL     1       1.262  -4.868   1.663  0.00  0.00    +0.010 A 
ATOM     15  C   UNL     1       2.225  -5.406   0.832  0.00  0.00    +0.001 A 
ATOM     16  C   UNL     1       2.972  -6.493   1.249  0.00  0.00    +0.000 A 
ATOM     17  C   UNL     1       2.764  -7.043   2.501  0.00  0.00    +0.001 A 
ATOM     18  C   UNL     1       1.809  -6.509   3.342  0.00  0.00    +0.010 A 
ENDBRANCH  10  13
ENDBRANCH   2   9
ENDBRANCH   1   5
BRANCH   1  20
ATOM     19  C   UNL     1      -0.009   1.084   0.013  0.00  0.00    -0.095 C 
ATOM     20  N   UNL     1      -0.484   1.569   1.326  0.00  0.00    +0.388 N 
ATOM     21  H   UNL     1      -1.366   1.098   1.557  0.00  0.00    -0.081 HD
BRANCH  20  22
ATOM     22  C   UNL     1      -0.718   3.027   1.271  0.00  0.00    -0.041 C 
ATOM     23  C   UNL     1      -1.691   3.333   0.131  0.00  0.00    -0.008 C 
BRANCH  22  24
ATOM     24  C   UNL     1      -1.319   3.474   2.579  0.00  0.00    -0.061 A 
ATOM     25  C   UNL     1      -2.349   2.749   3.150  0.00  0.00    +0.004 A 
ATOM     26  C   UNL     1      -2.897   3.157   4.351  0.00  0.00    +0.029 A 
ATOM     27  C   UNL     1      -2.424   4.295   4.977  0.00  0.00    +0.105 A 
ATOM     28  C   UNL     1      -1.398   5.023   4.403  0.00  0.00    +0.029 A 
ATOM     29  C   UNL     1      -0.846   4.613   3.204  0.00  0.00    +0.004 A 
BRANCH  27  30
ATOM     30  S   UNL     1      -3.128   4.818   6.505  0.00  0.00    +0.056 S 
ATOM     31  O   UNL     1      -3.701   3.664   7.104  0.00  0.00    -0.153 OA
ATOM     32  O   UNL     1      -2.142   5.606   7.158  0.00  0.00    -0.153 OA
BRANCH  30  33
ATOM     33  N   UNL     1      -4.383   5.836   6.142  0.00  0.00    -0.204 NA
ATOM     34  H   UNL     1      -4.596   6.033   5.217  0.00  0.00    +0.144 HD
ATOM     35  H   UNL     1      -4.905   6.235   6.856  0.00  0.00    +0.144 HD
ENDBRANCH  30  33
ENDBRANCH  27  30
ENDBRANCH  22  24
ENDBRANCH  20  22
ENDBRANCH   1  20
TORSDOF 8
