REMARK  Name = ZINC42182947
REMARK  15 active torsions:
REMARK  status: ('A' for Active; 'I' for Inactive)
REMARK    1  A    between atoms: C_1  and  C_2
REMARK    2  A    between atoms: C_2  and  C_4
REMARK    3  A    between atoms: C_2  and  N_16
REMARK    4  A    between atoms: C_7  and  O_12
REMARK    5  A    between atoms: C_8  and  O_10
REMARK    6  A    between atoms: O_10  and  C_11
REMARK    7  A    between atoms: O_12  and  C_13
REMARK    8  A    between atoms: C_13  and  C_14
REMARK    9  A    between atoms: C_13  and  C_15
REMARK   10  A    between atoms: N_16  and  C_17
REMARK   11  A    between atoms: C_17  and  C_19
REMARK   12  A    between atoms: C_17  and  C_20
REMARK   13  A    between atoms: N_25  and  C_26
REMARK   14  A    between atoms: C_26  and  C_27
REMARK   15  A    between atoms: C_26  and  C_28
REMARK                            x       y       z     vdW  Elec       q    Type
REMARK                         _______ _______ _______ _____ _____    ______ ____
ROOT
ATOM      1  N   UNL     1       0.776  -1.587  -1.984  0.00  0.00    +0.391 N 
ATOM      2  H   UNL     1       0.383  -1.391  -2.892  0.00  0.00    -0.084 HD
ATOM      3  H   UNL     1       1.731  -1.263  -1.954  0.00  0.00    -0.084 HD
ENDROOT
BRANCH   1   5
ATOM      4  C   UNL     1      -0.085   0.597  -1.284  0.00  0.00    -0.009 C 
ATOM      5  C   UNL     1      -0.008  -0.895  -0.952  0.00  0.00    -0.043 C 
BRANCH   5   6
ATOM      6  C   UNL     1       0.655  -1.077   0.389  0.00  0.00    -0.058 A 
ATOM      7  C   UNL     1       2.033  -1.012   0.492  0.00  0.00    +0.006 A 
ATOM      8  C   UNL     1       2.646  -1.179   1.720  0.00  0.00    +0.049 A 
ATOM      9  C   UNL     1       1.880  -1.411   2.851  0.00  0.00    +0.162 A 
ATOM     10  C   UNL     1       0.494  -1.476   2.748  0.00  0.00    +0.162 A 
ATOM     11  C   UNL     1      -0.115  -1.303   1.515  0.00  0.00    +0.051 A 
BRANCH  10  12
ATOM     12  O   UNL     1      -0.262  -1.703   3.855  0.00  0.00    -0.491 OA
ATOM     13  C   UNL     1      -1.679  -1.757   3.673  0.00  0.00    +0.277 C 
ENDBRANCH  10  12
BRANCH   9  14
ATOM     14  O   UNL     1       2.482  -1.575   4.059  0.00  0.00    -0.486 OA
BRANCH  14  15
ATOM     15  C   UNL     1       3.896  -1.382   4.112  0.00  0.00    +0.167 C 
ATOM     16  C   UNL     1       4.307  -1.003   5.536  0.00  0.00    +0.051 C 
ATOM     17  C   UNL     1       4.604  -2.676   3.704  0.00  0.00    +0.051 C 
ENDBRANCH  14  15
ENDBRANCH   9  14
ENDBRANCH   5   6
ENDBRANCH   1   5
BRANCH   1  18
ATOM     18  C   UNL     1       0.741  -3.034  -1.737  0.00  0.00    +0.014 C 
ATOM     19  C   UNL     1      -0.685  -3.551  -1.934  0.00  0.00    -0.004 C 
BRANCH  18  20
ATOM     20  C   UNL     1       1.665  -3.731  -2.702  0.00  0.00    +0.206 C 
ATOM     21  O   UNL     1       2.291  -3.085  -3.515  0.00  0.00    -0.277 OA
ATOM     22  N   UNL     1       1.796  -5.072  -2.661  0.00  0.00    -0.242 N 
ATOM     23  C   UNL     1       2.623  -5.694  -3.524  0.00  0.00    +0.306 C 
ATOM     24  O   UNL     1       3.251  -5.047  -4.339  0.00  0.00    -0.252 OA
ATOM     25  N   UNL     1       2.754  -7.035  -3.483  0.00  0.00    -0.297 N 
ATOM     26  H   UNL     1       1.296  -5.588  -2.010  0.00  0.00    +0.159 HD
ATOM     27  H   UNL     1       2.253  -7.552  -2.833  0.00  0.00    +0.151 HD
BRANCH  25  28
ATOM     28  C   UNL     1       3.652  -7.712  -4.421  0.00  0.00    +0.068 C 
ATOM     29  C   UNL     1       4.107  -9.044  -3.821  0.00  0.00    +0.027 C 
ATOM     30  C   UNL     1       2.915  -7.971  -5.737  0.00  0.00    +0.027 C 
ENDBRANCH  25  28
ENDBRANCH  18  20
ENDBRANCH   1  18
TORSDOF 8
