REMARK  Name = ZINC36743163
REMARK  5 active torsions:
REMARK  status: ('A' for Active; 'I' for Inactive)
REMARK    1  A    between atoms: C_1  and  C_2
REMARK    2  A    between atoms: C_7  and  S_8
REMARK    3  A    between atoms: S_8  and  N_11
REMARK    4  A    between atoms: N_11  and  C_12
REMARK    5  A    between atoms: C_13  and  N_20
REMARK                            x       y       z     vdW  Elec       q    Type
REMARK                         _______ _______ _______ _____ _____    ______ ____
ROOT
ATOM      1  N   UNL     1       1.615   1.125   2.614  0.00  0.00    -0.213 N 
ATOM      2  H   UNL     1       1.535   2.059   2.364  0.00  0.00    +0.174 HD
ENDROOT
BRANCH   1   3
ATOM      3  C   UNL     1       2.871   0.591   2.933  0.00  0.00    +0.083 A 
ATOM      4  C   UNL     1       3.142   0.171   4.235  0.00  0.00    +0.049 A 
ATOM      5  C   UNL     1       4.386  -0.356   4.544  0.00  0.00    +0.040 A 
ATOM      6  C   UNL     1       5.355  -0.466   3.562  0.00  0.00    +0.021 A 
ATOM      7  C   UNL     1       5.087  -0.050   2.271  0.00  0.00    +0.032 A 
ATOM      8  C   UNL     1       3.845   0.472   1.953  0.00  0.00    +0.043 A 
ATOM      9 BR   UNL     1       3.480   1.032   0.184  0.00  0.00    -0.048 Br
ATOM     10 BR   UNL     1       7.051  -1.186   3.987  0.00  0.00    -0.050 Br
BRANCH   4  11
ATOM     11  N   UNL     1       2.161   0.284   5.227  0.00  0.00    -0.356 N 
ATOM     12  H   UNL     1       1.291   0.653   5.009  0.00  0.00    +0.142 HD
ATOM     13  H   UNL     1       2.351  -0.008   6.132  0.00  0.00    +0.142 HD
ENDBRANCH   4  11
ENDBRANCH   1   3
BRANCH   1  14
ATOM     14  S   UNL     1       0.269   0.162   2.663  0.00  0.00    +0.073 S 
ATOM     15  O   UNL     1      -0.837   0.994   2.343  0.00  0.00    -0.150 OA
ATOM     16  O   UNL     1       0.341  -0.576   3.875  0.00  0.00    -0.150 OA
BRANCH  14  23
ATOM     17  C   UNL     1       0.189   0.884  -0.273  0.00  0.00    +0.046 C 
ATOM     18  C   UNL     1       0.367  -0.580   0.038  0.00  0.00    -0.021 A 
ATOM     19  C   UNL     1       0.488  -1.495  -0.991  0.00  0.00    +0.043 A 
ATOM     20  C   UNL     1       0.652  -2.840  -0.705  0.00  0.00    +0.124 A 
ATOM     21  C   UNL     1       0.696  -3.266   0.612  0.00  0.00    +0.040 A 
ATOM     22  C   UNL     1       0.575  -2.350   1.639  0.00  0.00    +0.032 A 
ATOM     23  C   UNL     1       0.416  -1.006   1.352  0.00  0.00    +0.112 A 
ATOM     24  F   UNL     1       0.770  -3.735  -1.710  0.00  0.00    -0.205 F 
ENDBRANCH  14  23
ENDBRANCH   1  14
TORSDOF 4
