REMARK  Name = ZINC02705897
REMARK  7 active torsions:
REMARK  status: ('A' for Active; 'I' for Inactive)
REMARK    1  A    between atoms: C_1  and  C_2
REMARK    2  A    between atoms: C_5  and  C_8
REMARK    3  A    between atoms: N_9  and  N_10
REMARK    4  A    between atoms: C_11  and  C_13
REMARK    5  A    between atoms: C_13  and  S_14
REMARK    6  A    between atoms: S_14  and  C_15
REMARK    7  A    between atoms: N_25  and  C_26
REMARK                            x       y       z     vdW  Elec       q    Type
REMARK                         _______ _______ _______ _____ _____    ______ ____
ROOT
ATOM      1  C   UNL     1      -2.640  -3.281   0.508  0.00  0.00    +0.177 A 
ATOM      2  N   UNL     1      -3.646  -2.442   0.559  0.00  0.00    -0.223 NA
ATOM      3  C   UNL     1      -4.868  -2.777   0.100  0.00  0.00    +0.079 A 
ATOM      4  C   UNL     1      -5.940  -1.880   0.150  0.00  0.00    +0.028 A 
ATOM      5  C   UNL     1      -7.164  -2.262  -0.322  0.00  0.00    +0.002 A 
ATOM      6  C   UNL     1      -7.362  -3.531  -0.851  0.00  0.00    +0.001 A 
ATOM      7  C   UNL     1      -6.334  -4.431  -0.913  0.00  0.00    +0.015 A 
ATOM      8  C   UNL     1      -5.074  -4.067  -0.439  0.00  0.00    +0.065 A 
ATOM      9  C   UNL     1      -3.933  -4.992  -0.480  0.00  0.00    +0.267 A 
ATOM     10  O   UNL     1      -4.048  -6.116  -0.933  0.00  0.00    -0.267 OA
ATOM     11  N   UNL     1      -2.750  -4.547   0.004  0.00  0.00    -0.255 N 
ENDROOT
BRANCH  11  12
ATOM     12  C   UNL     1      -1.631  -5.390  -0.012  0.00  0.00    +0.052 A 
ATOM     13  C   UNL     1      -0.784  -5.400  -1.113  0.00  0.00    +0.027 A 
ATOM     14  C   UNL     1       0.322  -6.227  -1.124  0.00  0.00    +0.017 A 
ATOM     15  C   UNL     1       0.580  -7.053  -0.044  0.00  0.00    +0.018 A 
ATOM     16  C   UNL     1      -0.265  -7.049   1.051  0.00  0.00    +0.017 A 
ATOM     17  C   UNL     1      -1.369  -6.220   1.070  0.00  0.00    +0.027 A 
ATOM     18 BR   UNL     1       2.092  -8.190  -0.066  0.00  0.00    -0.050 Br
ENDBRANCH  11  12
BRANCH   1  19
ATOM     19  S   UNL     1      -1.076  -2.755   1.126  0.00  0.00    -0.078 S 
BRANCH  19  20
ATOM     20  C   UNL     1      -1.492  -1.072   1.645  0.00  0.00    +0.174 C 
BRANCH  20  22
ATOM     21  N   UNL     1      -0.342   0.859   2.678  0.00  0.00    -0.206 N 
ATOM     22  C   UNL     1      -0.269  -0.408   2.223  0.00  0.00    +0.242 C 
ATOM     23  O   UNL     1       0.781  -1.012   2.278  0.00  0.00    -0.273 OA
ATOM     24  H   UNL     1      -1.181   1.344   2.631  0.00  0.00    +0.177 HD
BRANCH  21  26
ATOM     25  C   UNL     1       0.724   2.696   3.654  0.00  0.00    +0.138 C 
ATOM     26  N   UNL     1       0.795   1.477   3.216  0.00  0.00    -0.188 NA
BRANCH  25  31
ATOM     27  C   UNL     1       5.391   5.231   5.862  0.00  0.00    +0.044 C 
ATOM     28  C   UNL     1       4.168   4.567   5.283  0.00  0.00    -0.050 A 
ATOM     29  C   UNL     1       2.973   5.260   5.221  0.00  0.00    +0.004 A 
ATOM     30  C   UNL     1       1.849   4.659   4.692  0.00  0.00    +0.010 A 
ATOM     31  C   UNL     1       1.921   3.346   4.220  0.00  0.00    -0.005 A 
ATOM     32  C   UNL     1       3.131   2.651   4.290  0.00  0.00    +0.010 A 
ATOM     33  C   UNL     1       4.247   3.267   4.817  0.00  0.00    +0.004 A 
ENDBRANCH  25  31
ENDBRANCH  21  26
ENDBRANCH  20  22
ENDBRANCH  19  20
ENDBRANCH   1  19
TORSDOF 6
