REMARK  Name = ZINC18271950
REMARK  6 active torsions:
REMARK  status: ('A' for Active; 'I' for Inactive)
REMARK    1  A    between atoms: C_1  and  C_3
REMARK    2  A    between atoms: C_1  and  N_7
REMARK    3  A    between atoms: C_1  and  O_18
REMARK    4  A    between atoms: N_10  and  C_11
REMARK    5  A    between atoms: C_11  and  C_13
REMARK    6  A    between atoms: C_11  and  O_17
REMARK                            x       y       z     vdW  Elec       q    Type
REMARK                         _______ _______ _______ _____ _____    ______ ____
ROOT
ATOM      1  N   UNL     1      -0.721   1.571  -1.179  0.00  0.00    -0.271 N 
ATOM      2  C   UNL     1      -1.638   0.789  -1.783  0.00  0.00    +0.304 C 
ATOM      3  O   UNL     1      -1.876  -0.319  -1.344  0.00  0.00    -0.253 OA
ATOM      4  N   UNL     1      -2.289   1.236  -2.875  0.00  0.00    -0.271 N 
ATOM      5  H   UNL     1      -0.531   2.455  -1.530  0.00  0.00    +0.153 HD
ATOM      6  H   UNL     1      -2.099   2.120  -3.226  0.00  0.00    +0.153 HD
ENDROOT
BRANCH   1   7
ATOM      7  C   UNL     1      -0.013   1.086   0.008  0.00  0.00    +0.255 C 
BRANCH   7   8
ATOM      8  C   UNL     1       1.423   1.615  -0.003  0.00  0.00    +0.232 C 
ATOM      9 CL   UNL     1       2.295   1.018   1.458  0.00  0.00    -0.079 Cl
ATOM     10 CL   UNL     1       2.267   1.034  -1.486  0.00  0.00    -0.079 Cl
ATOM     11 CL   UNL     1       1.398   3.418   0.007  0.00  0.00    -0.079 Cl
ENDBRANCH   7   8
BRANCH   7  12
ATOM     12  O   UNL     1      -0.682   1.547   1.184  0.00  0.00    -0.370 OA
ATOM     13  H   UNL     1      -0.732   2.510   1.256  0.00  0.00    +0.212 HD
ENDBRANCH   7  12
ENDBRANCH   1   7
BRANCH   4  14
ATOM     14  C   UNL     1      -3.286   0.386  -3.532  0.00  0.00    +0.255 C 
BRANCH  14  15
ATOM     15  C   UNL     1      -3.153   0.525  -5.050  0.00  0.00    +0.232 C 
ATOM     16 CL   UNL     1      -3.425   2.244  -5.522  0.00  0.00    -0.079 Cl
ATOM     17 CL   UNL     1      -1.500   0.017  -5.559  0.00  0.00    -0.079 Cl
ATOM     18 CL   UNL     1      -4.379  -0.521  -5.859  0.00  0.00    -0.079 Cl
ENDBRANCH  14  15
BRANCH  14  19
ATOM     19  O   UNL     1      -4.596   0.789  -3.129  0.00  0.00    -0.370 OA
ATOM     20  H   UNL     1      -4.811   1.705  -3.351  0.00  0.00    +0.212 HD
ENDBRANCH  14  19
ENDBRANCH   4  14
TORSDOF 6
