REMARK  Name = ZINC39686726
REMARK  13 active torsions:
REMARK  status: ('A' for Active; 'I' for Inactive)
REMARK    1  A    between atoms: C_1  and  C_2
REMARK    2  A    between atoms: C_2  and  C_4
REMARK    3  A    between atoms: C_2  and  N_13
REMARK    4  A    between atoms: C_4  and  C_5
REMARK    5  A    between atoms: C_10  and  O_11
REMARK    6  A    between atoms: O_11  and  C_12
REMARK    7  A    between atoms: C_14  and  C_16
REMARK    8  A    between atoms: C_27  and  C_29
REMARK    9  A    between atoms: C_29  and  C_31
REMARK   10  A    between atoms: C_29  and  O_34
REMARK   11  A    between atoms: C_31  and  C_32
REMARK   12  A    between atoms: C_31  and  C_33
REMARK   13  A    between atoms: O_34  and  C_35
REMARK                            x       y       z     vdW  Elec       q    Type
REMARK                         _______ _______ _______ _____ _____    ______ ____
ROOT
ATOM      1  C   UNL     1      -3.480  -1.143  -1.233  0.00  0.00    +0.100 C 
ATOM      2  C   UNL     1      -4.348  -0.262  -0.306  0.00  0.00    +0.121 C 
ATOM      3  N   UNL     1      -5.016   0.696  -1.219  0.00  0.00    -0.297 N 
ATOM      4  C   UNL     1      -5.362  -0.112  -2.413  0.00  0.00    +0.115 C 
ATOM      5  C   UNL     1      -4.151  -1.044  -2.613  0.00  0.00    -0.004 C 
ATOM      6  C   UNL     1      -4.617  -2.422  -3.074  0.00  0.00    -0.010 C 
ATOM      7  C   UNL     1      -5.228  -2.309  -4.473  0.00  0.00    -0.082 C 
ATOM      8  N   UNL     1      -4.228  -1.772  -5.404  0.00  0.00    +0.379 N 
ATOM      9  C   UNL     1      -3.854  -0.409  -5.006  0.00  0.00    -0.082 C 
ATOM     10  C   UNL     1      -3.185  -0.442  -3.629  0.00  0.00    -0.010 C 
ATOM     11  C   UNL     1      -5.256   2.006  -1.010  0.00  0.00    +0.257 C 
ATOM     12  O   UNL     1      -5.818   2.663  -1.860  0.00  0.00    -0.272 OA
ATOM     13  H   UNL     1      -3.408  -2.361  -5.392  0.00  0.00    -0.086 HD
ATOM     14  H   UNL     1      -4.612  -1.755  -6.336  0.00  0.00    -0.086 HD
ENDROOT
BRANCH   1  16
ATOM     15  N   UNL     1      -1.040  -1.455  -1.488  0.00  0.00    -0.312 N 
ATOM     16  C   UNL     1      -2.072  -0.610  -1.295  0.00  0.00    +0.218 C 
ATOM     17  O   UNL     1      -1.867   0.579  -1.172  0.00  0.00    -0.275 OA
ATOM     18  H   UNL     1      -1.204  -2.406  -1.587  0.00  0.00    +0.149 HD
BRANCH  15  20
ATOM     19  C   UNL     1       0.889  -0.810  -0.131  0.00  0.00    +0.028 C 
ATOM     20  C   UNL     1       0.329  -0.938  -1.549  0.00  0.00    +0.074 C 
BRANCH  20  21
ATOM     21  C   UNL     1       1.203  -1.899  -2.358  0.00  0.00    +0.060 C 
BRANCH  21  22
ATOM     22  C   UNL     1       0.725  -1.930  -3.787  0.00  0.00    -0.004 A 
ATOM     23  C   UNL     1      -0.163  -2.905  -4.198  0.00  0.00    +0.007 A 
ATOM     24  C   UNL     1      -0.602  -2.935  -5.508  0.00  0.00    +0.000 A 
ATOM     25  C   UNL     1      -0.153  -1.988  -6.411  0.00  0.00    +0.004 A 
ATOM     26  C   UNL     1       0.734  -1.011  -6.005  0.00  0.00    +0.046 A 
ATOM     27  C   UNL     1       1.171  -0.976  -4.689  0.00  0.00    +0.123 A 
BRANCH  27  28
ATOM     28  O   UNL     1       2.040  -0.011  -4.286  0.00  0.00    -0.495 OA
ATOM     29  C   UNL     1       2.457   0.938  -5.269  0.00  0.00    +0.277 C 
ENDBRANCH  27  28
ENDBRANCH  21  22
ENDBRANCH  20  21
ENDBRANCH  15  20
ENDBRANCH   1  16
BRANCH  11  30
ATOM     30  C   UNL     1      -4.824   2.655   0.280  0.00  0.00    +0.261 C 
BRANCH  30  31
ATOM     31  C   UNL     1      -5.607   2.045   1.445  0.00  0.00    +0.033 C 
ATOM     32  C   UNL     1      -5.170   2.703   2.754  0.00  0.00    +0.011 C 
ATOM     33  C   UNL     1      -7.104   2.280   1.231  0.00  0.00    +0.011 C 
ENDBRANCH  30  31
BRANCH  30  34
ATOM     34  O   UNL     1      -5.081   4.059   0.217  0.00  0.00    -0.479 OA
BRANCH  34  35
ATOM     35  C   UNL     1      -4.213   4.875   0.870  0.00  0.00    +0.122 A 
ATOM     36  C   UNL     1      -3.088   4.344   1.484  0.00  0.00    +0.045 A 
ATOM     37  C   UNL     1      -2.207   5.176   2.147  0.00  0.00    +0.004 A 
ATOM     38  C   UNL     1      -2.445   6.537   2.199  0.00  0.00    +0.000 A 
ATOM     39  C   UNL     1      -3.566   7.069   1.588  0.00  0.00    +0.004 A 
ATOM     40  C   UNL     1      -4.447   6.242   0.919  0.00  0.00    +0.045 A 
ENDBRANCH  34  35
ENDBRANCH  30  34
ENDBRANCH  11  30
TORSDOF 9
