REMARK  Name = ZINC31836697
REMARK  4 active torsions:
REMARK  status: ('A' for Active; 'I' for Inactive)
REMARK    1  A    between atoms: C_1  and  C_2
REMARK    2  A    between atoms: N_12  and  C_13
REMARK    3  A    between atoms: C_13  and  C_14
REMARK    4  A    between atoms: N_16  and  C_17
REMARK                            x       y       z     vdW  Elec       q    Type
REMARK                         _______ _______ _______ _____ _____    ______ ____
ROOT
ATOM      1  C   UNL     1       2.448   1.218  -0.078  0.00  0.00    +0.201 C 
ENDROOT
BRANCH   1  13
ATOM      2  C   UNL     1       2.685   4.428  -5.530  0.00  0.00    +0.044 C 
ATOM      3  C   UNL     1       2.879   3.875  -4.141  0.00  0.00    -0.047 A 
ATOM      4  C   UNL     1       2.644   2.536  -3.890  0.00  0.00    +0.005 A 
ATOM      5  C   UNL     1       2.824   2.027  -2.621  0.00  0.00    +0.027 A 
ATOM      6  C   UNL     1       3.244   2.857  -1.583  0.00  0.00    +0.074 A 
ATOM      7  C   UNL     1       3.472   4.203  -1.837  0.00  0.00    +0.153 A 
ATOM      8  C   UNL     1       3.292   4.707  -3.119  0.00  0.00    +0.051 A 
ATOM      9  O   UNL     1       3.871   5.058  -0.854  0.00  0.00    -0.423 OA
ATOM     10  C   UNL     1       4.211   4.480   0.319  0.00  0.00    +0.330 C 
ATOM     11  O   UNL     1       5.135   4.884   0.984  0.00  0.00    -0.249 OA
ATOM     12  C   UNL     1       3.369   3.297   0.753  0.00  0.00    +0.226 C 
ATOM     13  N   UNL     1       3.421   2.292  -0.317  0.00  0.00    -0.308 N 
ENDBRANCH   1  13
BRANCH   1  14
ATOM     14  C   UNL     1       1.051   1.775  -0.177  0.00  0.00    +0.235 C 
ATOM     15  O   UNL     1       0.883   2.951  -0.422  0.00  0.00    -0.274 OA
ATOM     16  N   UNL     1      -0.011   0.966   0.007  0.00  0.00    -0.284 N 
ATOM     17  H   UNL     1       0.138  -0.115   0.146  0.00  0.00    +0.155 HD
BRANCH  16  18
ATOM     18  C   UNL     1      -1.305   1.502   0.022  0.00  0.00    +0.036 A 
ATOM     19  C   UNL     1      -2.369   0.762  -0.478  0.00  0.00    +0.026 A 
ATOM     20  C   UNL     1      -3.646   1.289  -0.457  0.00  0.00    +0.043 A 
ATOM     21  C   UNL     1      -3.864   2.558   0.050  0.00  0.00    +0.159 A 
ATOM     22  C   UNL     1      -2.803   3.301   0.544  0.00  0.00    +0.160 A 
ATOM     23  C   UNL     1      -1.524   2.774   0.531  0.00  0.00    +0.064 A 
ATOM     24  F   UNL     1      -3.018   4.540   1.039  0.00  0.00    -0.202 F 
ATOM     25  F   UNL     1      -5.113   3.074   0.064  0.00  0.00    -0.202 F 
ENDBRANCH  16  18
ENDBRANCH   1  14
TORSDOF 3
