REMARK  Name = ZINC58929642
REMARK  4 active torsions:
REMARK  status: ('A' for Active; 'I' for Inactive)
REMARK    1  A    between atoms: C_3  and  C_8
REMARK    2  A    between atoms: C_10  and  C_29
REMARK    3  A    between atoms: C_11  and  N_28
REMARK    4  A    between atoms: C_18  and  C_21
REMARK                            x       y       z     vdW  Elec       q    Type
REMARK                         _______ _______ _______ _____ _____    ______ ____
ROOT
ATOM      1  C   UNL     1       3.672   2.183  -0.022  0.00  0.00    +0.101 C 
ATOM      2  C   UNL     1       4.471   1.829   1.200  0.00  0.00    +0.098 C 
ATOM      3  C   UNL     1       5.518   0.972   1.112  0.00  0.00    +0.198 C 
ATOM      4  O   UNL     1       5.865   0.418  -0.061  0.00  0.00    -0.445 OA
ATOM      5  C   UNL     1       5.486   0.988  -1.222  0.00  0.00    +0.115 C 
ATOM      6  C   UNL     1       4.450   1.841  -1.269  0.00  0.00    +0.046 C 
ATOM      7  C   UNL     1       4.059   2.441  -2.482  0.00  0.00    +0.164 C 
ATOM      8  O   UNL     1       3.109   3.198  -2.493  0.00  0.00    -0.292 OA
ATOM      9  C   UNL     1       4.798   2.164  -3.762  0.00  0.00    +0.088 C 
ATOM     10  C   UNL     1       6.253   1.815  -3.430  0.00  0.00    +0.034 C 
ATOM     11  C   UNL     1       6.255   0.634  -2.472  0.00  0.00    +0.083 C 
ENDROOT
BRANCH   1  14
ATOM     12  C   UNL     1      -0.017   1.378   0.010  0.00  0.00    +0.001 A 
ATOM     13  C   UNL     1       1.171   2.086   0.002  0.00  0.00    +0.004 A 
ATOM     14  C   UNL     1       2.378   1.411  -0.013  0.00  0.00    -0.034 A 
ATOM     15  C   UNL     1       2.397   0.029  -0.022  0.00  0.00    +0.020 A 
ATOM     16  C   UNL     1       1.210  -0.679  -0.014  0.00  0.00    +0.018 A 
ATOM     17  C   UNL     1       0.002  -0.004   0.002  0.00  0.00    +0.015 A 
ATOM     18 BR   UNL     1       1.236  -2.570  -0.025  0.00  0.00    -0.050 Br
ENDBRANCH   1  14
BRANCH  10  19
ATOM     19  C   UNL     1       6.987   1.449  -4.694  0.00  0.00    -0.043 A 
ATOM     20  C   UNL     1       6.553   0.384  -5.461  0.00  0.00    +0.005 A 
ATOM     21  C   UNL     1       7.226   0.048  -6.621  0.00  0.00    +0.020 A 
ATOM     22  C   UNL     1       8.335   0.777  -7.013  0.00  0.00    +0.041 A 
ATOM     23  C   UNL     1       8.769   1.842  -6.245  0.00  0.00    +0.020 A 
ATOM     24  C   UNL     1       8.091   2.181  -5.089  0.00  0.00    +0.005 A 
ATOM     25 CL   UNL     1       9.181   0.354  -8.469  0.00  0.00    -0.084 Cl
ENDBRANCH  10  19
BRANCH   3  26
ATOM     26  N   UNL     1       6.236   0.666   2.242  0.00  0.00    -0.328 N 
ATOM     27  H   UNL     1       5.992   1.061   3.093  0.00  0.00    +0.145 HD
ATOM     28  H   UNL     1       6.987   0.054   2.188  0.00  0.00    +0.145 HD
ENDBRANCH   3  26
BRANCH   2  29
ATOM     29  C   UNL     1       4.124   2.400   2.466  0.00  0.00    +0.101 C 
ATOM     30  N   UNL     1       3.849   2.853   3.471  0.00  0.00    -0.191 NA
ENDBRANCH   2  29
TORSDOF 4
