REMARK  Name = ZINC04853807
REMARK  3 active torsions:
REMARK  status: ('A' for Active; 'I' for Inactive)
REMARK    1  A    between atoms: C_4  and  S_7
REMARK    2  A    between atoms: S_7  and  N_10
REMARK    3  A    between atoms: C_18  and  C_20
REMARK                            x       y       z     vdW  Elec       q    Type
REMARK                         _______ _______ _______ _____ _____    ______ ____
ROOT
ATOM      1  N   UNL     1       2.756  -2.937  -0.707  0.00  0.00    -0.162 NA
ATOM      2  C   UNL     1       3.292  -4.300  -0.832  0.00  0.00    +0.132 C 
ATOM      3  C   UNL     1       3.796  -4.774   0.535  0.00  0.00    +0.138 C 
ATOM      4  N   UNL     1       2.789  -4.461   1.556  0.00  0.00    -0.348 N 
ATOM      5  C   UNL     1       2.685  -5.009   2.797  0.00  0.00    +0.086 A 
ATOM      6  C   UNL     1       1.627  -4.442   3.423  0.00  0.00    +0.019 A 
ATOM      7  C   UNL     1       1.058  -3.509   2.531  0.00  0.00    +0.025 A 
ATOM      8  C   UNL     1       1.782  -3.545   1.402  0.00  0.00    +0.042 A 
ATOM      9  C   UNL     1       1.569  -2.734   0.144  0.00  0.00    +0.159 C 
ENDROOT
BRANCH   9  10
ATOM     10  C   UNL     1       1.427  -1.275   0.490  0.00  0.00    +0.012 A 
ATOM     11  C   UNL     1       2.096  -0.755   1.583  0.00  0.00    +0.008 A 
ATOM     12  C   UNL     1       1.965   0.583   1.901  0.00  0.00    +0.000 A 
ATOM     13  C   UNL     1       1.167   1.405   1.127  0.00  0.00    +0.003 A 
ATOM     14  C   UNL     1       0.497   0.888   0.035  0.00  0.00    +0.039 A 
ATOM     15  C   UNL     1       0.626  -0.453  -0.285  0.00  0.00    +0.128 A 
ATOM     16  F   UNL     1      -0.028  -0.960  -1.353  0.00  0.00    -0.205 F 
ENDBRANCH   9  10
BRANCH   1  17
ATOM     17  S   UNL     1       3.464  -1.666  -1.498  0.00  0.00    +0.062 S 
ATOM     18  O   UNL     1       4.174  -2.218  -2.599  0.00  0.00    -0.153 OA
ATOM     19  O   UNL     1       2.458  -0.676  -1.660  0.00  0.00    -0.153 OA
BRANCH  17  23
ATOM     20  C   UNL     1       6.567   0.087   1.293  0.00  0.00    +0.000 A 
ATOM     21  C   UNL     1       6.864  -1.041   0.550  0.00  0.00    +0.002 A 
ATOM     22  C   UNL     1       5.916  -1.576  -0.302  0.00  0.00    +0.028 A 
ATOM     23  C   UNL     1       4.672  -0.984  -0.412  0.00  0.00    +0.106 A 
ATOM     24  C   UNL     1       4.377   0.147   0.326  0.00  0.00    +0.028 A 
ATOM     25  C   UNL     1       5.323   0.679   1.182  0.00  0.00    +0.002 A 
ENDBRANCH  17  23
ENDBRANCH   1  17
TORSDOF 3
