REMARK  Name = ZINC35870045
REMARK  5 active torsions:
REMARK  status: ('A' for Active; 'I' for Inactive)
REMARK    1  A    between atoms: C_1  and  C_2
REMARK    2  A    between atoms: C_2  and  C_4
REMARK    3  A    between atoms: C_2  and  N_10
REMARK    4  A    between atoms: C_11  and  C_13
REMARK    5  A    between atoms: N_26  and  C_29
REMARK                            x       y       z     vdW  Elec       q    Type
REMARK                         _______ _______ _______ _____ _____    ______ ____
ROOT
ATOM      1  C   UNL     1       0.780  -1.133   3.576  0.00  0.00    +0.098 C 
ATOM      2  C   UNL     1       1.942  -0.203   3.854  0.00  0.00    +0.051 C 
ATOM      3  C   UNL     1       1.499   1.079   4.496  0.00  0.00    -0.026 A 
ATOM      4  C   UNL     1       2.222   2.239   4.286  0.00  0.00    +0.005 A 
ATOM      5  C   UNL     1       1.824   3.423   4.876  0.00  0.00    +0.000 A 
ATOM      6  C   UNL     1       0.699   3.453   5.680  0.00  0.00    +0.002 A 
ATOM      7  C   UNL     1      -0.029   2.300   5.893  0.00  0.00    +0.023 A 
ATOM      8  C   UNL     1       0.368   1.107   5.299  0.00  0.00    +0.033 A 
ATOM      9  N   UNL     1      -0.371  -0.050   5.507  0.00  0.00    -0.329 N 
ATOM     10  C   UNL     1      -0.207  -1.251   4.705  0.00  0.00    +0.069 C 
ATOM     11  C   UNL     1       0.111  -2.424   5.633  0.00  0.00    -0.055 C 
ATOM     12  N   UNL     1      -0.942  -2.524   6.654  0.00  0.00    +0.384 N 
ATOM     13  C   UNL     1      -0.973  -1.313   7.483  0.00  0.00    -0.059 C 
ATOM     14  C   UNL     1      -1.345  -0.109   6.616  0.00  0.00    +0.087 C 
ATOM     15  H   UNL     1      -1.835  -2.640   6.200  0.00  0.00    -0.081 HD
ENDROOT
BRANCH  12  16
ATOM     16  C   UNL     1      -0.679  -3.689   7.509  0.00  0.00    -0.068 C 
ATOM     17  C   UNL     1      -0.739  -4.984   6.671  0.00  0.00    -0.015 C 
ATOM     18  C   UNL     1      -1.394  -6.019   7.619  0.00  0.00    -0.002 C 
ATOM     19  C   UNL     1      -2.458  -5.175   8.364  0.00  0.00    -0.002 C 
ATOM     20  C   UNL     1      -1.772  -3.811   8.585  0.00  0.00    -0.015 C 
ENDBRANCH  12  16
BRANCH   1  22
ATOM     21  N   UNL     1       0.711  -0.489   1.189  0.00  0.00    -0.308 N 
ATOM     22  C   UNL     1       0.051  -0.633   2.355  0.00  0.00    +0.219 C 
ATOM     23  O   UNL     1      -1.129  -0.361   2.423  0.00  0.00    -0.275 OA
ATOM     24  H   UNL     1       1.654  -0.707   1.135  0.00  0.00    +0.149 HD
BRANCH  21  26
ATOM     25  C   UNL     1      -0.019   1.526   0.010  0.00  0.00    +0.033 C 
ATOM     26  C   UNL     1       0.002  -0.004   0.002  0.00  0.00    +0.100 C 
BRANCH  26  27
ATOM     27  C   UNL     1       0.707  -0.490  -1.238  0.00  0.00    -0.027 A 
ATOM     28  C   UNL     1       2.089  -0.511  -1.284  0.00  0.00    +0.005 A 
ATOM     29  C   UNL     1       2.736  -0.957  -2.421  0.00  0.00    +0.000 A 
ATOM     30  C   UNL     1       2.002  -1.382  -3.512  0.00  0.00    +0.000 A 
ATOM     31  C   UNL     1       0.620  -1.362  -3.466  0.00  0.00    +0.000 A 
ATOM     32  C   UNL     1      -0.027  -0.920  -2.327  0.00  0.00    +0.005 A 
ENDBRANCH  26  27
ENDBRANCH  21  26
ENDBRANCH   1  22
TORSDOF 4
