REMARK  Name = ZINC58178562
REMARK  6 active torsions:
REMARK  status: ('A' for Active; 'I' for Inactive)
REMARK    1  A    between atoms: C_1  and  C_2
REMARK    2  A    between atoms: C_2  and  N_3
REMARK    3  A    between atoms: C_6  and  C_9
REMARK    4  A    between atoms: C_14  and  C_22
REMARK    5  A    between atoms: C_16  and  C_21
REMARK    6  A    between atoms: C_23  and  C_25
REMARK                            x       y       z     vdW  Elec       q    Type
REMARK                         _______ _______ _______ _____ _____    ______ ____
ROOT
ATOM      1  C   UNL     1       0.119  -1.600   5.443  0.00  0.00    +0.039 C 
ATOM      2  C   UNL     1       1.417  -1.885   5.712  0.00  0.00    +0.039 C 
ATOM      3  C   UNL     1       2.454  -1.858   4.616  0.00  0.00    +0.268 C 
ATOM      4  O   UNL     1       3.716  -1.447   5.140  0.00  0.00    -0.486 OA
ATOM      5  C   UNL     1       4.176  -2.065   6.253  0.00  0.00    +0.135 A 
ATOM      6  C   UNL     1       5.530  -2.303   6.427  0.00  0.00    -0.008 A 
ATOM      7  C   UNL     1       5.978  -2.932   7.573  0.00  0.00    +0.010 A 
ATOM      8  C   UNL     1       5.084  -3.331   8.554  0.00  0.00    -0.049 A 
ATOM      9  C   UNL     1       3.732  -3.104   8.397  0.00  0.00    +0.018 A 
ATOM     10  C   UNL     1       3.271  -2.472   7.246  0.00  0.00    +0.064 A 
ATOM     11  C   UNL     1       1.830  -2.209   7.035  0.00  0.00    +0.196 C 
ATOM     12  O   UNL     1       1.031  -2.273   7.953  0.00  0.00    -0.287 OA
ATOM     13  C   UNL     1       5.591  -4.014   9.798  0.00  0.00    +0.044 C 
ATOM     14  C   UNL     1       6.513  -1.875   5.368  0.00  0.00    +0.047 C 
ENDROOT
BRANCH   1  18
ATOM     15  N   UNL     1       0.722  -1.764   0.609  0.00  0.00    -0.251 N 
ATOM     16  C   UNL     1       0.058  -1.556   1.810  0.00  0.00    +0.168 A 
ATOM     17  N   UNL     1       0.503  -1.709   3.040  0.00  0.00    -0.225 NA
ATOM     18  C   UNL     1      -0.325  -1.446   4.056  0.00  0.00    +0.074 A 
ATOM     19  C   UNL     1      -1.608  -1.024   3.768  0.00  0.00    +0.076 A 
ATOM     20  S   UNL     1      -1.616  -1.003   2.085  0.00  0.00    -0.060 S 
ATOM     21  C   UNL     1       2.001  -2.188   0.611  0.00  0.00    +0.218 C 
ATOM     22  O   UNL     1       2.540  -2.486   1.656  0.00  0.00    -0.276 OA
ATOM     23  C   UNL     1       2.763  -2.291  -0.685  0.00  0.00    +0.110 C 
BRANCH  15  25
ATOM     24  C   UNL     1       0.351  -0.111  -1.155  0.00  0.00    +0.025 C 
ATOM     25  C   UNL     1       0.032  -1.523  -0.661  0.00  0.00    +0.112 C 
ENDBRANCH  15  25
ENDBRANCH   1  18
TORSDOF 2
