REMARK  Name = ZINC36946053
REMARK  2 active torsions:
REMARK  status: ('A' for Active; 'I' for Inactive)
REMARK    1  A    between atoms: C_2  and  C_8
REMARK    2  A    between atoms: C_8  and  C_10
REMARK                            x       y       z     vdW  Elec       q    Type
REMARK                         _______ _______ _______ _____ _____    ______ ____
ROOT
ATOM      1  C   UNL     1       2.487   4.333  -0.030  0.00  0.00    +0.044 A 
ATOM      2  C   UNL     1       3.729   3.692  -0.119  0.00  0.00    +0.062 A 
ATOM      3  C   UNL     1       4.883   4.446  -0.154  0.00  0.00    +0.163 A 
ATOM      4  C   UNL     1       4.816   5.835  -0.102  0.00  0.00    +0.163 A 
ATOM      5  C   UNL     1       3.588   6.474  -0.014  0.00  0.00    +0.070 A 
ATOM      6  C   UNL     1       2.426   5.730   0.017  0.00  0.00    +0.055 A 
ATOM      7 CL   UNL     1       0.888   6.528   0.120  0.00  0.00    -0.083 Cl
ATOM      8  O   UNL     1       5.967   6.565  -0.138  0.00  0.00    -0.488 OA
ATOM      9  C   UNL     1       6.813   6.456   1.008  0.00  0.00    +0.232 C 
ATOM     10  C   UNL     1       7.717   5.239   0.899  0.00  0.00    +0.082 C 
ATOM     11  C   UNL     1       6.936   3.934   0.912  0.00  0.00    +0.232 C 
ATOM     12  O   UNL     1       6.100   3.833  -0.243  0.00  0.00    -0.488 OA
ENDROOT
BRANCH   1  13
ATOM     13  C   UNL     1       1.247   3.538   0.009  0.00  0.00    +0.196 C 
ATOM     14  O   UNL     1       0.820   3.027  -1.009  0.00  0.00    -0.287 OA
BRANCH  13  16
ATOM     15  C   UNL     1       1.060   3.846   2.483  0.00  0.00    +0.030 A 
ATOM     16  C   UNL     1       0.521   3.361   1.284  0.00  0.00    +0.041 A 
ATOM     17  C   UNL     1      -0.712   2.707   1.315  0.00  0.00    +0.122 A 
ATOM     18  N   UNL     1      -1.359   2.550   2.451  0.00  0.00    -0.261 NA
ATOM     19  C   UNL     1      -0.877   2.996   3.595  0.00  0.00    +0.126 A 
ATOM     20  C   UNL     1       0.340   3.654   3.650  0.00  0.00    +0.037 A 
ATOM     21 BR   UNL     1       1.012   4.285   5.301  0.00  0.00    -0.049 Br
ENDBRANCH  13  16
ENDBRANCH   1  13
TORSDOF 2
