REMARK  Name = ZINC22108975
REMARK  11 active torsions:
REMARK  status: ('A' for Active; 'I' for Inactive)
REMARK    1  A    between atoms: C_4  and  C_7
REMARK    2  A    between atoms: C_7  and  O_8
REMARK    3  A    between atoms: O_8  and  C_9
REMARK    4  A    between atoms: C_14  and  C_15
REMARK    5  A    between atoms: C_15  and  N_16
REMARK    6  A    between atoms: N_16  and  C_17
REMARK    7  A    between atoms: C_17  and  C_18
REMARK    8  A    between atoms: C_18  and  C_19
REMARK    9  A    between atoms: C_19  and  S_20
REMARK   10  A    between atoms: S_20  and  C_21
REMARK   11  A    between atoms: N_25  and  C_26
REMARK                            x       y       z     vdW  Elec       q    Type
REMARK                         _______ _______ _______ _____ _____    ______ ____
ROOT
ATOM      1  N   UNL     1      -3.085   3.903   1.415  0.00  0.00    +0.382 N 
ATOM      2  H   UNL     1      -3.240   2.872   1.766  0.00  0.00    -0.085 HD
ATOM      3  H   UNL     1      -2.370   4.412   2.078  0.00  0.00    -0.085 HD
ENDROOT
BRANCH   1   4
ATOM      4  C   UNL     1      -2.553   3.879   0.046  0.00  0.00    -0.043 C 
BRANCH   4  10
ATOM      5  C   UNL     1      -1.223   1.754   0.017  0.00  0.00    +0.122 A 
ATOM      6  C   UNL     1      -0.013   1.076   0.008  0.00  0.00    +0.047 A 
ATOM      7  C   UNL     1       1.174   1.783   0.000  0.00  0.00    +0.023 A 
ATOM      8  C   UNL     1       1.156   3.167   0.008  0.00  0.00    +0.041 A 
ATOM      9  C   UNL     1      -0.051   3.844   0.023  0.00  0.00    +0.025 A 
ATOM     10  C   UNL     1      -1.239   3.140   0.030  0.00  0.00    -0.021 A 
ATOM     11 CL   UNL     1       2.648   4.053  -0.002  0.00  0.00    -0.084 Cl
BRANCH   5  12
ATOM     12  O   UNL     1      -2.392   1.059   0.019  0.00  0.00    -0.487 OA
BRANCH  12  13
ATOM     13  C   UNL     1      -2.299  -0.367   0.011  0.00  0.00    +0.264 C 
BRANCH  13  17
ATOM     14  C   UNL     1      -6.226  -2.049   0.020  0.00  0.00    +0.000 A 
ATOM     15  C   UNL     1      -5.596  -1.770  -1.178  0.00  0.00    +0.000 A 
ATOM     16  C   UNL     1      -4.325  -1.226  -1.181  0.00  0.00    +0.007 A 
ATOM     17  C   UNL     1      -3.684  -0.960   0.014  0.00  0.00    -0.010 A 
ATOM     18  C   UNL     1      -4.312  -1.244   1.213  0.00  0.00    +0.007 A 
ATOM     19  C   UNL     1      -5.585  -1.783   1.216  0.00  0.00    +0.000 A 
ENDBRANCH  13  17
ENDBRANCH  12  13
ENDBRANCH   5  12
ENDBRANCH   4  10
ENDBRANCH   1   4
BRANCH   1  20
ATOM     20  C   UNL     1      -4.368   4.616   1.470  0.00  0.00    -0.081 C 
BRANCH  20  21
ATOM     21  C   UNL     1      -4.889   4.620   2.908  0.00  0.00    -0.008 C 
BRANCH  21  22
ATOM     22  C   UNL     1      -6.225   5.363   2.964  0.00  0.00    +0.075 C 
BRANCH  22  23
ATOM     23  S   UNL     1      -6.842   5.367   4.666  0.00  0.00    -0.084 S 
BRANCH  23  24
ATOM     24  C   UNL     1      -8.345   6.260   4.445  0.00  0.00    +0.214 A 
ATOM     25  N   UNL     1      -8.805   6.749   3.313  0.00  0.00    -0.101 NA
ATOM     26  N   UNL     1      -9.927   7.343   3.503  0.00  0.00    -0.022 NA
ATOM     27  N   UNL     1     -10.263   7.282   4.746  0.00  0.00    -0.038 NA
ATOM     28  N   UNL     1      -9.248   6.570   5.408  0.00  0.00    -0.187 N 
BRANCH  28  29
ATOM     29  C   UNL     1      -9.184   6.249   6.772  0.00  0.00    +0.070 A 
ATOM     30  C   UNL     1      -8.629   5.043   7.177  0.00  0.00    +0.028 A 
ATOM     31  C   UNL     1      -8.562   4.732   8.521  0.00  0.00    +0.002 A 
ATOM     32  C   UNL     1      -9.056   5.617   9.462  0.00  0.00    +0.000 A 
ATOM     33  C   UNL     1      -9.613   6.817   9.061  0.00  0.00    +0.002 A 
ATOM     34  C   UNL     1      -9.678   7.135   7.719  0.00  0.00    +0.028 A 
ENDBRANCH  28  29
ENDBRANCH  23  24
ENDBRANCH  22  23
ENDBRANCH  21  22
ENDBRANCH  20  21
ENDBRANCH   1  20
TORSDOF 11
