REMARK  Name = ZINC55175160
REMARK  3 active torsions:
REMARK  status: ('A' for Active; 'I' for Inactive)
REMARK    1  A    between atoms: C_4  and  C_7
REMARK    2  A    between atoms: C_12  and  C_16
REMARK    3  A    between atoms: C_16  and  O_26
REMARK                            x       y       z     vdW  Elec       q    Type
REMARK                         _______ _______ _______ _____ _____    ______ ____
ROOT
ATOM      1  C   UNL     1       3.691  -0.678  -0.038  0.00  0.00    +0.015 C 
ATOM      2  C   UNL     1       3.716  -2.028   0.056  0.00  0.00    -0.004 C 
ATOM      3  C   UNL     1       2.413  -2.776   0.057  0.00  0.00    +0.039 C 
ATOM      4  C   UNL     1       2.654  -4.249  -0.276  0.00  0.00    +0.006 C 
ATOM      5  C   UNL     1       3.756  -4.790   0.642  0.00  0.00    +0.015 C 
ATOM      6  C   UNL     1       5.091  -4.166   0.232  0.00  0.00    +0.105 C 
ATOM      7  C   UNL     1       4.957  -2.672   0.144  0.00  0.00    +0.166 C 
ATOM      8  O   UNL     1       5.965  -1.995   0.155  0.00  0.00    -0.292 OA
ENDROOT
BRANCH   6   9
ATOM      9  C   UNL     1       6.157  -4.521   1.269  0.00  0.00    +0.178 C 
ATOM     10  C   UNL     1       7.428  -3.744   1.010  0.00  0.00    +0.015 A 
ATOM     11  C   UNL     1       8.299  -3.702  -0.055  0.00  0.00    +0.009 A 
ATOM     12  C   UNL     1       9.406  -2.873  -0.008  0.00  0.00    +0.000 A 
ATOM     13  C   UNL     1       9.634  -2.091   1.110  0.00  0.00    +0.002 A 
ATOM     14  C   UNL     1       8.763  -2.132   2.178  0.00  0.00    +0.024 A 
ATOM     15  C   UNL     1       7.645  -2.963   2.139  0.00  0.00    +0.040 A 
ATOM     16  N   UNL     1       6.634  -3.178   3.076  0.00  0.00    -0.282 N 
ATOM     17  C   UNL     1       5.726  -4.071   2.649  0.00  0.00    +0.254 C 
ATOM     18  O   UNL     1       4.744  -4.447   3.255  0.00  0.00    -0.272 OA
ATOM     19  H   UNL     1       6.591  -2.733   3.937  0.00  0.00    +0.155 HD
BRANCH   9  20
ATOM     20  O   UNL     1       6.416  -5.926   1.259  0.00  0.00    -0.374 OA
ATOM     21  H   UNL     1       7.085  -6.208   1.898  0.00  0.00    +0.211 HD
ENDBRANCH   9  20
ENDBRANCH   6   9
BRANCH   1  25
ATOM     22  C   UNL     1      -0.008   1.389   0.132  0.00  0.00    +0.000 A 
ATOM     23  C   UNL     1       0.216   0.310   0.969  0.00  0.00    +0.001 A 
ATOM     24  C   UNL     1       1.416  -0.368   0.920  0.00  0.00    +0.008 A 
ATOM     25  C   UNL     1       2.408   0.038   0.021  0.00  0.00    -0.025 A 
ATOM     26  C   UNL     1       2.173   1.130  -0.823  0.00  0.00    +0.008 A 
ATOM     27  C   UNL     1       0.968   1.797  -0.760  0.00  0.00    +0.001 A 
ENDBRANCH   1  25
TORSDOF 3
