REMARK  Name = ZINC11907438
REMARK  6 active torsions:
REMARK  status: ('A' for Active; 'I' for Inactive)
REMARK    1  A    between atoms: C_1  and  C_2
REMARK    2  A    between atoms: C_4  and  S_12
REMARK    3  A    between atoms: S_12  and  C_13
REMARK    4  A    between atoms: C_13  and  C_15
REMARK    5  A    between atoms: C_13  and  C_16
REMARK    6  A    between atoms: C_21  and  C_24
REMARK                            x       y       z     vdW  Elec       q    Type
REMARK                         _______ _______ _______ _____ _____    ______ ____
ROOT
ATOM      1  S   UNL     1       1.232  -2.448  -0.022  0.00  0.00    -0.093 S 
ENDROOT
BRANCH   1   5
ATOM      2  C   UNL     1      -1.321   2.113   0.020  0.00  0.00    +0.044 C 
ATOM      3  C   UNL     1      -0.016   1.358   0.009  0.00  0.00    -0.039 A 
ATOM      4  C   UNL     1       0.002  -0.004   0.002  0.00  0.00    +0.038 A 
ATOM      5  C   UNL     1       1.228  -0.686  -0.013  0.00  0.00    +0.099 A 
ATOM      6  N   UNL     1       2.376  -0.040  -0.021  0.00  0.00    -0.240 NA
ATOM      7  C   UNL     1       2.420   1.297  -0.014  0.00  0.00    +0.072 A 
ATOM      8  C   UNL     1       1.216   2.043   0.001  0.00  0.00    +0.003 A 
ATOM      9  C   UNL     1       1.269   3.446   0.009  0.00  0.00    +0.010 A 
ATOM     10  C   UNL     1       2.478   4.074   0.001  0.00  0.00    +0.001 A 
ATOM     11  C   UNL     1       3.663   3.342  -0.014  0.00  0.00    +0.002 A 
ATOM     12  C   UNL     1       3.648   1.981  -0.021  0.00  0.00    +0.028 A 
ENDBRANCH   1   5
BRANCH   1  13
ATOM     13  C   UNL     1       3.015  -2.758  -0.041  0.00  0.00    +0.136 C 
ATOM     14  C   UNL     1       3.635  -2.252   1.263  0.00  0.00    +0.029 C 
BRANCH  13  15
ATOM     15  C   UNL     1       3.266  -4.238  -0.175  0.00  0.00    +0.232 C 
ATOM     16  O   UNL     1       2.392  -5.030   0.109  0.00  0.00    -0.274 OA
ATOM     17  N   UNL     1       4.462  -4.682  -0.610  0.00  0.00    -0.264 N 
ATOM     18  C   UNL     1       4.694  -6.047  -0.734  0.00  0.00    +0.165 A 
ATOM     19  N   UNL     1       5.782  -6.669  -1.142  0.00  0.00    -0.230 NA
ATOM     20  C   UNL     1       5.838  -7.985  -1.196  0.00  0.00    +0.047 A 
ATOM     21  C   UNL     1       4.741  -8.694  -0.831  0.00  0.00    +0.071 A 
ATOM     22  S   UNL     1       3.621  -7.370  -0.397  0.00  0.00    -0.060 S 
ATOM     23  C   UNL     1       7.089  -8.686  -1.658  0.00  0.00    +0.066 C 
ATOM     24  H   UNL     1       5.161  -4.049  -0.837  0.00  0.00    +0.157 HD
ENDBRANCH  13  15
ENDBRANCH   1  13
TORSDOF 3
