REMARK  Name = ZINC38545551
REMARK  12 active torsions:
REMARK  status: ('A' for Active; 'I' for Inactive)
REMARK    1  A    between atoms: C_1  and  C_2
REMARK    2  A    between atoms: C_2  and  C_3
REMARK    3  A    between atoms: C_2  and  C_4
REMARK    4  A    between atoms: C_2  and  O_5
REMARK    5  A    between atoms: O_5  and  C_6
REMARK    6  A    between atoms: N_8  and  C_9
REMARK    7  A    between atoms: C_9  and  C_11
REMARK    8  A    between atoms: C_9  and  C_21
REMARK    9  A    between atoms: C_11  and  C_12
REMARK   10  A    between atoms: C_25  and  S_28
REMARK   11  A    between atoms: S_28  and  C_29
REMARK   12  A    between atoms: C_29  and  C_30
REMARK                            x       y       z     vdW  Elec       q    Type
REMARK                         _______ _______ _______ _____ _____    ______ ____
ROOT
ATOM      1  C   UNL     1       4.196   0.043  -2.415  0.00  0.00    +0.133 C 
ENDROOT
BRANCH   1   2
ATOM      2  C   UNL     1       5.163  -0.731  -1.517  0.00  0.00    +0.280 C 
ATOM      3  N   UNL     1       4.669  -0.750  -0.134  0.00  0.00    -0.155 NA
ATOM      4  N   UNL     1       4.780  -1.888   0.341  0.00  0.00    -0.146 NA
ATOM      5  C   UNL     1       5.365  -2.796  -0.654  0.00  0.00    +0.319 C 
ATOM      6  O   UNL     1       5.221  -2.115  -1.920  0.00  0.00    -0.316 OA
BRANCH   5   7
ATOM      7  S   UNL     1       4.463  -4.370  -0.677  0.00  0.00    -0.100 S 
BRANCH   7   8
ATOM      8  C   UNL     1       2.792  -3.911  -1.211  0.00  0.00    +0.108 C 
BRANCH   8   9
ATOM      9  C   UNL     1       1.896  -5.122  -1.155  0.00  0.00    -0.036 A 
ATOM     10  C   UNL     1       1.779  -5.946  -2.259  0.00  0.00    +0.004 A 
ATOM     11  C   UNL     1       0.957  -7.057  -2.208  0.00  0.00    +0.002 A 
ATOM     12  C   UNL     1       0.253  -7.343  -1.053  0.00  0.00    +0.020 A 
ATOM     13  C   UNL     1       0.370  -6.519   0.051  0.00  0.00    +0.041 A 
ATOM     14  C   UNL     1       1.197  -5.410   0.002  0.00  0.00    +0.024 A 
ATOM     15 CL   UNL     1      -0.514  -6.878   1.501  0.00  0.00    -0.084 Cl
ENDBRANCH   8   9
ENDBRANCH   7   8
ENDBRANCH   5   7
ENDBRANCH   1   2
BRANCH   1  18
ATOM     16  C   UNL     1       2.205  -1.011  -3.343  0.00  0.00    +0.401 C 
ATOM     17  O   UNL     1       2.709  -0.928  -4.446  0.00  0.00    -0.226 OA
ATOM     18  N   UNL     1       2.846  -0.509  -2.269  0.00  0.00    -0.274 N 
ATOM     19  H   UNL     1       2.415  -0.513  -1.401  0.00  0.00    +0.152 HD
BRANCH  16  20
ATOM     20  O   UNL     1       1.005  -1.603  -3.194  0.00  0.00    -0.445 OA
BRANCH  20  22
ATOM     21  C   UNL     1       1.288  -3.174  -5.009  0.00  0.00    +0.055 C 
ATOM     22  C   UNL     1       0.383  -2.116  -4.374  0.00  0.00    +0.107 C 
ATOM     23  C   UNL     1       0.158  -0.975  -5.368  0.00  0.00    +0.055 C 
ATOM     24  C   UNL     1      -0.962  -2.747  -4.009  0.00  0.00    +0.055 C 
ENDBRANCH  20  22
ENDBRANCH  16  20
ENDBRANCH   1  18
BRANCH   1  25
ATOM     25  C   UNL     1       4.190   1.518  -2.006  0.00  0.00    +0.064 C 
BRANCH  25  26
ATOM     26  C   UNL     1       3.333   2.302  -2.967  0.00  0.00    -0.020 A 
ATOM     27  C   UNL     1       1.880   2.477  -2.895  0.00  0.00    +0.003 A 
ATOM     28  C   UNL     1       0.892   2.033  -2.014  0.00  0.00    +0.010 A 
ATOM     29  C   UNL     1      -0.412   2.380  -2.228  0.00  0.00    +0.001 A 
ATOM     30  C   UNL     1      -0.763   3.170  -3.314  0.00  0.00    +0.002 A 
ATOM     31  C   UNL     1       0.197   3.619  -4.195  0.00  0.00    +0.026 A 
ATOM     32  C   UNL     1       1.530   3.279  -3.997  0.00  0.00    +0.047 A 
ATOM     33  N   UNL     1       2.693   3.562  -4.678  0.00  0.00    -0.360 N 
ATOM     34  C   UNL     1       3.757   2.976  -4.047  0.00  0.00    +0.087 A 
ATOM     35  H   UNL     1       2.750   4.099  -5.484  0.00  0.00    +0.165 HD
ENDBRANCH  25  26
ENDBRANCH   1  25
TORSDOF 9
