REMARK  Name = ZINC11972297
REMARK  8 active torsions:
REMARK  status: ('A' for Active; 'I' for Inactive)
REMARK    1  A    between atoms: C_1  and  C_2
REMARK    2  A    between atoms: C_2  and  C_26
REMARK    3  A    between atoms: N_5  and  N_9
REMARK    4  A    between atoms: C_10  and  C_12
REMARK    5  A    between atoms: C_12  and  S_13
REMARK    6  A    between atoms: S_13  and  C_14
REMARK    7  A    between atoms: C_29  and  O_32
REMARK    8  A    between atoms: O_32  and  C_33
REMARK                            x       y       z     vdW  Elec       q    Type
REMARK                         _______ _______ _______ _____ _____    ______ ____
ROOT
ATOM      1  N   UNL     1       8.486  -1.333  -0.082  0.00  0.00    -0.223 N 
ATOM      2  C   UNL     1       7.149  -1.503  -0.071  0.00  0.00    +0.240 C 
ATOM      3  O   UNL     1       6.680  -2.621  -0.074  0.00  0.00    -0.273 OA
ATOM      4  H   UNL     1       8.861  -0.439  -0.081  0.00  0.00    +0.174 HD
ENDROOT
BRANCH   1   9
ATOM      5  C   UNL     1      10.355  -5.328  -1.524  0.00  0.00    +0.047 C 
ATOM      6  C   UNL     1      10.787  -4.093  -0.731  0.00  0.00    +0.137 C 
ATOM      7  C   UNL     1      10.012  -2.871  -1.182  0.00  0.00    +0.267 C 
ATOM      8  O   UNL     1      10.003  -2.376  -2.289  0.00  0.00    -0.271 OA
ATOM      9  N   UNL     1       9.334  -2.449  -0.096  0.00  0.00    -0.137 N 
ATOM     10  C   UNL     1       9.574  -3.223   0.968  0.00  0.00    +0.327 C 
ATOM     11  O   UNL     1       9.080  -3.040   2.063  0.00  0.00    -0.251 OA
ATOM     12  N   UNL     1      10.422  -4.230   0.689  0.00  0.00    -0.280 N 
ATOM     13  H   UNL     1      10.735  -4.912   1.305  0.00  0.00    +0.152 HD
BRANCH   6  14
ATOM     14  C   UNL     1      12.270  -3.864  -0.877  0.00  0.00    -0.015 A 
ATOM     15  C   UNL     1      12.744  -3.029  -1.872  0.00  0.00    +0.010 A 
ATOM     16  C   UNL     1      14.102  -2.813  -2.005  0.00  0.00    +0.046 A 
ATOM     17  C   UNL     1      14.991  -3.443  -1.145  0.00  0.00    +0.120 A 
ATOM     18  C   UNL     1      14.512  -4.284  -0.151  0.00  0.00    +0.046 A 
ATOM     19  C   UNL     1      13.153  -4.493  -0.019  0.00  0.00    +0.010 A 
BRANCH  17  20
ATOM     20  O   UNL     1      16.328  -3.236  -1.277  0.00  0.00    -0.495 OA
ATOM     21  C   UNL     1      16.748  -2.358  -2.322  0.00  0.00    +0.277 C 
ENDBRANCH  17  20
ENDBRANCH   6  14
ENDBRANCH   1   9
BRANCH   2  22
ATOM     22  C   UNL     1       6.237  -0.303  -0.057  0.00  0.00    +0.173 C 
BRANCH  22  23
ATOM     23  S   UNL     1       4.514  -0.856  -0.044  0.00  0.00    -0.096 S 
BRANCH  23  24
ATOM     24  C   UNL     1       3.693   0.704  -0.028  0.00  0.00    +0.109 A 
ATOM     25  C   UNL     1       2.272   0.772  -0.015  0.00  0.00    +0.043 A 
ATOM     26  C   UNL     1       1.303  -0.336  -0.014  0.00  0.00    -0.025 A 
ATOM     27  C   UNL     1       0.002  -0.004   0.002  0.00  0.00    -0.004 A 
ATOM     28  S   UNL     1      -0.022   1.774   0.012  0.00  0.00    -0.073 S 
ATOM     29  C   UNL     1       1.726   2.068  -0.003  0.00  0.00    +0.113 A 
ATOM     30  N   UNL     1       2.494   3.140  -0.004  0.00  0.00    -0.228 NA
ATOM     31  C   UNL     1       3.808   3.016  -0.017  0.00  0.00    +0.223 A 
ATOM     32  N   UNL     1       4.389   1.830  -0.028  0.00  0.00    -0.229 NA
ATOM     33  C   UNL     1      -0.893  -1.214   0.007  0.00  0.00    +0.043 C 
ATOM     34  C   UNL     1       0.031  -2.378   0.430  0.00  0.00    +0.010 C 
ATOM     35  C   UNL     1       1.410  -1.863  -0.026  0.00  0.00    +0.037 C 
ENDBRANCH  23  24
ENDBRANCH  22  23
ENDBRANCH   2  22
TORSDOF 6
