REMARK  Name = ZINC20821143
REMARK  11 active torsions:
REMARK  status: ('A' for Active; 'I' for Inactive)
REMARK    1  A    between atoms: C_1  and  C_2
REMARK    2  A    between atoms: C_2  and  C_3
REMARK    3  A    between atoms: C_3  and  C_4
REMARK    4  A    between atoms: C_4  and  N_5
REMARK    5  A    between atoms: C_9  and  S_29
REMARK    6  A    between atoms: C_13  and  C_14
REMARK    7  A    between atoms: C_14  and  O_15
REMARK    8  A    between atoms: O_15  and  C_16
REMARK    9  A    between atoms: C_16  and  C_18
REMARK   10  A    between atoms: C_18  and  C_19
REMARK   11  A    between atoms: S_29  and  N_32
REMARK                            x       y       z     vdW  Elec       q    Type
REMARK                         _______ _______ _______ _____ _____    ______ ____
ROOT
ATOM      1  N   UNL     1       4.154   2.536  -1.139  0.00  0.00    -0.325 N 
ATOM      2  C   UNL     1       5.187   3.354  -0.726  0.00  0.00    +0.069 A 
ATOM      3  C   UNL     1       6.140   4.116  -1.387  0.00  0.00    +0.030 A 
ATOM      4  C   UNL     1       7.064   4.835  -0.660  0.00  0.00    +0.030 A 
ATOM      5  C   UNL     1       7.046   4.802   0.728  0.00  0.00    +0.107 A 
ATOM      6  C   UNL     1       6.115   4.059   1.395  0.00  0.00    +0.058 A 
ATOM      7  C   UNL     1       5.169   3.321   0.679  0.00  0.00    +0.091 A 
ATOM      8  N   UNL     1       4.145   2.507   1.042  0.00  0.00    -0.229 NA
ATOM      9  C   UNL     1       3.550   2.051  -0.021  0.00  0.00    +0.149 A 
ENDROOT
BRANCH   5  10
ATOM     10  S   UNL     1       8.237   5.730   1.637  0.00  0.00    +0.056 S 
ATOM     11  O   UNL     1       8.355   5.104   2.907  0.00  0.00    -0.153 OA
ATOM     12  O   UNL     1       9.350   5.919   0.774  0.00  0.00    -0.153 OA
BRANCH  10  13
ATOM     13  N   UNL     1       7.587   7.229   1.907  0.00  0.00    -0.204 NA
ATOM     14  H   UNL     1       8.303   7.842   2.474  0.00  0.00    +0.144 HD
ATOM     15  H   UNL     1       6.655   7.127   2.482  0.00  0.00    +0.144 HD
ENDBRANCH  10  13
ENDBRANCH   5  10
BRANCH   1  16
ATOM     16  C   UNL     1       3.776   2.247  -2.525  0.00  0.00    +0.123 C 
BRANCH  16  17
ATOM     17  C   UNL     1       2.751   3.279  -3.000  0.00  0.00    +0.021 C 
BRANCH  17  19
ATOM     18  C   UNL     1       1.331   4.008  -4.922  0.00  0.00    +0.004 C 
ATOM     19  C   UNL     1       2.357   2.977  -4.447  0.00  0.00    -0.002 C 
ENDBRANCH  17  19
ENDBRANCH  16  17
ENDBRANCH   1  16
BRANCH   9  20
ATOM     20  C   UNL     1       2.367   1.117  -0.015  0.00  0.00    +0.306 C 
BRANCH  20  21
ATOM     21  O   UNL     1       1.139   1.891   0.001  0.00  0.00    -0.457 OA
BRANCH  21  22
ATOM     22  C   UNL     1      -0.014   1.204   0.009  0.00  0.00    +0.312 C 
ATOM     23  O   UNL     1       0.002  -0.004   0.002  0.00  0.00    -0.250 OA
BRANCH  22  24
ATOM     24  C   UNL     1      -1.329   1.940   0.019  0.00  0.00    +0.156 C 
BRANCH  24  25
ATOM     25  C   UNL     1      -2.462   0.945   0.019  0.00  0.00    -0.029 A 
ATOM     26  C   UNL     1      -3.049   0.577  -1.153  0.00  0.00    +0.005 A 
ATOM     27  C   UNL     1      -4.096  -0.342  -1.173  0.00  0.00    +0.001 A 
ATOM     28  C   UNL     1      -4.563  -0.897  -0.021  0.00  0.00    +0.008 A 
ATOM     29  C   UNL     1      -3.982  -0.542   1.208  0.00  0.00    -0.018 A 
ATOM     30  C   UNL     1      -2.913   0.388   1.228  0.00  0.00    -0.014 A 
ATOM     31  C   UNL     1      -2.334   0.747   2.457  0.00  0.00    +0.009 A 
ATOM     32  C   UNL     1      -2.801   0.192   3.608  0.00  0.00    +0.001 A 
ATOM     33  C   UNL     1      -3.849  -0.726   3.589  0.00  0.00    +0.001 A 
ATOM     34  C   UNL     1      -4.437  -1.094   2.417  0.00  0.00    +0.008 A 
ENDBRANCH  24  25
ENDBRANCH  22  24
ENDBRANCH  21  22
ENDBRANCH  20  21
ENDBRANCH   9  20
TORSDOF 10
