REMARK  Name = ZINC22432405
REMARK  4 active torsions:
REMARK  status: ('A' for Active; 'I' for Inactive)
REMARK    1  A    between atoms: C_4  and  C_7
REMARK    2  A    between atoms: C_7  and  C_9
REMARK    3  A    between atoms: C_7  and  N_12
REMARK    4  A    between atoms: N_18  and  C_21
REMARK                            x       y       z     vdW  Elec       q    Type
REMARK                         _______ _______ _______ _____ _____    ______ ____
ROOT
ATOM      1  N   UNL     1       5.955  -1.828   1.118  0.00  0.00    -0.292 N 
ATOM      2  C   UNL     1       4.758  -2.385   1.392  0.00  0.00    +0.303 C 
ATOM      3  O   UNL     1       3.738  -1.866   0.981  0.00  0.00    -0.253 OA
ATOM      4  N   UNL     1       4.693  -3.516   2.121  0.00  0.00    -0.283 N 
ATOM      5  C   UNL     1       3.408  -4.199   2.329  0.00  0.00    +0.128 C 
ATOM      6  C   UNL     1       3.545  -5.653   1.863  0.00  0.00    +0.124 C 
ATOM      7  N   UNL     1       4.757  -6.227   2.465  0.00  0.00    -0.327 N 
ATOM      8  C   UNL     1       6.042  -5.545   2.257  0.00  0.00    +0.124 C 
ATOM      9  C   UNL     1       5.906  -4.093   2.718  0.00  0.00    +0.128 C 
ATOM     10  H   UNL     1       6.764  -2.208   1.494  0.00  0.00    +0.151 HD
ENDROOT
BRANCH   7  11
ATOM     11  C   UNL     1       4.689  -7.395   3.218  0.00  0.00    +0.033 A 
ATOM     12  C   UNL     1       5.812  -7.881   3.887  0.00  0.00    +0.040 A 
ATOM     13  C   UNL     1       5.703  -9.042   4.623  0.00  0.00    +0.084 A 
ATOM     14  N   UNL     1       4.556  -9.691   4.698  0.00  0.00    -0.367 N 
ATOM     15  C   UNL     1       3.471  -9.263   4.080  0.00  0.00    +0.084 A 
ATOM     16  C   UNL     1       3.495  -8.107   3.328  0.00  0.00    +0.040 A 
ATOM     17  H   UNL     1       4.508 -10.505   5.224  0.00  0.00    +0.165 HD
ENDBRANCH   7  11
BRANCH   1  18
ATOM     18  C   UNL     1       6.033  -0.648   0.253  0.00  0.00    +0.108 C 
BRANCH  18  22
ATOM     19  C   UNL     1       9.896  -0.464  -1.560  0.00  0.00    +0.000 A 
ATOM     20  C   UNL     1       8.771  -0.143  -2.297  0.00  0.00    +0.000 A 
ATOM     21  C   UNL     1       7.521  -0.202  -1.710  0.00  0.00    +0.005 A 
ATOM     22  C   UNL     1       7.396  -0.584  -0.387  0.00  0.00    -0.027 A 
ATOM     23  C   UNL     1       8.521  -0.906   0.349  0.00  0.00    +0.005 A 
ATOM     24  C   UNL     1       9.771  -0.845  -0.237  0.00  0.00    +0.000 A 
ENDBRANCH  18  22
BRANCH  18  25
ATOM     25  C   UNL     1       5.801   0.613   1.088  0.00  0.00    +0.014 C 
ATOM     26  C   UNL     1       5.747   0.453   2.608  0.00  0.00    +0.006 C 
ATOM     27  C   UNL     1       4.465   0.738   1.823  0.00  0.00    +0.006 C 
ENDBRANCH  18  25
ENDBRANCH   1  18
TORSDOF 4
