REMARK  Name = ZINC12250510
REMARK  8 active torsions:
REMARK  status: ('A' for Active; 'I' for Inactive)
REMARK    1  A    between atoms: C_4  and  C_7
REMARK    2  A    between atoms: C_7  and  C_8
REMARK    3  A    between atoms: C_7  and  N_14
REMARK    4  A    between atoms: C_15  and  C_17
REMARK    5  A    between atoms: C_17  and  S_18
REMARK    6  A    between atoms: S_18  and  C_19
REMARK    7  A    between atoms: C_20  and  C_38
REMARK    8  A    between atoms: C_21  and  C_31
REMARK                            x       y       z     vdW  Elec       q    Type
REMARK                         _______ _______ _______ _____ _____    ______ ____
ROOT
ATOM      1  C   UNL     1       1.279  -2.405   2.549  0.00  0.00    +0.093 C 
ATOM      2  C   UNL     1       2.326  -1.762   3.134  0.00  0.00    +0.158 C 
ATOM      3  C   UNL     1       2.548  -0.295   2.926  0.00  0.00    +0.077 C 
ATOM      4  C   UNL     1       1.784   0.209   1.727  0.00  0.00    +0.025 C 
ATOM      5  C   UNL     1       0.767  -0.507   1.202  0.00  0.00    +0.049 C 
ATOM      6  N   UNL     1       0.405  -1.709   1.746  0.00  0.00    -0.248 NA
ATOM      7  C   UNL     1       0.002  -0.004   0.002  0.00  0.00    +0.056 C 
ATOM      8  C   UNL     1      -0.013   1.523   0.002  0.00  0.00    +0.014 C 
ATOM      9  C   UNL     1       1.435   2.025  -0.008  0.00  0.00    +0.080 C 
ATOM     10  C   UNL     1       2.162   1.444   1.174  0.00  0.00    +0.162 C 
ATOM     11  O   UNL     1       3.094   2.055   1.659  0.00  0.00    -0.292 OA
ENDROOT
BRANCH   3  12
ATOM     12  C   UNL     1       2.086   0.447   4.153  0.00  0.00    -0.038 A 
ATOM     13  C   UNL     1       0.759   0.384   4.539  0.00  0.00    +0.007 A 
ATOM     14  C   UNL     1       0.335   1.059   5.668  0.00  0.00    +0.038 A 
ATOM     15  C   UNL     1       1.236   1.807   6.406  0.00  0.00    +0.123 A 
ATOM     16  C   UNL     1       2.563   1.874   6.016  0.00  0.00    +0.038 A 
ATOM     17  C   UNL     1       2.986   1.194   4.890  0.00  0.00    +0.007 A 
ATOM     18  F   UNL     1       0.822   2.473   7.506  0.00  0.00    -0.205 F 
ENDBRANCH   3  12
BRANCH   2  19
ATOM     19  C   UNL     1       3.233  -2.501   3.960  0.00  0.00    +0.074 C 
ATOM     20  N   UNL     1       3.952  -3.088   4.615  0.00  0.00    -0.196 NA
ENDBRANCH   2  19
BRANCH   1  21
ATOM     21  S   UNL     1       1.043  -4.130   2.819  0.00  0.00    -0.100 S 
BRANCH  21  22
ATOM     22  C   UNL     1      -0.444  -4.403   1.823  0.00  0.00    +0.171 C 
BRANCH  22  24
ATOM     23  N   UNL     1      -1.930  -6.292   1.240  0.00  0.00    -0.304 N 
ATOM     24  C   UNL     1      -0.844  -5.854   1.906  0.00  0.00    +0.224 C 
ATOM     25  O   UNL     1      -0.189  -6.627   2.572  0.00  0.00    -0.275 OA
ATOM     26  H   UNL     1      -2.454  -5.674   0.707  0.00  0.00    +0.150 HD
BRANCH  23  27
ATOM     27  C   UNL     1      -2.319  -7.702   1.320  0.00  0.00    +0.134 C 
BRANCH  27  31
ATOM     28  C   UNL     1      -6.505  -8.070   0.553  0.00  0.00    +0.000 A 
ATOM     29  C   UNL     1      -5.913  -8.836   1.540  0.00  0.00    +0.000 A 
ATOM     30  C   UNL     1      -4.559  -8.717   1.788  0.00  0.00    +0.006 A 
ATOM     31  C   UNL     1      -3.796  -7.832   1.049  0.00  0.00    -0.023 A 
ATOM     32  C   UNL     1      -4.389  -7.062   0.066  0.00  0.00    +0.006 A 
ATOM     33  C   UNL     1      -5.743  -7.184  -0.185  0.00  0.00    +0.000 A 
ENDBRANCH  27  31
BRANCH  27  34
ATOM     34  C   UNL     1      -1.549  -8.495   0.295  0.00  0.00    -0.023 A 
ATOM     35  C   UNL     1      -1.335  -7.971  -0.966  0.00  0.00    +0.006 A 
ATOM     36  C   UNL     1      -0.624  -8.696  -1.904  0.00  0.00    +0.000 A 
ATOM     37  C   UNL     1      -0.137  -9.950  -1.584  0.00  0.00    +0.000 A 
ATOM     38  C   UNL     1      -0.356 -10.476  -0.325  0.00  0.00    +0.000 A 
ATOM     39  C   UNL     1      -1.062  -9.749   0.615  0.00  0.00    +0.006 A 
ENDBRANCH  27  34
ENDBRANCH  23  27
ENDBRANCH  22  24
ENDBRANCH  21  22
ENDBRANCH   1  21
TORSDOF 8
