REMARK  Name = ZINC25562405
REMARK  9 active torsions:
REMARK  status: ('A' for Active; 'I' for Inactive)
REMARK    1  A    between atoms: C_1  and  C_2
REMARK    2  A    between atoms: C_5  and  N_31
REMARK    3  A    between atoms: C_6  and  N_9
REMARK    4  A    between atoms: C_7  and  C_8
REMARK    5  A    between atoms: C_10  and  C_12
REMARK    6  A    between atoms: C_12  and  C_14
REMARK    7  A    between atoms: C_12  and  N_15
REMARK    8  A    between atoms: N_18  and  S_21
REMARK    9  A    between atoms: S_21  and  C_24
REMARK                            x       y       z     vdW  Elec       q    Type
REMARK                         _______ _______ _______ _____ _____    ______ ____
ROOT
ATOM      1  C   UNL     1      -4.748   1.067  -0.548  0.00  0.00    +0.017 C 
ATOM      2  C   UNL     1      -4.854  -0.061   0.481  0.00  0.00    -0.004 C 
ENDROOT
BRANCH   1   3
ATOM      3  N   UNL     1      -5.930   1.933  -0.449  0.00  0.00    +0.389 N 
ATOM      4  C   UNL     1      -6.047   2.513   0.895  0.00  0.00    -0.060 C 
ATOM      5  C   UNL     1      -7.180   3.545   0.906  0.00  0.00    +0.091 C 
ATOM      6  N   UNL     1      -8.401   2.903   0.398  0.00  0.00    -0.180 NA
ATOM      7  C   UNL     1      -8.328   2.182  -0.882  0.00  0.00    +0.091 C 
ATOM      8  C   UNL     1      -7.150   1.204  -0.823  0.00  0.00    -0.060 C 
ATOM      9  H   UNL     1      -5.805   2.762  -1.162  0.00  0.00    -0.081 HD
BRANCH   6  10
ATOM     10  S   UNL     1      -9.822   2.990   1.244  0.00  0.00    +0.061 S 
ATOM     11  O   UNL     1      -9.736   4.147   2.065  0.00  0.00    -0.153 OA
ATOM     12  O   UNL     1     -10.869   2.803   0.301  0.00  0.00    -0.153 OA
BRANCH  10  13
ATOM     13  C   UNL     1      -9.868   1.604   2.330  0.00  0.00    +0.106 A 
ATOM     14  C   UNL     1     -10.435   0.415   1.910  0.00  0.00    +0.030 A 
ATOM     15  C   UNL     1     -10.466  -0.675   2.759  0.00  0.00    +0.022 A 
ATOM     16  C   UNL     1      -9.940  -0.573   4.034  0.00  0.00    +0.041 A 
ATOM     17  C   UNL     1      -9.377   0.619   4.456  0.00  0.00    +0.022 A 
ATOM     18  C   UNL     1      -9.341   1.706   3.604  0.00  0.00    +0.030 A 
ATOM     19 CL   UNL     1      -9.984  -1.939   5.104  0.00  0.00    -0.084 Cl
ENDBRANCH  10  13
ENDBRANCH   6  10
ENDBRANCH   1   3
BRANCH   1  21
ATOM     20  N   UNL     1      -2.296   1.288  -0.315  0.00  0.00    -0.285 N 
ATOM     21  C   UNL     1      -3.507   1.878  -0.278  0.00  0.00    +0.203 C 
ATOM     22  O   UNL     1      -3.598   3.061  -0.028  0.00  0.00    -0.277 OA
ATOM     23  H   UNL     1      -2.218   0.200  -0.451  0.00  0.00    +0.155 HD
BRANCH  20  29
ATOM     24  C   UNL     1       0.384   4.475   2.299  0.00  0.00    +0.044 C 
ATOM     25  C   UNL     1       0.188   3.615   1.077  0.00  0.00    -0.046 A 
ATOM     26  C   UNL     1       1.157   3.585   0.091  0.00  0.00    +0.006 A 
ATOM     27  C   UNL     1       0.980   2.797  -1.032  0.00  0.00    +0.035 A 
ATOM     28  C   UNL     1      -0.165   2.038  -1.171  0.00  0.00    +0.148 A 
ATOM     29  C   UNL     1      -1.137   2.062  -0.180  0.00  0.00    +0.067 A 
ATOM     30  C   UNL     1      -0.959   2.858   0.944  0.00  0.00    -0.024 A 
ATOM     31  C   UNL     1      -2.014   2.892   2.019  0.00  0.00    +0.046 C 
BRANCH  28  32
ATOM     32  N   UNL     1      -0.353   1.195  -2.373  0.00  0.00    +0.058 N 
ATOM     33  O   UNL     1       0.542   1.093  -3.192  0.00  0.00    -0.126 OA
ATOM     34  O   UNL     1      -1.405   0.604  -2.544  0.00  0.00    -0.126 OA
ENDBRANCH  28  32
ENDBRANCH  20  29
ENDBRANCH   1  21
TORSDOF 6
