REMARK  Name = ZINC34735028
REMARK  12 active torsions:
REMARK  status: ('A' for Active; 'I' for Inactive)
REMARK    1  A    between atoms: C_1  and  C_2
REMARK    2  A    between atoms: C_2  and  N_3
REMARK    3  A    between atoms: N_3  and  C_4
REMARK    4  A    between atoms: C_4  and  C_5
REMARK    5  A    between atoms: C_6  and  C_8
REMARK    6  A    between atoms: C_8  and  N_9
REMARK    7  A    between atoms: C_24  and  C_26
REMARK    8  A    between atoms: C_24  and  C_27
REMARK    9  A    between atoms: N_30  and  C_31
REMARK   10  A    between atoms: C_31  and  C_32
REMARK   11  A    between atoms: C_32  and  C_33
REMARK   12  A    between atoms: C_32  and  C_34
REMARK                            x       y       z     vdW  Elec       q    Type
REMARK                         _______ _______ _______ _____ _____    ______ ____
ROOT
ATOM      1  N   UNL     1       4.661  -1.731   0.668  0.00  0.00    +0.387 N 
ATOM      2  C   UNL     1       5.998  -2.019   0.133  0.00  0.00    -0.059 C 
ATOM      3  C   UNL     1       6.944  -2.370   1.287  0.00  0.00    +0.089 C 
ATOM      4  N   UNL     1       6.906  -1.276   2.270  0.00  0.00    -0.304 N 
ATOM      5  C   UNL     1       5.591  -0.811   2.739  0.00  0.00    +0.089 C 
ATOM      6  C   UNL     1       4.710  -0.534   1.517  0.00  0.00    -0.059 C 
ATOM      7  C   UNL     1       8.064  -0.706   2.737  0.00  0.00    +0.202 A 
ATOM      8  N   UNL     1       8.568   0.341   2.117  0.00  0.00    -0.208 NA
ATOM      9  C   UNL     1       9.687   0.912   2.547  0.00  0.00    +0.118 A 
ATOM     10  C   UNL     1      10.385   0.437   3.671  0.00  0.00    +0.076 A 
ATOM     11  C   UNL     1      11.600   1.169   4.020  0.00  0.00    -0.018 A 
ATOM     12  C   UNL     1      11.932   2.220   3.239  0.00  0.00    +0.021 A 
ATOM     13  S   UNL     1      10.662   2.295   2.008  0.00  0.00    -0.071 S 
ATOM     14  C   UNL     1      13.124   3.109   3.409  0.00  0.00    +0.203 C 
ATOM     15  O   UNL     1      13.679   2.861   4.710  0.00  0.00    -0.368 OA
ATOM     16  C   UNL     1      13.852   1.471   5.001  0.00  0.00    +0.068 C 
ATOM     17  C   UNL     1      12.490   0.801   5.205  0.00  0.00    +0.071 C 
ATOM     18  C   UNL     1      14.580   0.796   3.837  0.00  0.00    +0.041 C 
ATOM     19  C   UNL     1      14.688   1.320   6.274  0.00  0.00    +0.041 C 
ATOM     20  C   UNL     1       9.813  -0.701   4.323  0.00  0.00    +0.264 A 
ATOM     21  O   UNL     1      10.348  -1.183   5.307  0.00  0.00    -0.267 OA
ATOM     22  N   UNL     1       8.674  -1.228   3.839  0.00  0.00    -0.280 N 
ATOM     23  H   UNL     1       4.344  -2.517   1.214  0.00  0.00    -0.081 HD
ENDROOT
BRANCH   1  24
ATOM     24  C   UNL     1       3.730  -1.502  -0.445  0.00  0.00    +0.019 C 
BRANCH  24  26
ATOM     25  N   UNL     1       2.775  -2.797  -2.324  0.00  0.00    -0.304 N 
ATOM     26  C   UNL     1       3.585  -2.770  -1.248  0.00  0.00    +0.199 C 
ATOM     27  O   UNL     1       4.198  -3.765  -0.924  0.00  0.00    -0.278 OA
BRANCH  25  29
ATOM     28  C   UNL     1       3.687  -4.053  -4.215  0.00  0.00    +0.024 C 
ATOM     29  C   UNL     1       2.635  -4.029  -3.104  0.00  0.00    +0.104 C 
ENDBRANCH  25  29
BRANCH  25  30
ATOM     30  C   UNL     1       2.035  -1.594  -2.715  0.00  0.00    +0.104 C 
ATOM     31  C   UNL     1       0.676  -1.581  -2.012  0.00  0.00    +0.024 C 
ENDBRANCH  25  30
ENDBRANCH  24  26
ENDBRANCH   1  24
BRANCH  22  32
ATOM     32  C   UNL     1       8.080  -2.390   4.506  0.00  0.00    +0.131 C 
BRANCH  32  33
ATOM     33  C   UNL     1       7.026  -1.918   5.510  0.00  0.00    +0.003 C 
ATOM     34  C   UNL     1       6.292  -3.131   6.085  0.00  0.00    +0.009 C 
ATOM     35  C   UNL     1       7.709  -1.150   6.643  0.00  0.00    +0.009 C 
ENDBRANCH  32  33
ENDBRANCH  22  32
TORSDOF 6
