REMARK  Name = ZINC44429349
REMARK  5 active torsions:
REMARK  status: ('A' for Active; 'I' for Inactive)
REMARK    1  A    between atoms: C_3  and  C_30
REMARK    2  A    between atoms: C_6  and  C_7
REMARK    3  A    between atoms: C_7  and  N_8
REMARK    4  A    between atoms: C_10  and  C_15
REMARK    5  A    between atoms: C_17  and  C_20
REMARK                            x       y       z     vdW  Elec       q    Type
REMARK                         _______ _______ _______ _____ _____    ______ ____
ROOT
ATOM      1  N   UNL     1      -1.726  -1.018  -1.368  0.00  0.00    -0.296 N 
ATOM      2  C   UNL     1      -2.586  -0.111  -2.137  0.00  0.00    +0.120 C 
ATOM      3  C   UNL     1      -3.120  -0.952  -3.318  0.00  0.00    +0.086 C 
ATOM      4  C   UNL     1      -2.017  -2.026  -3.463  0.00  0.00    +0.109 C 
ATOM      5  C   UNL     1      -1.382  -2.096  -2.092  0.00  0.00    +0.217 C 
ATOM      6  O   UNL     1      -0.668  -2.996  -1.702  0.00  0.00    -0.276 OA
ENDROOT
BRANCH   3   7
ATOM      7  C   UNL     1      -3.229  -0.118  -4.568  0.00  0.00    +0.177 A 
ATOM      8  N   UNL     1      -4.355   0.115  -5.246  0.00  0.00    -0.191 NA
ATOM      9  C   UNL     1      -4.103   0.881  -6.286  0.00  0.00    +0.259 A 
ATOM     10  O   UNL     1      -2.786   1.155  -6.290  0.00  0.00    -0.333 OA
ATOM     11  N   UNL     1      -2.241   0.495  -5.156  0.00  0.00    -0.061 NA
BRANCH   9  12
ATOM     12  C   UNL     1      -5.091   1.355  -7.274  0.00  0.00    +0.041 A 
ATOM     13  C   UNL     1      -6.439   0.993  -7.142  0.00  0.00    +0.014 A 
ATOM     14  C   UNL     1      -7.360   1.424  -8.048  0.00  0.00    +0.011 A 
ATOM     15  C   UNL     1      -6.963   2.233  -9.118  0.00  0.00    -0.000 A 
ATOM     16  C   UNL     1      -7.671   2.853 -10.238  0.00  0.00    +0.027 A 
ATOM     17  C   UNL     1      -6.758   3.528 -10.957  0.00  0.00    +0.083 A 
ATOM     18  N   UNL     1      -5.523   3.390 -10.389  0.00  0.00    -0.361 N 
ATOM     19  H   UNL     1      -4.706   3.788 -10.729  0.00  0.00    +0.165 HD
ATOM     20  C   UNL     1      -5.611   2.604  -9.261  0.00  0.00    +0.047 A 
ATOM     21  C   UNL     1      -4.680   2.164  -8.331  0.00  0.00    +0.039 A 
ENDBRANCH   9  12
ENDBRANCH   3   7
BRANCH   1  22
ATOM     22  C   UNL     1      -1.293  -0.775   0.011  0.00  0.00    +0.142 C 
BRANCH  22  28
ATOM     23  C   UNL     1      -0.017   1.378   0.010  0.00  0.00    +0.006 A 
ATOM     24  C   UNL     1       1.171   2.086   0.002  0.00  0.00    +0.013 A 
ATOM     25  C   UNL     1       2.377   1.411  -0.013  0.00  0.00    +0.055 A 
ATOM     26  C   UNL     1       2.396   0.029  -0.020  0.00  0.00    +0.013 A 
ATOM     27  C   UNL     1       1.208  -0.679  -0.012  0.00  0.00    +0.006 A 
ATOM     28  C   UNL     1       0.002  -0.004   0.002  0.00  0.00    -0.030 A 
BRANCH  25  29
ATOM     29  C   UNL     1       3.672   2.182  -0.022  0.00  0.00    +0.417 C 
ATOM     30  F   UNL     1       4.086   2.414   1.294  0.00  0.00    -0.166 F 
ATOM     31  F   UNL     1       4.651   1.442  -0.695  0.00  0.00    -0.166 F 
ATOM     32  F   UNL     1       3.482   3.405  -0.674  0.00  0.00    -0.166 F 
ENDBRANCH  25  29
ENDBRANCH  22  28
ENDBRANCH   1  22
TORSDOF 5
