REMARK  Name = ZINC40334517
REMARK  7 active torsions:
REMARK  status: ('A' for Active; 'I' for Inactive)
REMARK    1  A    between atoms: C_1  and  C_2
REMARK    2  A    between atoms: C_2  and  C_3
REMARK    3  A    between atoms: C_2  and  C_4
REMARK    4  A    between atoms: C_4  and  N_5
REMARK    5  A    between atoms: N_8  and  S_11
REMARK    6  A    between atoms: S_11  and  C_14
REMARK    7  A    between atoms: C_19  and  N_20
REMARK                            x       y       z     vdW  Elec       q    Type
REMARK                         _______ _______ _______ _____ _____    ______ ____
ROOT
ATOM      1  S   UNL     1      -2.601  -5.678  -1.964  0.00  0.00    +0.063 S 
ATOM      2  O   UNL     1      -3.997  -5.753  -1.712  0.00  0.00    -0.153 OA
ATOM      3  O   UNL     1      -2.074  -5.365  -3.247  0.00  0.00    -0.153 OA
ENDROOT
BRANCH   1   4
ATOM      4  C   UNL     1      -1.922  -7.238  -1.508  0.00  0.00    +0.126 A 
ATOM      5  C   UNL     1      -1.058  -7.894  -2.364  0.00  0.00    +0.031 A 
ATOM      6  C   UNL     1      -0.525  -9.118  -2.006  0.00  0.00    +0.017 A 
ATOM      7  C   UNL     1      -0.854  -9.691  -0.790  0.00  0.00    +0.020 A 
ATOM      8  C   UNL     1      -1.717  -9.041   0.070  0.00  0.00    +0.040 A 
ATOM      9  C   UNL     1      -2.250  -7.808  -0.284  0.00  0.00    +0.052 A 
ATOM     10 BR   UNL     1      -0.121 -11.366  -0.306  0.00  0.00    -0.050 Br
BRANCH   9  11
ATOM     11  N   UNL     1      -3.119  -7.145   0.586  0.00  0.00    -0.356 N 
ATOM     12  H   UNL     1      -3.576  -6.340   0.295  0.00  0.00    +0.142 HD
ATOM     13  H   UNL     1      -3.265  -7.489   1.481  0.00  0.00    +0.142 HD
ENDBRANCH   9  11
ENDBRANCH   1   4
BRANCH   1  17
ATOM     14  N   UNL     1      -1.448  -2.058   0.203  0.00  0.00    -0.300 NA
ATOM     15  C   UNL     1      -0.804  -2.428  -1.065  0.00  0.00    +0.101 C 
ATOM     16  C   UNL     1      -0.666  -3.952  -1.138  0.00  0.00    +0.125 C 
ATOM     17  N   UNL     1      -1.990  -4.552  -0.915  0.00  0.00    -0.174 NA
ATOM     18  C   UNL     1      -2.757  -4.126   0.266  0.00  0.00    +0.125 C 
ATOM     19  C   UNL     1      -2.813  -2.595   0.283  0.00  0.00    +0.101 C 
BRANCH  14  20
ATOM     20  C   UNL     1      -1.444  -0.601   0.390  0.00  0.00    +0.087 C 
BRANCH  20  22
ATOM     21  C   UNL     1       0.012   1.417   0.618  0.00  0.00    +0.008 C 
ATOM     22  C   UNL     1      -0.003  -0.111   0.548  0.00  0.00    -0.003 C 
ATOM     23  C   UNL     1       0.592  -0.686   1.835  0.00  0.00    +0.008 C 
ENDBRANCH  20  22
ENDBRANCH  14  20
ENDBRANCH   1  17
TORSDOF 5
