REMARK  Name = ZINC27229154
REMARK  8 active torsions:
REMARK  status: ('A' for Active; 'I' for Inactive)
REMARK    1  A    between atoms: C_1  and  C_2
REMARK    2  A    between atoms: C_2  and  O_3
REMARK    3  A    between atoms: O_3  and  C_4
REMARK    4  A    between atoms: C_6  and  C_11
REMARK    5  A    between atoms: C_9  and  O_10
REMARK    6  A    between atoms: C_16  and  N_18
REMARK    7  A    between atoms: N_18  and  C_19
REMARK    8  A    between atoms: C_24  and  C_25
REMARK                            x       y       z     vdW  Elec       q    Type
REMARK                         _______ _______ _______ _____ _____    ______ ____
ROOT
ATOM      1  C   UNL     1       0.615  -4.958  -0.117  0.00  0.00    +0.028 C 
ATOM      2  C   UNL     1       0.452  -6.298   0.019  0.00  0.00    +0.079 C 
ATOM      3  C   UNL     1      -0.791  -7.095   0.142  0.00  0.00    +0.276 C 
ATOM      4  O   UNL     1      -1.895  -6.573   0.130  0.00  0.00    -0.267 OA
ATOM      5  N   UNL     1      -0.641  -8.395   0.263  0.00  0.00    -0.152 NA
ATOM      6  C   UNL     1       0.550  -8.974   0.277  0.00  0.00    +0.175 C 
ATOM      7  S   UNL     1       1.676  -7.600   0.095  0.00  0.00    -0.050 S 
ENDROOT
BRANCH   1  10
ATOM      8  C   UNL     1      -2.620  -3.493   1.085  0.00  0.00    +0.162 A 
ATOM      9  C   UNL     1      -1.539  -4.342   0.959  0.00  0.00    +0.057 A 
ATOM     10  C   UNL     1      -0.537  -4.059   0.022  0.00  0.00    -0.020 A 
ATOM     11  C   UNL     1      -0.639  -2.917  -0.781  0.00  0.00    +0.012 A 
ATOM     12  C   UNL     1      -1.721  -2.076  -0.648  0.00  0.00    +0.050 A 
ATOM     13  C   UNL     1      -2.717  -2.360   0.278  0.00  0.00    +0.158 A 
BRANCH  13  14
ATOM     14  O   UNL     1      -3.785  -1.530   0.400  0.00  0.00    -0.503 OA
ATOM     15  H   UNL     1      -3.659  -0.819   1.043  0.00  0.00    +0.292 HD
ENDBRANCH  13  14
BRANCH   8  16
ATOM     16  O   UNL     1      -3.595  -3.764   1.994  0.00  0.00    -0.489 OA
BRANCH  16  18
ATOM     17  C   UNL     1      -4.618  -5.079   3.745  0.00  0.00    +0.048 C 
ATOM     18  C   UNL     1      -3.432  -4.941   2.788  0.00  0.00    +0.226 C 
ENDBRANCH  16  18
ENDBRANCH   8  16
ENDBRANCH   1  10
BRANCH   6  19
ATOM     19  N   UNL     1       0.846 -10.307   0.397  0.00  0.00    -0.191 NA
BRANCH  19  20
ATOM     20  C   UNL     1      -0.175 -11.260   0.328  0.00  0.00    +0.067 A 
ATOM     21  C   UNL     1      -1.353 -10.969  -0.348  0.00  0.00    +0.027 A 
ATOM     22  C   UNL     1      -2.360 -11.911  -0.415  0.00  0.00    +0.022 A 
ATOM     23  C   UNL     1      -2.197 -13.145   0.191  0.00  0.00    +0.042 A 
ATOM     24  C   UNL     1      -1.025 -13.437   0.866  0.00  0.00    +0.034 A 
ATOM     25  C   UNL     1      -0.012 -12.500   0.931  0.00  0.00    +0.079 A 
ATOM     26 CL   UNL     1      -3.465 -14.327   0.106  0.00  0.00    -0.084 Cl
BRANCH  25  27
ATOM     27  C   UNL     1       1.267 -12.821   1.660  0.00  0.00    +0.419 C 
ATOM     28  F   UNL     1       1.195 -14.119   2.178  0.00  0.00    -0.166 F 
ATOM     29  F   UNL     1       2.345 -12.732   0.773  0.00  0.00    -0.166 F 
ATOM     30  F   UNL     1       1.448 -11.911   2.707  0.00  0.00    -0.166 F 
ENDBRANCH  25  27
ENDBRANCH  19  20
ENDBRANCH   6  19
TORSDOF 7
