REMARK  Name = ZINC42400738
REMARK  8 active torsions:
REMARK  status: ('A' for Active; 'I' for Inactive)
REMARK    1  A    between atoms: C_1  and  N_2
REMARK    2  A    between atoms: N_2  and  C_3
REMARK    3  A    between atoms: N_2  and  S_13
REMARK    4  A    between atoms: C_3  and  C_4
REMARK    5  A    between atoms: C_6  and  C_9
REMARK    6  A    between atoms: C_10  and  C_11
REMARK    7  A    between atoms: C_11  and  N_12
REMARK    8  A    between atoms: S_13  and  C_16
REMARK                            x       y       z     vdW  Elec       q    Type
REMARK                         _______ _______ _______ _____ _____    ______ ____
ROOT
ATOM      1  C   UNL     1      -1.384  -0.909   1.776  0.00  0.00    +0.007 A 
ATOM      2  C   UNL     1      -2.259  -1.911   1.539  0.00  0.00    +0.029 A 
ATOM      3  C   UNL     1      -3.523  -1.858   2.122  0.00  0.00    +0.032 A 
ATOM      4  C   UNL     1      -3.829  -0.785   2.916  0.00  0.00    +0.062 A 
ATOM      5  S   UNL     1      -2.319   0.164   2.853  0.00  0.00    -0.099 S 
ENDROOT
BRANCH   3   6
ATOM      6  C   UNL     1      -4.480  -2.899   1.896  0.00  0.00    -0.068 C 
ATOM      7  C   UNL     1      -5.264  -3.753   1.710  0.00  0.00    -0.117 C 
BRANCH   7   8
ATOM      8  C   UNL     1      -6.248  -4.823   1.478  0.00  0.00    +0.005 C 
BRANCH   8   9
ATOM      9  N   UNL     1      -7.487  -4.517   2.205  0.00  0.00    +0.385 N 
ATOM     10  H   UNL     1      -7.289  -4.450   3.193  0.00  0.00    -0.089 HD
ATOM     11  H   UNL     1      -7.861  -3.639   1.878  0.00  0.00    -0.089 HD
ATOM     12  H   UNL     1      -8.161  -5.250   2.046  0.00  0.00    -0.089 HD
ENDBRANCH   8   9
ENDBRANCH   7   8
ENDBRANCH   3   6
BRANCH   1  13
ATOM     13  C   UNL     1       0.024  -0.743   1.267  0.00  0.00    +0.151 C 
BRANCH  13  15
ATOM     14  C   UNL     1      -0.018   1.461   0.010  0.00  0.00    +0.132 C 
ATOM     15  N   UNL     1       0.002  -0.004   0.002  0.00  0.00    -0.174 NA
BRANCH  15  16
ATOM     16  S   UNL     1      -0.000  -0.824  -1.437  0.00  0.00    +0.067 S 
ATOM     17  O   UNL     1      -0.531  -2.115  -1.167  0.00  0.00    -0.152 OA
ATOM     18  O   UNL     1      -0.572   0.049  -2.401  0.00  0.00    -0.152 OA
BRANCH  16  19
ATOM     19  C   UNL     1       1.682  -1.059  -1.905  0.00  0.00    +0.143 A 
ATOM     20  C   UNL     1       2.513  -2.091  -1.615  0.00  0.00    +0.036 A 
ATOM     21  C   UNL     1       3.808  -2.063  -2.096  0.00  0.00    +0.010 A 
ATOM     22  C   UNL     1       4.210  -1.006  -2.843  0.00  0.00    +0.047 A 
ATOM     23  S   UNL     1       2.732  -0.005  -2.891  0.00  0.00    -0.077 S 
ENDBRANCH  16  19
ENDBRANCH  15  16
ENDBRANCH  13  15
ENDBRANCH   1  13
TORSDOF 7
