REMARK  Name = ZINC08857245
REMARK  9 active torsions:
REMARK  status: ('A' for Active; 'I' for Inactive)
REMARK    1  A    between atoms: C_1  and  C_2
REMARK    2  A    between atoms: C_2  and  C_3
REMARK    3  A    between atoms: C_3  and  C_4
REMARK    4  A    between atoms: N_6  and  C_7
REMARK    5  A    between atoms: N_15  and  C_16
REMARK    6  A    between atoms: C_16  and  C_17
REMARK    7  A    between atoms: C_17  and  N_18
REMARK    8  A    between atoms: N_18  and  C_19
REMARK    9  A    between atoms: C_22  and  C_24
REMARK                            x       y       z     vdW  Elec       q    Type
REMARK                         _______ _______ _______ _____ _____    ______ ____
ROOT
ATOM      1  C   UNL     1      -2.314  -3.112  -0.213  0.00  0.00    +0.061 C 
ATOM      2  C   UNL     1      -3.623  -2.366  -0.202  0.00  0.00    +0.019 C 
ATOM      3  N   UNL     1      -4.795  -3.037  -0.418  0.00  0.00    -0.291 NA
ENDROOT
BRANCH   2   4
ATOM      4  C   UNL     1      -3.640  -1.035   0.020  0.00  0.00    +0.146 C 
BRANCH   4   5
ATOM      5  C   UNL     1      -2.453  -0.368   0.404  0.00  0.00    +0.223 C 
ATOM      6  O   UNL     1      -1.444  -1.007   0.639  0.00  0.00    -0.275 OA
ATOM      7  N   UNL     1      -2.440   0.976   0.509  0.00  0.00    -0.284 N 
ATOM      8  H   UNL     1      -3.258   1.480   0.381  0.00  0.00    +0.155 HD
BRANCH   7   9
ATOM      9  C   UNL     1      -1.244   1.643   0.802  0.00  0.00    +0.052 A 
ATOM     10  C   UNL     1      -0.026   1.016   0.580  0.00  0.00    +0.026 A 
ATOM     11  C   UNL     1       1.153   1.678   0.864  0.00  0.00    +0.022 A 
ATOM     12  C   UNL     1       1.119   2.964   1.375  0.00  0.00    +0.042 A 
ATOM     13  C   UNL     1      -0.093   3.590   1.603  0.00  0.00    +0.041 A 
ATOM     14  C   UNL     1      -1.276   2.932   1.320  0.00  0.00    +0.064 A 
ATOM     15 CL   UNL     1      -2.797   3.717   1.606  0.00  0.00    -0.082 Cl
ATOM     16 CL   UNL     1       2.602   3.793   1.731  0.00  0.00    -0.083 Cl
ENDBRANCH   7   9
ENDBRANCH   4   5
ENDBRANCH   2   4
BRANCH   3  17
ATOM     17  C   UNL     1      -4.777  -4.482  -0.659  0.00  0.00    +0.160 C 
BRANCH  17  18
ATOM     18  C   UNL     1      -6.208  -4.981  -0.869  0.00  0.00    +0.126 C 
BRANCH  18  19
ATOM     19  N   UNL     1      -6.190  -6.426  -1.110  0.00  0.00    -0.328 N 
ATOM     20  H   UNL     1      -5.348  -6.906  -1.117  0.00  0.00    +0.148 HD
BRANCH  19  21
ATOM     21  C   UNL     1      -7.382  -7.109  -1.330  0.00  0.00    +0.115 A 
ATOM     22  C   UNL     1      -7.357  -8.481  -1.564  0.00  0.00    +0.079 A 
ATOM     23  C   UNL     1      -8.551  -9.148  -1.775  0.00  0.00    +0.037 A 
ATOM     24  C   UNL     1      -9.732  -8.417  -1.756  0.00  0.00    +0.072 A 
ATOM     25  C   UNL     1      -9.681  -7.058  -1.523  0.00  0.00    +0.096 A 
ATOM     26 CL   UNL     1      -5.851  -9.344  -1.585  0.00  0.00    -0.080 Cl
ATOM     27  N   UNL     1      -8.528  -6.370  -1.306  0.00  0.00    -0.348 N 
ATOM     28  H   UNL     1      -8.521  -5.357  -1.135  0.00  0.00    +0.167 HD
BRANCH  24  29
ATOM     29  C   UNL     1     -11.055  -9.101  -1.986  0.00  0.00    +0.419 C 
ATOM     30  F   UNL     1     -12.085  -8.157  -1.918  0.00  0.00    -0.166 F 
ATOM     31  F   UNL     1     -11.056  -9.701  -3.250  0.00  0.00    -0.166 F 
ATOM     32  F   UNL     1     -11.252 -10.079  -1.005  0.00  0.00    -0.166 F 
ENDBRANCH  24  29
ENDBRANCH  19  21
ENDBRANCH  18  19
ENDBRANCH  17  18
ENDBRANCH   3  17
TORSDOF 8
