REMARK  Name = ZINC05726505
REMARK  6 active torsions:
REMARK  status: ('A' for Active; 'I' for Inactive)
REMARK    1  A    between atoms: C_1  and  C_2
REMARK    2  A    between atoms: C_2  and  C_4
REMARK    3  A    between atoms: N_6  and  C_19
REMARK    4  A    between atoms: N_8  and  N_9
REMARK    5  A    between atoms: C_10  and  C_11
REMARK    6  A    between atoms: C_15  and  O_17
REMARK                            x       y       z     vdW  Elec       q    Type
REMARK                         _______ _______ _______ _____ _____    ______ ____
ROOT
ATOM      1  C   UNL     1      -0.011   1.310   0.103  0.00  0.00    +0.167 A 
ATOM      2  N   UNL     1       0.007  -0.004   0.097  0.00  0.00    -0.154 NA
ATOM      3  N   UNL     1       1.197  -0.686  -0.013  0.00  0.00    -0.205 N 
ATOM      4  C   UNL     1       2.359   0.049  -0.115  0.00  0.00    +0.217 A 
ATOM      5  N   UNL     1       3.610  -0.368  -0.230  0.00  0.00    -0.122 NA
ATOM      6  S   UNL     1       1.720   1.716  -0.052  0.00  0.00    -0.023 S 
ENDROOT
BRANCH   3   7
ATOM      7  C   UNL     1       1.227  -2.085  -0.020  0.00  0.00    +0.088 A 
ATOM      8  C   UNL     1       2.220  -2.756  -0.723  0.00  0.00    +0.049 A 
ATOM      9  C   UNL     1       2.247  -4.138  -0.728  0.00  0.00    +0.043 A 
ATOM     10  C   UNL     1       1.286  -4.853  -0.034  0.00  0.00    +0.021 A 
ATOM     11  C   UNL     1       0.297  -4.188   0.666  0.00  0.00    +0.023 A 
ATOM     12  C   UNL     1       0.267  -2.807   0.680  0.00  0.00    +0.066 A 
ATOM     13 CL   UNL     1      -0.971  -1.972   1.566  0.00  0.00    -0.081 Cl
ATOM     14 CL   UNL     1       3.487  -4.978  -1.605  0.00  0.00    -0.083 Cl
ENDBRANCH   3   7
BRANCH   1  16
ATOM     15  C   UNL     1      -0.950   3.704   0.193  0.00  0.00    +0.094 C 
ATOM     16  C   UNL     1      -1.160   2.212   0.205  0.00  0.00    +0.187 C 
ATOM     17  O   UNL     1      -2.281   1.758   0.300  0.00  0.00    -0.290 OA
ENDBRANCH   1  16
BRANCH   5  18
ATOM     18  N   UNL     1       4.571   0.489  -0.313  0.00  0.00    -0.155 NA
ATOM     19  C   UNL     1       5.806   0.078  -0.426  0.00  0.00    +0.143 C 
BRANCH  19  20
ATOM     20  C   UNL     1       6.901   1.055  -0.522  0.00  0.00    -0.002 A 
ATOM     21  C   UNL     1       6.623   2.427  -0.498  0.00  0.00    +0.010 A 
ATOM     22  C   UNL     1       7.653   3.339  -0.582  0.00  0.00    +0.004 A 
ATOM     23  C   UNL     1       8.961   2.904  -0.702  0.00  0.00    +0.045 A 
ATOM     24  C   UNL     1       9.248   1.545  -0.732  0.00  0.00    +0.117 A 
ATOM     25  C   UNL     1       8.223   0.619  -0.642  0.00  0.00    +0.055 A 
BRANCH  24  26
ATOM     26  O   UNL     1      10.535   1.125  -0.849  0.00  0.00    -0.507 OA
ATOM     27  H   UNL     1      10.828   1.006  -1.763  0.00  0.00    +0.292 HD
ENDBRANCH  24  26
ENDBRANCH  19  20
ENDBRANCH   5  18
TORSDOF 5
