REMARK  Name = ZINC05901273
REMARK  6 active torsions:
REMARK  status: ('A' for Active; 'I' for Inactive)
REMARK    1  A    between atoms: C_1  and  C_2
REMARK    2  A    between atoms: C_7  and  N_8
REMARK    3  A    between atoms: C_17  and  C_19
REMARK    4  A    between atoms: C_19  and  S_20
REMARK    5  A    between atoms: S_20  and  C_21
REMARK    6  A    between atoms: C_24  and  C_26
REMARK                            x       y       z     vdW  Elec       q    Type
REMARK                         _______ _______ _______ _____ _____    ______ ____
ROOT
ATOM      1  N   UNL     1       0.023  -2.067   3.595  0.00  0.00    -0.327 N 
ATOM      2  C   UNL     1       0.126  -0.695   3.614  0.00  0.00    +0.180 C 
ATOM      3  N   UNL     1       0.100  -0.024   2.499  0.00  0.00    -0.371 N 
ATOM      4  N   UNL     1       0.258  -0.030   4.817  0.00  0.00    -0.298 N 
ATOM      5  C   UNL     1       0.173  -0.725   5.999  0.00  0.00    +0.211 A 
ATOM      6  N   UNL     1       0.172  -0.043   7.176  0.00  0.00    -0.293 N 
ATOM      7  C   UNL     1       0.089  -0.719   8.342  0.00  0.00    +0.253 A 
ATOM      8  O   UNL     1       0.086  -0.123   9.406  0.00  0.00    -0.268 OA
ATOM      9  C   UNL     1       0.006  -2.122   8.305  0.00  0.00    +0.094 A 
ATOM     10  C   UNL     1       0.012  -2.751   7.094  0.00  0.00    +0.060 A 
ATOM     11  N   UNL     1       0.090  -2.039   5.972  0.00  0.00    -0.218 NA
ATOM     12  H   UNL     1      -0.035  -2.561   4.428  0.00  0.00    +0.169 HD
ATOM     13  H   UNL     1       0.243   0.935   2.506  0.00  0.00    +0.159 HD
ATOM     14  H   UNL     1      -0.064  -0.483   1.660  0.00  0.00    +0.159 HD
ATOM     15  H   UNL     1       0.410   0.928   4.827  0.00  0.00    +0.172 HD
ATOM     16  H   UNL     1       0.230   0.925   7.177  0.00  0.00    +0.172 HD
ENDROOT
BRANCH   1  23
ATOM     17  C   UNL     1      -2.300  -1.839   1.968  0.00  0.00    +0.046 C 
ATOM     18  C   UNL     1      -1.112  -2.666   1.549  0.00  0.00    -0.027 A 
ATOM     19  C   UNL     1      -1.127  -3.337   0.342  0.00  0.00    +0.005 A 
ATOM     20  C   UNL     1      -0.037  -4.095  -0.043  0.00  0.00    +0.000 A 
ATOM     21  C   UNL     1       1.071  -4.185   0.779  0.00  0.00    +0.002 A 
ATOM     22  C   UNL     1       1.093  -3.517   1.987  0.00  0.00    +0.026 A 
ATOM     23  C   UNL     1       0.002  -2.749   2.374  0.00  0.00    +0.045 A 
ENDBRANCH   1  23
BRANCH  10  24
ATOM     24  C   UNL     1      -0.075  -4.254   7.027  0.00  0.00    +0.132 C 
BRANCH  24  25
ATOM     25  S   UNL     1      -1.742  -4.740   6.499  0.00  0.00    -0.091 S 
BRANCH  25  26
ATOM     26  C   UNL     1      -1.683  -6.501   6.469  0.00  0.00    +0.159 A 
ATOM     27  N   UNL     1      -0.687  -7.327   6.761  0.00  0.00    -0.135 NA
ATOM     28  N   UNL     1      -0.818  -8.579   6.686  0.00  0.00    -0.146 NA
ATOM     29  C   UNL     1      -1.948  -9.146   6.314  0.00  0.00    +0.100 A 
ATOM     30  S   UNL     1      -2.954  -7.689   6.044  0.00  0.00    -0.044 S 
ATOM     31  C   UNL     1      -2.297 -10.604   6.164  0.00  0.00    +0.075 C 
ENDBRANCH  25  26
ENDBRANCH  24  25
ENDBRANCH  10  24
TORSDOF 4
