REMARK  Name = ZINC39672399
REMARK  6 active torsions:
REMARK  status: ('A' for Active; 'I' for Inactive)
REMARK    1  A    between atoms: C_1  and  C_2
REMARK    2  A    between atoms: C_5  and  C_7
REMARK    3  A    between atoms: C_7  and  N_8
REMARK    4  A    between atoms: C_9  and  C_11
REMARK    5  A    between atoms: C_22  and  C_24
REMARK    6  A    between atoms: C_26  and  C_31
REMARK                            x       y       z     vdW  Elec       q    Type
REMARK                         _______ _______ _______ _____ _____    ______ ____
ROOT
ATOM      1  C   UNL     1      -3.655  -4.428   4.090  0.00  0.00    +0.100 C 
ATOM      2  C   UNL     1      -4.082  -5.116   2.774  0.00  0.00    +0.121 C 
ATOM      3  N   UNL     1      -3.866  -6.561   3.019  0.00  0.00    -0.296 N 
ATOM      4  C   UNL     1      -4.303  -6.766   4.421  0.00  0.00    +0.115 C 
ATOM      5  C   UNL     1      -3.805  -5.514   5.169  0.00  0.00    -0.004 C 
ATOM      6  C   UNL     1      -4.828  -5.082   6.215  0.00  0.00    -0.010 C 
ATOM      7  C   UNL     1      -4.917  -6.151   7.308  0.00  0.00    -0.082 C 
ATOM      8  N   UNL     1      -3.599  -6.329   7.929  0.00  0.00    +0.379 N 
ATOM      9  C   UNL     1      -2.643  -6.834   6.936  0.00  0.00    -0.082 C 
ATOM     10  C   UNL     1      -2.458  -5.795   5.828  0.00  0.00    -0.010 C 
ATOM     11  C   UNL     1      -3.383  -7.481   2.161  0.00  0.00    +0.247 C 
ATOM     12  O   UNL     1      -2.948  -7.135   1.081  0.00  0.00    -0.270 OA
ATOM     13  H   UNL     1      -3.274  -5.444   8.286  0.00  0.00    -0.086 HD
ATOM     14  H   UNL     1      -3.673  -6.989   8.689  0.00  0.00    -0.086 HD
ENDROOT
BRANCH  11  15
ATOM     15  C   UNL     1      -3.382  -8.912   2.535  0.00  0.00    +0.040 A 
ATOM     16  C   UNL     1      -4.240  -9.376   3.534  0.00  0.00    +0.025 A 
ATOM     17  C   UNL     1      -4.236 -10.711   3.878  0.00  0.00    +0.058 A 
ATOM     18  C   UNL     1      -3.383 -11.592   3.237  0.00  0.00    +0.050 A 
ATOM     19  C   UNL     1      -2.528 -11.139   2.245  0.00  0.00    +0.125 A 
ATOM     20  C   UNL     1      -2.527  -9.804   1.887  0.00  0.00    +0.051 A 
ATOM     21  F   UNL     1      -1.697 -12.005   1.624  0.00  0.00    -0.205 F 
BRANCH  17  22
ATOM     22  C   UNL     1      -5.161 -11.213   4.957  0.00  0.00    +0.418 C 
ATOM     23  F   UNL     1      -6.376 -11.605   4.383  0.00  0.00    -0.166 F 
ATOM     24  F   UNL     1      -4.576 -12.307   5.603  0.00  0.00    -0.166 F 
ATOM     25  F   UNL     1      -5.392 -10.191   5.885  0.00  0.00    -0.166 F 
ENDBRANCH  17  22
ENDBRANCH  11  15
BRANCH   1  27
ATOM     26  N   UNL     1      -1.786  -2.966   4.788  0.00  0.00    -0.309 N 
ATOM     27  C   UNL     1      -2.222  -3.971   4.002  0.00  0.00    +0.219 C 
ATOM     28  O   UNL     1      -1.461  -4.506   3.224  0.00  0.00    -0.275 OA
ATOM     29  H   UNL     1      -2.394  -2.538   5.411  0.00  0.00    +0.149 HD
BRANCH  26  30
ATOM     30  C   UNL     1      -0.393  -2.521   4.703  0.00  0.00    +0.167 C 
BRANCH  30  35
ATOM     31  C   UNL     1       0.822  -0.461   9.098  0.00  0.00    +0.066 C 
ATOM     32  C   UNL     1       0.378  -0.383   7.660  0.00  0.00    +0.046 A 
ATOM     33  C   UNL     1       0.122   0.808   7.060  0.00  0.00    +0.070 A 
ATOM     34  S   UNL     1      -0.342   0.259   5.426  0.00  0.00    -0.079 S 
ATOM     35  C   UNL     1      -0.164  -1.395   5.678  0.00  0.00    +0.096 A 
ATOM     36  N   UNL     1       0.226  -1.467   6.926  0.00  0.00    -0.248 NA
ENDBRANCH  30  35
ENDBRANCH  26  30
ENDBRANCH   1  27
TORSDOF 5
