REMARK  Name = ZINC19805425
REMARK  9 active torsions:
REMARK  status: ('A' for Active; 'I' for Inactive)
REMARK    1  A    between atoms: C_1  and  C_2
REMARK    2  A    between atoms: C_3  and  C_30
REMARK    3  A    between atoms: C_4  and  C_21
REMARK    4  A    between atoms: C_10  and  C_15
REMARK    5  A    between atoms: C_24  and  O_29
REMARK    6  A    between atoms: C_25  and  O_27
REMARK    7  A    between atoms: O_27  and  C_28
REMARK    8  A    between atoms: C_30  and  O_32
REMARK    9  A    between atoms: O_32  and  C_33
REMARK                            x       y       z     vdW  Elec       q    Type
REMARK                         _______ _______ _______ _____ _____    ______ ____
ROOT
ATOM      1  C   UNL     1      -2.639   4.189   0.626  0.00  0.00    +0.061 C 
ATOM      2  C   UNL     1      -1.317   3.536   0.313  0.00  0.00    +0.016 C 
ATOM      3  C   UNL     1      -0.198   4.280   0.269  0.00  0.00    +0.065 C 
ATOM      4  C   UNL     1       1.134   3.665  -0.046  0.00  0.00    +0.092 C 
ATOM      5  C   UNL     1       1.096   2.169   0.138  0.00  0.00    +0.024 C 
ATOM      6  C   UNL     1      -0.081   1.509   0.180  0.00  0.00    +0.016 C 
ATOM      7  N   UNL     1      -1.264   2.191   0.078  0.00  0.00    -0.321 N 
ATOM      8  C   UNL     1      -0.126   0.010   0.345  0.00  0.00    +0.059 C 
ATOM      9  C   UNL     1       1.076  -0.451   1.173  0.00  0.00    +0.032 C 
ATOM     10  C   UNL     1       2.357  -0.008   0.458  0.00  0.00    +0.088 C 
ATOM     11  C   UNL     1       2.317   1.483   0.262  0.00  0.00    +0.162 C 
ATOM     12  O   UNL     1       3.359   2.106   0.209  0.00  0.00    -0.292 OA
ATOM     13  H   UNL     1      -2.178   1.644  -0.197  0.00  0.00    +0.152 HD
ENDROOT
BRANCH   9  14
ATOM     14  C   UNL     1       1.059  -1.953   1.296  0.00  0.00    -0.044 A 
ATOM     15  C   UNL     1       1.110  -2.740   0.161  0.00  0.00    +0.004 A 
ATOM     16  C   UNL     1       1.099  -4.118   0.274  0.00  0.00    +0.000 A 
ATOM     17  C   UNL     1       1.027  -4.708   1.522  0.00  0.00    +0.000 A 
ATOM     18  C   UNL     1       0.971  -3.921   2.657  0.00  0.00    +0.000 A 
ATOM     19  C   UNL     1       0.987  -2.543   2.544  0.00  0.00    +0.004 A 
ENDBRANCH   9  14
BRANCH   4  20
ATOM     20  C   UNL     1       1.496   3.979  -1.475  0.00  0.00    -0.032 A 
ATOM     21  C   UNL     1       0.691   3.530  -2.505  0.00  0.00    +0.008 A 
ATOM     22  C   UNL     1       1.019   3.816  -3.817  0.00  0.00    +0.049 A 
ATOM     23  C   UNL     1       2.158   4.553  -4.102  0.00  0.00    +0.158 A 
ATOM     24  C   UNL     1       2.968   5.005  -3.065  0.00  0.00    +0.162 A 
ATOM     25  C   UNL     1       2.630   4.719  -1.752  0.00  0.00    +0.054 A 
BRANCH  24  26
ATOM     26  O   UNL     1       4.086   5.728  -3.340  0.00  0.00    -0.491 OA
ATOM     27  C   UNL     1       4.870   6.159  -2.225  0.00  0.00    +0.277 C 
ENDBRANCH  24  26
BRANCH  23  28
ATOM     28  O   UNL     1       2.482   4.834  -5.393  0.00  0.00    -0.503 OA
ATOM     29  H   UNL     1       3.386   5.420  -5.617  0.00  0.00    +0.292 HD
ENDBRANCH  23  28
ENDBRANCH   4  20
BRANCH   3  30
ATOM     30  C   UNL     1      -0.279   5.669   0.526  0.00  0.00    +0.338 C 
ATOM     31  O   UNL     1       0.123   6.116   1.584  0.00  0.00    -0.245 OA
BRANCH  30  32
ATOM     32  O   UNL     1      -0.800   6.497  -0.403  0.00  0.00    -0.458 OA
BRANCH  32  33
ATOM     33  C   UNL     1      -0.850   7.888  -0.077  0.00  0.00    +0.177 C 
ATOM     34  C   UNL     1      -2.178   8.202   0.613  0.00  0.00    +0.044 C 
ATOM     35  C   UNL     1      -2.232   9.691   0.962  0.00  0.00    +0.004 C 
ATOM     36  C   UNL     1      -2.114  10.520  -0.319  0.00  0.00    +0.000 C 
ATOM     37  C   UNL     1      -0.785  10.205  -1.009  0.00  0.00    +0.004 C 
ATOM     38  C   UNL     1      -0.732   8.716  -1.358  0.00  0.00    +0.044 C 
ENDBRANCH  32  33
ENDBRANCH  30  32
ENDBRANCH   3  30
TORSDOF 7
