REMARK  Name = ZINC43142493
REMARK  7 active torsions:
REMARK  status: ('A' for Active; 'I' for Inactive)
REMARK    1  A    between atoms: C_1  and  C_2
REMARK    2  A    between atoms: C_5  and  N_9
REMARK    3  A    between atoms: C_6  and  C_8
REMARK    4  A    between atoms: N_12  and  C_13
REMARK    5  A    between atoms: N_12  and  C_14
REMARK    6  A    between atoms: C_14  and  C_15
REMARK    7  A    between atoms: C_16  and  C_20
REMARK                            x       y       z     vdW  Elec       q    Type
REMARK                         _______ _______ _______ _____ _____    ______ ____
ROOT
ATOM      1  N   UNL     1      -0.265  -4.306   0.238  0.00  0.00    -0.269 N 
ATOM      2  C   UNL     1      -0.287  -4.957  -0.942  0.00  0.00    +0.307 C 
ATOM      3  O   UNL     1      -0.421  -4.333  -1.977  0.00  0.00    -0.252 OA
ATOM      4  N   UNL     1      -0.160  -6.298  -0.975  0.00  0.00    -0.284 N 
ATOM      5  C   UNL     1       0.002  -7.049   0.273  0.00  0.00    +0.134 C 
ATOM      6  H   UNL     1      -0.091  -4.794   1.058  0.00  0.00    +0.156 HD
ENDROOT
BRANCH   1  11
ATOM      7  C   UNL     1      -1.191   1.288   0.410  0.00  0.00    +0.044 C 
ATOM      8  C   UNL     1      -0.945  -0.198   0.365  0.00  0.00    -0.050 A 
ATOM      9  C   UNL     1      -0.331  -0.762  -0.739  0.00  0.00    +0.005 A 
ATOM     10  C   UNL     1      -0.104  -2.123  -0.784  0.00  0.00    +0.024 A 
ATOM     11  C   UNL     1      -0.493  -2.926   0.281  0.00  0.00    +0.038 A 
ATOM     12  C   UNL     1      -1.109  -2.357   1.387  0.00  0.00    -0.029 A 
ATOM     13  C   UNL     1      -1.328  -0.993   1.428  0.00  0.00    +0.008 A 
ATOM     14  C   UNL     1      -1.533  -3.224   2.544  0.00  0.00    +0.045 C 
ENDBRANCH   1  11
BRANCH   4  15
ATOM     15  C   UNL     1      -0.184  -7.005  -2.257  0.00  0.00    +0.151 C 
BRANCH  15  16
ATOM     16  C   UNL     1       1.229  -7.249  -2.723  0.00  0.00    +0.010 A 
ATOM     17  C   UNL     1       1.986  -6.515  -3.575  0.00  0.00    -0.039 A 
ATOM     18  C   UNL     1       3.271  -6.934  -3.860  0.00  0.00    +0.011 A 
ATOM     19  C   UNL     1       3.737  -8.067  -3.280  0.00  0.00    +0.046 A 
ATOM     20  S   UNL     1       2.342  -8.576  -2.290  0.00  0.00    -0.100 S 
ATOM     21  C   UNL     1       1.433  -5.261  -4.201  0.00  0.00    +0.044 C 
ENDBRANCH  15  16
ENDBRANCH   4  15
TORSDOF 3
