REMARK  Name = ZINC38845092
REMARK  12 active torsions:
REMARK  status: ('A' for Active; 'I' for Inactive)
REMARK    1  A    between atoms: C_1  and  C_2
REMARK    2  A    between atoms: C_2  and  C_3
REMARK    3  A    between atoms: C_2  and  N_4
REMARK    4  A    between atoms: N_4  and  C_5
REMARK    5  A    between atoms: C_5  and  C_6
REMARK    6  A    between atoms: C_5  and  C_7
REMARK    7  A    between atoms: C_8  and  C_10
REMARK    8  A    between atoms: C_12  and  N_18
REMARK    9  A    between atoms: N_15  and  C_17
REMARK   10  A    between atoms: C_19  and  C_21
REMARK   11  A    between atoms: C_26  and  S_27
REMARK   12  A    between atoms: S_27  and  C_30
REMARK                            x       y       z     vdW  Elec       q    Type
REMARK                         _______ _______ _______ _____ _____    ______ ____
ROOT
ATOM      1  C   UNL     1      -4.926  -1.624  -0.159  0.00  0.00    +0.055 A 
ATOM      2  C   UNL     1      -4.495  -0.778   0.892  0.00  0.00    +0.043 A 
ATOM      3  C   UNL     1      -5.393  -0.404   1.849  0.00  0.00    +0.100 A 
ATOM      4  C   UNL     1      -6.726  -0.869   1.769  0.00  0.00    +0.272 A 
ATOM      5  O   UNL     1      -7.535  -0.540   2.620  0.00  0.00    -0.266 OA
ATOM      6  N   UNL     1      -7.108  -1.671   0.759  0.00  0.00    -0.316 N 
ATOM      7  C   UNL     1      -6.237  -2.047  -0.198  0.00  0.00    +0.102 A 
ATOM      8  C   UNL     1      -8.495  -2.140   0.696  0.00  0.00    +0.152 C 
ENDROOT
BRANCH   3   9
ATOM      9  N   UNL     1      -4.998   0.431   2.902  0.00  0.00    -0.277 N 
ATOM     10  C   UNL     1      -5.654   1.587   3.128  0.00  0.00    +0.250 C 
ATOM     11  O   UNL     1      -6.640   1.864   2.473  0.00  0.00    -0.270 OA
ATOM     12  H   UNL     1      -4.251   0.179   3.467  0.00  0.00    +0.155 HD
BRANCH  10  13
ATOM     13  C   UNL     1      -5.175   2.516   4.173  0.00  0.00    +0.062 A 
ATOM     14  C   UNL     1      -4.012   2.228   4.888  0.00  0.00    +0.015 A 
ATOM     15  C   UNL     1      -3.570   3.100   5.862  0.00  0.00    +0.001 A 
ATOM     16  C   UNL     1      -4.278   4.258   6.130  0.00  0.00    +0.002 A 
ATOM     17  C   UNL     1      -5.432   4.550   5.425  0.00  0.00    +0.028 A 
ATOM     18  C   UNL     1      -5.881   3.689   4.445  0.00  0.00    +0.106 A 
BRANCH  18  19
ATOM     19  S   UNL     1      -7.348   4.066   3.543  0.00  0.00    +0.059 S 
ATOM     20  O   UNL     1      -8.152   2.900   3.655  0.00  0.00    -0.164 OA
ATOM     21  O   UNL     1      -7.791   5.307   4.075  0.00  0.00    -0.164 OA
BRANCH  19  22
ATOM     22  C   UNL     1      -6.797   4.283   1.828  0.00  0.00    +0.485 C 
ATOM     23  F   UNL     1      -5.881   5.338   1.762  0.00  0.00    -0.183 F 
ATOM     24  F   UNL     1      -6.186   3.106   1.382  0.00  0.00    -0.183 F 
ENDBRANCH  19  22
ENDBRANCH  18  19
ENDBRANCH  10  13
ENDBRANCH   3   9
BRANCH   1  26
ATOM     25  N   UNL     1      -3.028  -1.191  -1.640  0.00  0.00    -0.292 N 
ATOM     26  C   UNL     1      -3.978  -2.044  -1.208  0.00  0.00    +0.249 C 
ATOM     27  O   UNL     1      -4.054  -3.160  -1.685  0.00  0.00    -0.270 OA
BRANCH  25  29
ATOM     28  C   UNL     1      -2.832   0.089  -3.715  0.00  0.00    +0.028 C 
ATOM     29  C   UNL     1      -2.564  -1.252  -3.028  0.00  0.00    +0.070 C 
ATOM     30  C   UNL     1      -1.063  -1.546  -3.051  0.00  0.00    +0.028 C 
ENDBRANCH  25  29
BRANCH  25  31
ATOM     31  C   UNL     1      -2.460  -0.202  -0.720  0.00  0.00    +0.070 C 
ATOM     32  C   UNL     1      -3.564   0.741  -0.239  0.00  0.00    +0.028 C 
ATOM     33  C   UNL     1      -1.842  -0.919   0.482  0.00  0.00    +0.028 C 
ENDBRANCH  25  31
ENDBRANCH   1  26
TORSDOF 7
