REMARK  Name = ZINC09275129
REMARK  15 active torsions:
REMARK  status: ('A' for Active; 'I' for Inactive)
REMARK    1  A    between atoms: C_1  and  C_2
REMARK    2  A    between atoms: C_2  and  N_67
REMARK    3  A    between atoms: C_3  and  C_4
REMARK    4  A    between atoms: C_3  and  N_67
REMARK    5  A    between atoms: C_5  and  C_6
REMARK    6  A    between atoms: C_5  and  N_67
REMARK    7  A    between atoms: C_6  and  C_7
REMARK    8  A    between atoms: C_7  and  N_8
REMARK    9  A    between atoms: C_9  and  C_25
REMARK   10  A    between atoms: C_12  and  C_13
REMARK   11  A    between atoms: C_12  and  O_20
REMARK   12  A    between atoms: C_28  and  O_31
REMARK   13  A    between atoms: O_31  and  C_32
REMARK   14  A    between atoms: C_32  and  C_33
REMARK   15  A    between atoms: C_32  and  C_34
REMARK                            x       y       z     vdW  Elec       q    Type
REMARK                         _______ _______ _______ _____ _____    ______ ____
ROOT
ATOM      1  N   UNL     1       6.764   2.434  -0.163  0.00  0.00    -0.284 N 
ATOM      2  C   UNL     1       6.027   1.180  -0.342  0.00  0.00    +0.144 C 
ATOM      3  C   UNL     1       4.579   1.556  -0.556  0.00  0.00    +0.071 C 
ATOM      4  C   UNL     1       3.521   0.695  -0.767  0.00  0.00    +0.133 C 
ATOM      5  C   UNL     1       4.527   2.958  -0.502  0.00  0.00    +0.249 C 
ATOM      6  O   UNL     1       3.529   3.642  -0.635  0.00  0.00    -0.282 OA
ATOM      7  C   UNL     1       5.905   3.463  -0.250  0.00  0.00    +0.288 C 
ATOM      8  O   UNL     1       6.208   4.634  -0.145  0.00  0.00    -0.266 OA
ENDROOT
BRANCH   4   9
ATOM      9  C   UNL     1       2.143   1.214  -0.793  0.00  0.00    +0.017 A 
ATOM     10  C   UNL     1       1.641   1.931   0.299  0.00  0.00    +0.013 A 
ATOM     11  C   UNL     1       0.349   2.409   0.270  0.00  0.00    +0.021 A 
ATOM     12  C   UNL     1      -0.450   2.190  -0.841  0.00  0.00    +0.041 A 
ATOM     13  C   UNL     1       0.041   1.480  -1.926  0.00  0.00    +0.021 A 
ATOM     14  C   UNL     1       1.329   0.992  -1.909  0.00  0.00    +0.013 A 
ATOM     15 CL   UNL     1      -2.074   2.801  -0.871  0.00  0.00    -0.084 Cl
ENDBRANCH   4   9
BRANCH   2  16
ATOM     16  C   UNL     1       6.161   0.322   0.889  0.00  0.00    -0.022 A 
ATOM     17  C   UNL     1       6.147   0.906   2.143  0.00  0.00    +0.009 A 
ATOM     18  C   UNL     1       6.264   0.121   3.273  0.00  0.00    +0.046 A 
ATOM     19  C   UNL     1       6.407  -1.253   3.150  0.00  0.00    +0.121 A 
ATOM     20  C   UNL     1       6.427  -1.836   1.892  0.00  0.00    +0.046 A 
ATOM     21  C   UNL     1       6.304  -1.047   0.764  0.00  0.00    +0.009 A 
BRANCH  19  22
ATOM     22  O   UNL     1       6.528  -2.027   4.261  0.00  0.00    -0.489 OA
BRANCH  22  23
ATOM     23  C   UNL     1       6.552  -3.442   4.066  0.00  0.00    +0.167 C 
ATOM     24  C   UNL     1       7.980  -3.888   3.744  0.00  0.00    +0.051 C 
ATOM     25  C   UNL     1       6.075  -4.141   5.341  0.00  0.00    +0.051 C 
ENDBRANCH  22  23
ENDBRANCH  19  22
ENDBRANCH   2  16
BRANCH   4  26
ATOM     26  O   UNL     1       3.749  -0.623  -0.950  0.00  0.00    -0.506 OA
ATOM     27  H   UNL     1       2.879  -1.096  -1.088  0.00  0.00    +0.292 HD
ENDBRANCH   4  26
BRANCH   1  28
ATOM     28  C   UNL     1       8.205   2.547   0.074  0.00  0.00    +0.107 C 
BRANCH  28  29
ATOM     29  C   UNL     1       8.936   2.655  -1.266  0.00  0.00    +0.000 C 
BRANCH  29  30
ATOM     30  C   UNL     1      10.441   2.774  -1.019  0.00  0.00    -0.077 C 
BRANCH  30  31
ATOM     31  N   UNL     1      11.133   2.856  -2.322  0.00  0.00    +0.379 N 
ATOM     32  H   UNL     1      10.822   2.077  -2.915  0.00  0.00    -0.082 HD
BRANCH  31  34
ATOM     33  C   UNL     1      11.288   5.318  -2.156  0.00  0.00    -0.017 C 
ATOM     34  C   UNL     1      10.801   4.131  -2.991  0.00  0.00    -0.082 C 
ENDBRANCH  31  34
BRANCH  31  35
ATOM     35  C   UNL     1      12.595   2.754  -2.125  0.00  0.00    -0.082 C 
ATOM     36  C   UNL     1      13.255   2.481  -3.478  0.00  0.00    -0.017 C 
ENDBRANCH  31  35
ENDBRANCH  30  31
ENDBRANCH  29  30
ENDBRANCH  28  29
ENDBRANCH   1  28
TORSDOF 11
