REMARK  Name = ZINC37122895
REMARK  7 active torsions:
REMARK  status: ('A' for Active; 'I' for Inactive)
REMARK    1  A    between atoms: C_1  and  C_2
REMARK    2  A    between atoms: C_8  and  N_13
REMARK    3  A    between atoms: N_13  and  C_14
REMARK    4  A    between atoms: C_14  and  C_16
REMARK    5  A    between atoms: C_14  and  C_17
REMARK    6  A    between atoms: C_19  and  C_23
REMARK    7  A    between atoms: C_21  and  C_22
REMARK                            x       y       z     vdW  Elec       q    Type
REMARK                         _______ _______ _______ _____ _____    ______ ____
ROOT
ATOM      1  C   UNL     1      -0.018   1.503   0.010  0.00  0.00    +0.044 C 
ATOM      2  C   UNL     1       0.002  -0.004   0.002  0.00  0.00    -0.050 A 
ATOM      3  C   UNL     1       0.006  -0.691  -1.198  0.00  0.00    +0.005 A 
ATOM      4  C   UNL     1       0.025  -2.070  -1.213  0.00  0.00    +0.024 A 
ATOM      5  C   UNL     1       0.040  -2.782  -0.015  0.00  0.00    +0.035 A 
ATOM      6  C   UNL     1       0.037  -2.081   1.184  0.00  0.00    -0.031 A 
ATOM      7  C   UNL     1       0.023  -0.704   1.196  0.00  0.00    +0.007 A 
ATOM      8  C   UNL     1       0.056  -3.118   2.283  0.00  0.00    +0.050 C 
ATOM      9  C   UNL     1       0.071  -4.439   1.543  0.00  0.00    +0.208 C 
ATOM     10  O   UNL     1       0.088  -5.544   2.042  0.00  0.00    -0.277 OA
ATOM     11  N   UNL     1       0.060  -4.156   0.229  0.00  0.00    -0.286 N 
ATOM     12  H   UNL     1       0.066  -4.829  -0.469  0.00  0.00    +0.155 HD
ENDROOT
BRANCH   8  13
ATOM     13  N   UNL     1      -1.147  -3.006   3.118  0.00  0.00    +0.394 N 
ATOM     14  H   UNL     1      -1.226  -2.063   3.469  0.00  0.00    -0.083 HD
ATOM     15  H   UNL     1      -1.962  -3.229   2.566  0.00  0.00    -0.083 HD
BRANCH  13  16
ATOM     16  C   UNL     1      -1.049  -3.941   4.247  0.00  0.00    -0.042 C 
ATOM     17  C   UNL     1       0.113  -3.527   5.153  0.00  0.00    -0.009 C 
BRANCH  16  18
ATOM     18  C   UNL     1      -2.334  -3.915   5.034  0.00  0.00    -0.051 A 
ATOM     19  C   UNL     1      -3.202  -2.845   4.925  0.00  0.00    +0.013 A 
ATOM     20  C   UNL     1      -4.349  -2.853   5.646  0.00  0.00    -0.013 A 
ATOM     21  S   UNL     1      -4.227  -4.407   6.517  0.00  0.00    -0.098 S 
ATOM     22  C   UNL     1      -2.658  -4.943   5.856  0.00  0.00    -0.011 A 
ATOM     23  C   UNL     1      -1.892  -6.210   6.138  0.00  0.00    +0.052 C 
ATOM     24  C   UNL     1      -5.444  -1.818   5.700  0.00  0.00    +0.051 C 
ENDBRANCH  16  18
ENDBRANCH  13  16
ENDBRANCH   8  13
TORSDOF 3
