REMARK  Name = ZINC64202371
REMARK  6 active torsions:
REMARK  status: ('A' for Active; 'I' for Inactive)
REMARK    1  A    between atoms: C_1  and  C_2
REMARK    2  A    between atoms: C_4  and  C_22
REMARK    3  A    between atoms: C_8  and  S_12
REMARK    4  A    between atoms: S_12  and  C_13
REMARK    5  A    between atoms: C_13  and  C_14
REMARK    6  A    between atoms: C_17  and  C_20
REMARK                            x       y       z     vdW  Elec       q    Type
REMARK                         _______ _______ _______ _____ _____    ______ ____
ROOT
ATOM      1  C   UNL     1      -0.019   1.526   0.010  0.00  0.00    +0.024 C 
ATOM      2  C   UNL     1       0.002  -0.004   0.002  0.00  0.00    +0.081 C 
ATOM      3  C   UNL     1      -1.399  -0.564   0.087  0.00  0.00    -0.012 C 
ATOM      4  C   UNL     1      -1.700  -1.335   1.180  0.00  0.00    +0.075 C 
ATOM      5  C   UNL     1      -0.634  -1.549   2.171  0.00  0.00    +0.113 C 
ATOM      6  N   UNL     1      -0.852  -2.276   3.240  0.00  0.00    -0.217 NA
ATOM      7  C   UNL     1      -2.037  -2.841   3.463  0.00  0.00    +0.182 C 
ATOM      8  N   UNL     1      -3.062  -2.714   2.639  0.00  0.00    -0.151 NA
ATOM      9  C   UNL     1      -2.993  -2.005   1.511  0.00  0.00    +0.272 C 
ATOM     10  O   UNL     1      -3.959  -1.907   0.771  0.00  0.00    -0.268 OA
ATOM     11  S   UNL     1       0.767  -0.659   1.539  0.00  0.00    -0.097 S 
ENDROOT
BRANCH   3  12
ATOM     12  C   UNL     1      -2.392  -0.293  -0.953  0.00  0.00    -0.020 A 
ATOM     13  C   UNL     1      -2.204  -0.785  -2.253  0.00  0.00    +0.011 A 
ATOM     14  C   UNL     1      -3.143  -0.527  -3.226  0.00  0.00    +0.039 A 
ATOM     15  C   UNL     1      -4.274   0.218  -2.923  0.00  0.00    +0.123 A 
ATOM     16  C   UNL     1      -4.468   0.709  -1.639  0.00  0.00    +0.039 A 
ATOM     17  C   UNL     1      -3.541   0.454  -0.653  0.00  0.00    +0.011 A 
ATOM     18  F   UNL     1      -5.191   0.468  -3.883  0.00  0.00    -0.205 F 
ENDBRANCH   3  12
BRANCH   7  19
ATOM     19  S   UNL     1      -2.248  -3.804   4.924  0.00  0.00    -0.084 S 
BRANCH  19  20
ATOM     20  C   UNL     1      -3.969  -4.371   4.830  0.00  0.00    +0.133 C 
BRANCH  20  21
ATOM     21  C   UNL     1      -4.290  -5.231   6.055  0.00  0.00    +0.253 C 
ATOM     22  N   UNL     1      -4.077  -4.461   7.287  0.00  0.00    -0.346 N 
ATOM     23  C   UNL     1      -3.167  -5.043   7.987  0.00  0.00    +0.100 C 
ATOM     24  N   UNL     1      -2.699  -6.168   7.374  0.00  0.00    -0.252 N 
ATOM     25  O   UNL     1      -3.379  -6.338   6.138  0.00  0.00    -0.248 OA
ATOM     26  C   UNL     1      -2.679  -4.542   9.322  0.00  0.00    +0.085 C 
ATOM     27  H   UNL     1      -2.013  -6.757   7.725  0.00  0.00    +0.195 HD
ATOM     28  H   UNL     1      -4.545  -3.647   7.532  0.00  0.00    +0.163 HD
ENDBRANCH  20  21
ENDBRANCH  19  20
ENDBRANCH   7  19
TORSDOF 4
