REMARK  Name = ZINC45521324
REMARK  10 active torsions:
REMARK  status: ('A' for Active; 'I' for Inactive)
REMARK    1  A    between atoms: C_1  and  C_2
REMARK    2  A    between atoms: C_2  and  C_3
REMARK    3  A    between atoms: C_2  and  C_4
REMARK    4  A    between atoms: C_9  and  O_10
REMARK    5  A    between atoms: O_10  and  C_11
REMARK    6  A    between atoms: C_11  and  C_12
REMARK    7  A    between atoms: C_12  and  C_14
REMARK    8  A    between atoms: C_12  and  O_32
REMARK    9  A    between atoms: C_14  and  N_15
REMARK   10  A    between atoms: C_18  and  N_21
REMARK                            x       y       z     vdW  Elec       q    Type
REMARK                         _______ _______ _______ _____ _____    ______ ____
ROOT
ATOM      1  N   UNL     1      -5.249  -4.134   3.061  0.00  0.00    +0.382 N 
ATOM      2  C   UNL     1      -5.166  -4.844   1.779  0.00  0.00    -0.077 C 
ATOM      3  C   UNL     1      -6.575  -5.151   1.268  0.00  0.00    +0.006 C 
ATOM      4  C   UNL     1      -7.304  -6.026   2.292  0.00  0.00    +0.089 C 
ATOM      5  C   UNL     1      -7.320  -5.307   3.644  0.00  0.00    +0.006 C 
ATOM      6  C   UNL     1      -5.883  -4.995   4.067  0.00  0.00    -0.077 C 
ATOM      7  H   UNL     1      -5.798  -3.296   2.944  0.00  0.00    -0.082 HD
ENDROOT
BRANCH   4   8
ATOM      8  N   UNL     1      -8.680  -6.260   1.846  0.00  0.00    -0.289 N 
ATOM      9  C   UNL     1      -9.252  -7.503   1.586  0.00  0.00    +0.070 A 
ATOM     10  C   UNL     1      -8.774  -8.803   1.652  0.00  0.00    +0.028 A 
ATOM     11  C   UNL     1      -9.604  -9.857   1.324  0.00  0.00    +0.002 A 
ATOM     12  C   UNL     1     -10.909  -9.622   0.929  0.00  0.00    +0.002 A 
ATOM     13  C   UNL     1     -11.394  -8.330   0.860  0.00  0.00    +0.028 A 
ATOM     14  C   UNL     1     -10.569  -7.265   1.188  0.00  0.00    +0.067 A 
ATOM     15  N   UNL     1     -10.756  -5.885   1.218  0.00  0.00    -0.306 N 
ATOM     16  H   UNL     1     -11.576  -5.418   0.992  0.00  0.00    +0.170 HD
ATOM     17  C   UNL     1      -9.608  -5.310   1.622  0.00  0.00    +0.328 A 
ATOM     18  O   UNL     1      -9.434  -4.114   1.760  0.00  0.00    -0.247 OA
ENDBRANCH   4   8
BRANCH   1  19
ATOM     19  C   UNL     1      -3.897  -3.774   3.509  0.00  0.00    -0.044 C 
BRANCH  19  20
ATOM     20  C   UNL     1      -3.282  -2.778   2.523  0.00  0.00    +0.135 C 
BRANCH  20  21
ATOM     21  O   UNL     1      -4.027  -1.559   2.552  0.00  0.00    -0.390 OA
ATOM     22  H   UNL     1      -4.045  -1.129   3.418  0.00  0.00    +0.210 HD
ENDBRANCH  20  21
BRANCH  20  23
ATOM     23  C   UNL     1      -1.831  -2.498   2.920  0.00  0.00    +0.258 C 
BRANCH  23  24
ATOM     24  O   UNL     1      -1.222  -1.660   1.936  0.00  0.00    -0.489 OA
BRANCH  24  30
ATOM     25  C   UNL     1       0.731  -0.503   1.223  0.00  0.00    -0.003 A 
ATOM     26  C   UNL     1       2.049  -0.148   1.434  0.00  0.00    +0.007 A 
ATOM     27  C   UNL     1       2.719  -0.607   2.554  0.00  0.00    +0.001 A 
ATOM     28  C   UNL     1       2.071  -1.420   3.465  0.00  0.00    +0.004 A 
ATOM     29  C   UNL     1       0.753  -1.778   3.259  0.00  0.00    +0.046 A 
ATOM     30  C   UNL     1       0.077  -1.315   2.138  0.00  0.00    +0.124 A 
BRANCH  25  32
ATOM     31  C   UNL     1      -0.019   1.526   0.010  0.00  0.00    +0.012 C 
ATOM     32  C   UNL     1       0.002  -0.004   0.002  0.00  0.00    +0.016 C 
ATOM     33  C   UNL     1       0.718  -0.497  -1.257  0.00  0.00    +0.012 C 
ENDBRANCH  25  32
ENDBRANCH  24  30
ENDBRANCH  23  24
ENDBRANCH  20  23
ENDBRANCH  19  20
ENDBRANCH   1  19
TORSDOF 8
