REMARK  Name = ZINC09120408
REMARK  13 active torsions:
REMARK  status: ('A' for Active; 'I' for Inactive)
REMARK    1  A    between atoms: C_1  and  C_2
REMARK    2  A    between atoms: C_2  and  C_3
REMARK    3  A    between atoms: C_3  and  N_4
REMARK    4  A    between atoms: C_5  and  N_32
REMARK    5  A    between atoms: C_6  and  C_13
REMARK    6  A    between atoms: N_9  and  C_12
REMARK    7  A    between atoms: C_13  and  C_15
REMARK    8  A    between atoms: C_15  and  S_16
REMARK    9  A    between atoms: S_16  and  C_17
REMARK   10  A    between atoms: C_19  and  C_23
REMARK   11  A    between atoms: C_23  and  O_24
REMARK   12  A    between atoms: O_24  and  C_25
REMARK   13  A    between atoms: C_30  and  C_31
REMARK                            x       y       z     vdW  Elec       q    Type
REMARK                         _______ _______ _______ _____ _____    ______ ____
ROOT
ATOM      1  C   UNL     1      -1.407  -4.594  -2.506  0.00  0.00    +0.182 C 
ATOM      2  O   UNL     1      -1.333  -3.924  -3.517  0.00  0.00    -0.291 OA
ENDROOT
BRANCH   1   5
ATOM      3  N   UNL     1      -1.425  -2.005   0.118  0.00  0.00    -0.281 N 
ATOM      4  C   UNL     1      -1.432  -2.566  -1.127  0.00  0.00    +0.116 A 
ATOM      5  C   UNL     1      -1.401  -3.966  -1.242  0.00  0.00    +0.120 A 
ATOM      6  C   UNL     1      -1.361  -4.756  -0.004  0.00  0.00    +0.269 A 
ATOM      7  O   UNL     1      -1.332  -5.972  -0.044  0.00  0.00    -0.267 OA
ATOM      8  N   UNL     1      -1.357  -4.105   1.177  0.00  0.00    -0.263 N 
ATOM      9  C   UNL     1      -1.383  -2.763   1.224  0.00  0.00    +0.333 A 
ATOM     10  O   UNL     1      -1.374  -2.215   2.309  0.00  0.00    -0.246 OA
ATOM     11  C   UNL     1      -1.318  -4.872   2.425  0.00  0.00    +0.157 C 
BRANCH   4  12
ATOM     12  N   UNL     1      -1.470  -1.782  -2.239  0.00  0.00    -0.344 N 
ATOM     13  H   UNL     1      -1.571  -0.821  -2.151  0.00  0.00    +0.144 HD
ATOM     14  H   UNL     1      -1.395  -2.183  -3.118  0.00  0.00    +0.144 HD
ENDBRANCH   4  12
BRANCH   3  15
ATOM     15  C   UNL     1      -1.457  -0.546   0.248  0.00  0.00    +0.128 C 
BRANCH  15  17
ATOM     16  C   UNL     1      -0.060   1.520   0.399  0.00  0.00    +0.005 C 
ATOM     17  C   UNL     1      -0.026  -0.003   0.263  0.00  0.00    +0.018 C 
ENDBRANCH  15  17
ENDBRANCH   3  15
ENDBRANCH   1   5
BRANCH   1  18
ATOM     18  C   UNL     1      -1.506  -6.094  -2.602  0.00  0.00    +0.157 C 
BRANCH  18  19
ATOM     19  S   UNL     1      -1.490  -6.591  -4.347  0.00  0.00    -0.079 S 
BRANCH  19  20
ATOM     20  C   UNL     1      -1.610  -8.348  -4.291  0.00  0.00    +0.185 A 
ATOM     21  N   UNL     1      -1.691  -9.085  -3.203  0.00  0.00    -0.202 NA
ATOM     22  C   UNL     1      -1.768 -10.374  -3.538  0.00  0.00    +0.189 A 
ATOM     23  N   UNL     1      -1.738 -10.480  -4.840  0.00  0.00    -0.153 NA
ATOM     24  H   UNL     1      -1.602  -8.925  -6.292  0.00  0.00    +0.191 HD
ATOM     25  N   UNL     1      -1.641  -9.178  -5.356  0.00  0.00    -0.253 N 
BRANCH  22  26
ATOM     26  C   UNL     1      -1.873 -11.524  -2.570  0.00  0.00    +0.306 C 
BRANCH  26  27
ATOM     27  O   UNL     1      -3.250 -11.797  -2.302  0.00  0.00    -0.484 OA
BRANCH  27  28
ATOM     28  C   UNL     1      -3.522 -12.813  -1.442  0.00  0.00    +0.124 A 
ATOM     29  C   UNL     1      -2.484 -13.529  -0.862  0.00  0.00    +0.046 A 
ATOM     30  C   UNL     1      -2.763 -14.561   0.012  0.00  0.00    +0.004 A 
ATOM     31  C   UNL     1      -4.074 -14.881   0.311  0.00  0.00    +0.000 A 
ATOM     32  C   UNL     1      -5.110 -14.169  -0.266  0.00  0.00    +0.007 A 
ATOM     33  C   UNL     1      -4.837 -13.132  -1.137  0.00  0.00    -0.009 A 
ATOM     34  C   UNL     1      -5.966 -12.353  -1.760  0.00  0.00    +0.047 C 
ENDBRANCH  27  28
ENDBRANCH  26  27
ENDBRANCH  22  26
ENDBRANCH  19  20
ENDBRANCH  18  19
ENDBRANCH   1  18
TORSDOF 10
