REMARK  Name = ZINC36128841
REMARK  6 active torsions:
REMARK  status: ('A' for Active; 'I' for Inactive)
REMARK    1  A    between atoms: C_1  and  C_2
REMARK    2  A    between atoms: C_2  and  C_3
REMARK    3  A    between atoms: C_7  and  C_22
REMARK    4  A    between atoms: N_10  and  S_11
REMARK    5  A    between atoms: S_11  and  C_14
REMARK    6  A    between atoms: C_16  and  N_21
REMARK                            x       y       z     vdW  Elec       q    Type
REMARK                         _______ _______ _______ _____ _____    ______ ____
ROOT
ATOM      1  S   UNL     1      -1.356   0.695  -2.404  0.00  0.00    +0.063 S 
ATOM      2  O   UNL     1       0.026   0.642  -2.075  0.00  0.00    -0.153 OA
ATOM      3  O   UNL     1      -1.836   0.448  -3.718  0.00  0.00    -0.153 OA
ENDROOT
BRANCH   1   9
ATOM      4  C   UNL     1      -1.674  -0.586  -0.022  0.00  0.00    +0.105 C 
ATOM      5  C   UNL     1      -1.496  -2.090   0.217  0.00  0.00    +0.180 C 
ATOM      6  O   UNL     1      -2.690  -2.773  -0.170  0.00  0.00    -0.374 OA
ATOM      7  C   UNL     1      -3.012  -2.649  -1.558  0.00  0.00    +0.131 C 
ATOM      8  C   UNL     1      -3.268  -1.174  -1.887  0.00  0.00    +0.141 C 
ATOM      9  N   UNL     1      -2.121  -0.385  -1.409  0.00  0.00    -0.169 NA
ATOM     10  C   UNL     1      -4.267  -3.468  -1.866  0.00  0.00    +0.039 C 
BRANCH   4  12
ATOM     11  C   UNL     1       0.040   0.056   1.679  0.00  0.00    +0.005 C 
ATOM     12  C   UNL     1      -0.341   0.133   0.199  0.00  0.00    +0.019 C 
ENDBRANCH   4  12
ENDBRANCH   1   9
BRANCH   1  13
ATOM     13  C   UNL     1      -1.919   2.304  -1.956  0.00  0.00    +0.125 A 
ATOM     14  C   UNL     1      -1.035   3.220  -1.419  0.00  0.00    +0.052 A 
ATOM     15  C   UNL     1      -1.479   4.487  -1.067  0.00  0.00    +0.026 A 
ATOM     16  C   UNL     1      -2.812   4.831  -1.257  0.00  0.00    +0.024 A 
ATOM     17  C   UNL     1      -3.691   3.912  -1.794  0.00  0.00    +0.024 A 
ATOM     18  C   UNL     1      -3.244   2.651  -2.149  0.00  0.00    +0.067 A 
ATOM     19 CL   UNL     1      -4.351   1.500  -2.830  0.00  0.00    -0.082 Cl
BRANCH  15  20
ATOM     20  N   UNL     1      -0.587   5.415  -0.523  0.00  0.00    -0.358 N 
ATOM     21  H   UNL     1       0.343   5.175  -0.391  0.00  0.00    +0.142 HD
ATOM     22  H   UNL     1      -0.898   6.301  -0.278  0.00  0.00    +0.142 HD
ENDBRANCH  15  20
ENDBRANCH   1  13
TORSDOF 4
