REMARK  Name = ZINC35742469
REMARK  13 active torsions:
REMARK  status: ('A' for Active; 'I' for Inactive)
REMARK    1  A    between atoms: C_1  and  C_2
REMARK    2  A    between atoms: C_2  and  C_3
REMARK    3  A    between atoms: C_3  and  N_4
REMARK    4  A    between atoms: N_4  and  C_5
REMARK    5  A    between atoms: N_4  and  S_28
REMARK    6  A    between atoms: C_5  and  C_6
REMARK    7  A    between atoms: C_16  and  C_18
REMARK    8  A    between atoms: C_18  and  O_19
REMARK    9  A    between atoms: O_19  and  C_20
REMARK   10  A    between atoms: C_23  and  C_27
REMARK   11  A    between atoms: C_25  and  C_26
REMARK   12  A    between atoms: S_28  and  C_31
REMARK   13  A    between atoms: C_34  and  C_37
REMARK                            x       y       z     vdW  Elec       q    Type
REMARK                         _______ _______ _______ _____ _____    ______ ____
ROOT
ATOM      1  C   UNL     1      -2.639  -2.902   1.894  0.00  0.00    +0.232 C 
ATOM      2  O   UNL     1      -3.622  -2.449   1.346  0.00  0.00    -0.274 OA
ATOM      3  N   UNL     1      -2.763  -3.554   3.067  0.00  0.00    -0.290 N 
ATOM      4  C   UNL     1      -1.578  -4.103   3.744  0.00  0.00    +0.114 C 
ATOM      5  C   UNL     1      -1.706  -5.633   3.776  0.00  0.00    +0.061 C 
ATOM      6  C   UNL     1      -3.111  -5.989   4.144  0.00  0.00    -0.004 A 
ATOM      7  C   UNL     1      -4.210  -5.187   4.119  0.00  0.00    -0.014 A 
ATOM      8  C   UNL     1      -5.417  -5.767   4.505  0.00  0.00    +0.013 A 
ATOM      9  C   UNL     1      -5.452  -7.065   4.886  0.00  0.00    +0.046 A 
ATOM     10  S   UNL     1      -3.740  -7.546   4.712  0.00  0.00    -0.101 S 
ATOM     11  C   UNL     1      -4.083  -3.722   3.691  0.00  0.00    +0.144 C 
ENDROOT
BRANCH   1  12
ATOM     12  C   UNL     1      -1.281  -2.736   1.264  0.00  0.00    +0.205 C 
BRANCH  12  13
ATOM     13  N   UNL     1      -1.413  -1.998   0.005  0.00  0.00    -0.168 NA
BRANCH  13  14
ATOM     14  S   UNL     1      -1.541  -2.820  -1.427  0.00  0.00    +0.061 S 
ATOM     15  O   UNL     1      -2.046  -4.111  -1.111  0.00  0.00    -0.153 OA
ATOM     16  O   UNL     1      -2.195  -1.949  -2.339  0.00  0.00    -0.153 OA
BRANCH  14  17
ATOM     17  C   UNL     1       0.094  -3.055  -2.040  0.00  0.00    +0.106 A 
ATOM     18  C   UNL     1       0.666  -2.106  -2.866  0.00  0.00    +0.029 A 
ATOM     19  C   UNL     1       1.949  -2.290  -3.347  0.00  0.00    +0.005 A 
ATOM     20  C   UNL     1       2.660  -3.424  -3.002  0.00  0.00    -0.050 A 
ATOM     21  C   UNL     1       2.089  -4.373  -2.175  0.00  0.00    +0.005 A 
ATOM     22  C   UNL     1       0.808  -4.187  -1.691  0.00  0.00    +0.029 A 
ATOM     23  C   UNL     1       4.058  -3.625  -3.527  0.00  0.00    +0.044 C 
ENDBRANCH  14  17
ENDBRANCH  13  14
BRANCH  13  24
ATOM     24  C   UNL     1      -1.433  -0.534   0.013  0.00  0.00    +0.110 C 
BRANCH  24  26
ATOM     25  C   UNL     1      -0.019   1.526   0.010  0.00  0.00    +0.005 C 
ATOM     26  C   UNL     1       0.002  -0.004   0.002  0.00  0.00    +0.014 C 
ENDBRANCH  24  26
ENDBRANCH  13  24
ENDBRANCH  12  13
ENDBRANCH   1  12
BRANCH  11  27
ATOM     27  C   UNL     1      -4.198  -2.809   4.913  0.00  0.00    +0.256 C 
BRANCH  27  28
ATOM     28  O   UNL     1      -3.258  -3.223   5.907  0.00  0.00    -0.490 OA
BRANCH  28  29
ATOM     29  C   UNL     1      -3.231  -2.511   7.065  0.00  0.00    +0.124 A 
ATOM     30  C   UNL     1      -4.094  -1.440   7.242  0.00  0.00    +0.046 A 
ATOM     31  C   UNL     1      -4.064  -0.718   8.420  0.00  0.00    +0.007 A 
ATOM     32  C   UNL     1      -3.175  -1.063   9.421  0.00  0.00    -0.050 A 
ATOM     33  C   UNL     1      -2.313  -2.130   9.246  0.00  0.00    +0.010 A 
ATOM     34  C   UNL     1      -2.343  -2.858   8.073  0.00  0.00    -0.009 A 
ATOM     35  C   UNL     1      -1.408  -4.025   7.885  0.00  0.00    +0.047 C 
ATOM     36  C   UNL     1      -3.145  -0.274  10.705  0.00  0.00    +0.044 C 
ENDBRANCH  28  29
ENDBRANCH  27  28
ENDBRANCH  11  27
TORSDOF 9
