REMARK  Name = ZINC63868691
REMARK  6 active torsions:
REMARK  status: ('A' for Active; 'I' for Inactive)
REMARK    1  A    between atoms: C_1  and  C_2
REMARK    2  A    between atoms: C_4  and  S_9
REMARK    3  A    between atoms: C_5  and  C_8
REMARK    4  A    between atoms: S_9  and  C_10
REMARK    5  A    between atoms: C_15  and  N_16
REMARK    6  A    between atoms: C_17  and  C_19
REMARK                            x       y       z     vdW  Elec       q    Type
REMARK                         _______ _______ _______ _____ _____    ______ ____
ROOT
ATOM      1  C   UNL     1      -3.994  -1.519  -0.496  0.00  0.00    +0.034 A 
ATOM      2  C   UNL     1      -3.832  -2.157   0.726  0.00  0.00    +0.017 A 
ATOM      3  C   UNL     1      -4.876  -2.879   1.272  0.00  0.00    +0.001 A 
ATOM      4  C   UNL     1      -6.084  -2.969   0.604  0.00  0.00    +0.002 A 
ATOM      5  C   UNL     1      -6.254  -2.337  -0.614  0.00  0.00    +0.024 A 
ATOM      6  C   UNL     1      -5.214  -1.605  -1.167  0.00  0.00    +0.047 A 
ENDROOT
BRANCH   6   7
ATOM      7  N   UNL     1      -5.386  -0.960  -2.398  0.00  0.00    -0.286 N 
ATOM      8  C   UNL     1      -6.627  -0.703  -2.856  0.00  0.00    +0.207 C 
ATOM      9  O   UNL     1      -7.592  -0.940  -2.160  0.00  0.00    -0.277 OA
ATOM     10  H   UNL     1      -4.612  -0.697  -2.920  0.00  0.00    +0.155 HD
BRANCH   8  11
ATOM     11  C   UNL     1      -6.816  -0.123  -4.234  0.00  0.00    +0.040 C 
ATOM     12  C   UNL     1      -6.175   1.243  -4.319  0.00  0.00    -0.040 C 
ATOM     13  C   UNL     1      -6.984   2.067  -4.937  0.00  0.00    -0.051 C 
ATOM     14  C   UNL     1      -8.247   1.335  -5.327  0.00  0.00    -0.054 C 
ATOM     15  N   UNL     1      -8.256   0.100  -4.504  0.00  0.00    +0.391 N 
ATOM     16  H   UNL     1      -8.646  -0.673  -5.022  0.00  0.00    -0.084 HD
ATOM     17  H   UNL     1      -8.763   0.248  -3.644  0.00  0.00    -0.084 HD
ENDBRANCH   8  11
ENDBRANCH   6   7
BRANCH   1  18
ATOM     18  S   UNL     1      -2.664  -0.597  -1.194  0.00  0.00    -0.088 S 
BRANCH  18  21
ATOM     19  C   UNL     1       0.071  -2.725  -1.148  0.00  0.00    +0.040 C 
ATOM     20  C   UNL     1      -0.587  -2.221   0.138  0.00  0.00    +0.163 C 
ATOM     21  C   UNL     1      -1.312  -0.908  -0.108  0.00  0.00    +0.039 C 
ATOM     22  C   UNL     1      -0.672  -0.034   0.707  0.00  0.00    +0.072 C 
ATOM     23  N   UNL     1       0.305  -0.647   1.378  0.00  0.00    -0.158 NA
ATOM     24  N   UNL     1       0.431  -1.853   1.136  0.00  0.00    -0.179 NA
ATOM     25  C   UNL     1      -1.017   1.427   0.836  0.00  0.00    +0.068 C 
ENDBRANCH  18  21
ENDBRANCH   1  18
TORSDOF 4
