REMARK  Name = ZINC22739020
REMARK  6 active torsions:
REMARK  status: ('A' for Active; 'I' for Inactive)
REMARK    1  A    between atoms: C_1  and  N_2
REMARK    2  A    between atoms: N_2  and  C_3
REMARK    3  A    between atoms: N_2  and  S_16
REMARK    4  A    between atoms: C_3  and  C_4
REMARK    5  A    between atoms: N_6  and  C_7
REMARK    6  A    between atoms: S_16  and  C_19
REMARK                            x       y       z     vdW  Elec       q    Type
REMARK                         _______ _______ _______ _____ _____    ______ ____
ROOT
ATOM      1  C   UNL     1       3.396  -2.173   0.401  0.00  0.00    +0.132 C 
ATOM      2  N   UNL     1       3.261  -3.416  -0.362  0.00  0.00    -0.171 NA
ENDROOT
BRANCH   2   3
ATOM      3  S   UNL     1       2.929  -4.836   0.421  0.00  0.00    +0.061 S 
ATOM      4  O   UNL     1       3.374  -4.676   1.760  0.00  0.00    -0.153 OA
ATOM      5  O   UNL     1       3.399  -5.882  -0.418  0.00  0.00    -0.153 OA
BRANCH   3   6
ATOM      6  C   UNL     1       1.175  -4.996   0.489  0.00  0.00    +0.109 A 
ATOM      7  C   UNL     1       0.501  -5.638  -0.532  0.00  0.00    +0.032 A 
ATOM      8  C   UNL     1      -0.875  -5.764  -0.483  0.00  0.00    +0.051 A 
ATOM      9  C   UNL     1      -1.582  -5.245   0.592  0.00  0.00    +0.162 A 
ATOM     10  C   UNL     1      -0.903  -4.602   1.620  0.00  0.00    +0.164 A 
ATOM     11  C   UNL     1       0.477  -4.478   1.563  0.00  0.00    +0.078 A 
ATOM     12  O   UNL     1      -1.577  -4.094   2.687  0.00  0.00    -0.485 OA
ATOM     13  C   UNL     1      -2.987  -3.906   2.529  0.00  0.00    +0.270 C 
ATOM     14  C   UNL     1      -3.572  -5.174   1.891  0.00  0.00    +0.270 C 
ATOM     15  O   UNL     1      -2.937  -5.369   0.622  0.00  0.00    -0.485 OA
ENDBRANCH   3   6
ENDBRANCH   2   3
BRANCH   2  16
ATOM     16  C   UNL     1       3.421  -3.402  -1.818  0.00  0.00    +0.205 C 
BRANCH  16  17
ATOM     17  C   UNL     1       2.110  -3.033  -2.464  0.00  0.00    +0.233 C 
ATOM     18  O   UNL     1       1.138  -2.804  -1.776  0.00  0.00    -0.274 OA
ATOM     19  N   UNL     1       2.018  -2.957  -3.807  0.00  0.00    -0.282 N 
ATOM     20  H   UNL     1       2.917  -3.084  -4.428  0.00  0.00    +0.155 HD
BRANCH  19  21
ATOM     21  C   UNL     1       0.778  -2.717  -4.411  0.00  0.00    +0.071 A 
ATOM     22  C   UNL     1      -0.027  -3.782  -4.795  0.00  0.00    +0.065 A 
ATOM     23  C   UNL     1      -1.253  -3.542  -5.387  0.00  0.00    +0.042 A 
ATOM     24  C   UNL     1      -1.674  -2.242  -5.607  0.00  0.00    +0.044 A 
ATOM     25  C   UNL     1      -0.872  -1.179  -5.230  0.00  0.00    +0.042 A 
ATOM     26  C   UNL     1       0.352  -1.413  -4.633  0.00  0.00    +0.065 A 
ATOM     27 CL   UNL     1       1.357  -0.079  -4.160  0.00  0.00    -0.082 Cl
ATOM     28 CL   UNL     1      -3.211  -1.944  -6.357  0.00  0.00    -0.083 Cl
ATOM     29 CL   UNL     1       0.503  -5.413  -4.526  0.00  0.00    -0.082 Cl
ENDBRANCH  19  21
ENDBRANCH  16  17
ENDBRANCH   2  16
TORSDOF 5
