REMARK  Name = ZINC06149187
REMARK  14 active torsions:
REMARK  status: ('A' for Active; 'I' for Inactive)
REMARK    1  A    between atoms: C_1  and  C_2
REMARK    2  A    between atoms: C_2  and  C_3
REMARK    3  A    between atoms: C_3  and  C_4
REMARK    4  A    between atoms: C_3  and  C_5
REMARK    5  A    between atoms: C_3  and  N_6
REMARK    6  A    between atoms: C_7  and  C_11
REMARK    7  A    between atoms: C_11  and  C_13
REMARK    8  A    between atoms: C_11  and  N_67
REMARK    9  A    between atoms: C_17  and  O_25
REMARK   10  A    between atoms: O_25  and  C_26
REMARK   11  A    between atoms: C_27  and  C_28
REMARK   12  A    between atoms: C_27  and  N_67
REMARK   13  A    between atoms: C_33  and  C_34
REMARK   14  A    between atoms: C_33  and  N_67
REMARK                            x       y       z     vdW  Elec       q    Type
REMARK                         _______ _______ _______ _____ _____    ______ ____
ROOT
ATOM      1  C   UNL     1      -0.012   0.693  -0.314  0.00  0.00    +0.040 C 
ENDROOT
BRANCH   1   2
ATOM      2  C   UNL     1       1.007   0.168   0.665  0.00  0.00    +0.011 A 
ATOM      3  C   UNL     1       1.685  -0.973   0.389  0.00  0.00    +0.017 A 
ATOM      4  C   UNL     1       2.668  -1.456   1.360  0.00  0.00    +0.002 A 
ATOM      5  C   UNL     1       3.397  -2.627   1.128  0.00  0.00    +0.055 A 
ATOM      6  C   UNL     1       4.316  -3.054   2.064  0.00  0.00    +0.121 A 
ATOM      7  C   UNL     1       4.519  -2.325   3.234  0.00  0.00    +0.047 A 
ATOM      8  C   UNL     1       3.807  -1.171   3.474  0.00  0.00    +0.030 A 
ATOM      9  C   UNL     1       2.876  -0.723   2.543  0.00  0.00    +0.049 A 
ATOM     10  N   UNL     1       2.153   0.432   2.765  0.00  0.00    -0.322 N 
ATOM     11  H   UNL     1       2.298   0.950   3.607  0.00  0.00    +0.169 HD
ATOM     12  C   UNL     1       1.256   0.870   1.864  0.00  0.00    +0.251 A 
ATOM     13  O   UNL     1       0.640   1.897   2.090  0.00  0.00    -0.268 OA
BRANCH   6  14
ATOM     14  O   UNL     1       5.028  -4.192   1.844  0.00  0.00    -0.495 OA
ATOM     15  C   UNL     1       5.963  -4.577   2.853  0.00  0.00    +0.277 C 
ENDBRANCH   6  14
ENDBRANCH   1   2
BRANCH   1  17
ATOM     16  N   UNL     1      -0.765  -0.772  -2.261  0.00  0.00    -0.225 N 
ATOM     17  C   UNL     1       0.153  -0.012  -1.636  0.00  0.00    +0.143 A 
ATOM     18  N   UNL     1       1.216   0.002  -2.402  0.00  0.00    -0.115 NA
ATOM     19  N   UNL     1       0.966  -0.719  -3.441  0.00  0.00    -0.023 NA
ATOM     20  N   UNL     1      -0.231  -1.186  -3.360  0.00  0.00    -0.043 NA
BRANCH  16  21
ATOM     21  C   UNL     1      -2.117  -1.073  -1.784  0.00  0.00    +0.061 C 
ATOM     22  C   UNL     1      -2.033  -1.815  -0.448  0.00  0.00    +0.036 C 
ATOM     23  C   UNL     1      -2.894   0.231  -1.595  0.00  0.00    +0.036 C 
BRANCH  21  25
ATOM     24  C   UNL     1      -4.248  -2.266  -2.311  0.00  0.00    +0.006 C 
ATOM     25  C   UNL     1      -2.836  -1.951  -2.810  0.00  0.00    +0.026 C 
ENDBRANCH  21  25
ENDBRANCH  16  21
ENDBRANCH   1  17
BRANCH   1  26
ATOM     26  N   UNL     1       0.187   2.148  -0.474  0.00  0.00    +0.397 N 
ATOM     27  H   UNL     1       0.268   2.578   0.455  0.00  0.00    -0.079 HD
BRANCH  26  28
ATOM     28  C   UNL     1       1.429   2.407  -1.233  0.00  0.00    -0.001 C 
BRANCH  28  29
ATOM     29  C   UNL     1       2.604   2.252  -0.302  0.00  0.00    +0.089 A 
ATOM     30  C   UNL     1       3.374   1.156  -0.183  0.00  0.00    +0.042 A 
ATOM     31  C   UNL     1       4.351   1.446   0.797  0.00  0.00    +0.041 A 
ATOM     32  C   UNL     1       4.120   2.702   1.218  0.00  0.00    +0.195 A 
ATOM     33  O   UNL     1       3.064   3.188   0.545  0.00  0.00    -0.470 OA
ENDBRANCH  28  29
ENDBRANCH  26  28
BRANCH  26  34
ATOM     34  C   UNL     1      -0.968   2.742  -1.178  0.00  0.00    -0.034 C 
BRANCH  34  35
ATOM     35  C   UNL     1      -0.819   4.242  -1.182  0.00  0.00    -0.027 A 
ATOM     36  C   UNL     1      -0.318   5.047  -2.150  0.00  0.00    +0.009 A 
ATOM     37  C   UNL     1      -0.278   6.412  -1.933  0.00  0.00    +0.008 A 
ATOM     38  C   UNL     1      -0.741   6.904  -0.758  0.00  0.00    +0.045 A 
ATOM     39  S   UNL     1      -1.262   5.419   0.085  0.00  0.00    -0.103 S 
ENDBRANCH  34  35
ENDBRANCH  26  34
ENDBRANCH   1  26
TORSDOF 10
