REMARK  Name = ZINC13083629
REMARK  8 active torsions:
REMARK  status: ('A' for Active; 'I' for Inactive)
REMARK    1  A    between atoms: C_1  and  C_2
REMARK    2  A    between atoms: C_2  and  C_3
REMARK    3  A    between atoms: C_2  and  C_4
REMARK    4  A    between atoms: C_4  and  C_5
REMARK    5  A    between atoms: C_11  and  C_14
REMARK    6  A    between atoms: C_18  and  O_20
REMARK    7  A    between atoms: N_23  and  C_24
REMARK    8  A    between atoms: C_24  and  C_25
REMARK                            x       y       z     vdW  Elec       q    Type
REMARK                         _______ _______ _______ _____ _____    ______ ____
ROOT
ATOM      1  C   UNL     1      -0.067   0.902   7.165  0.00  0.00    +0.140 A 
ATOM      2  N   UNL     1      -0.222   2.147   7.559  0.00  0.00    -0.211 NA
ATOM      3  C   UNL     1      -0.838   2.423   8.704  0.00  0.00    +0.186 A 
ATOM      4  C   UNL     1      -1.324   1.365   9.493  0.00  0.00    +0.192 A 
ATOM      5  C   UNL     1      -1.132   0.051   9.026  0.00  0.00    +0.246 A 
ATOM      6  N   UNL     1      -0.511  -0.124   7.868  0.00  0.00    -0.196 NA
ATOM      7  N   UNL     1      -1.899   1.896  10.586  0.00  0.00    -0.122 NA
ATOM      8  N   UNL     1      -1.815   3.180  10.550  0.00  0.00    -0.063 NA
ATOM      9  N   UNL     1      -1.151   3.571   9.378  0.00  0.00    -0.222 N 
ENDROOT
BRANCH   1  16
ATOM     10  C   UNL     1      -0.030  -0.130   2.478  0.00  0.00    +0.216 C 
ATOM     11  O   UNL     1      -1.069   0.487   2.378  0.00  0.00    -0.276 OA
ATOM     12  N   UNL     1       0.435  -0.473   3.696  0.00  0.00    -0.301 N 
ATOM     13  C   UNL     1       1.690  -1.226   3.833  0.00  0.00    +0.108 C 
ATOM     14  C   UNL     1       2.614  -0.463   4.793  0.00  0.00    +0.020 C 
ATOM     15  C   UNL     1       1.880  -0.220   6.114  0.00  0.00    +0.014 C 
ATOM     16  C   UNL     1       0.638   0.637   5.859  0.00  0.00    +0.074 C 
ATOM     17  C   UNL     1      -0.306  -0.109   4.911  0.00  0.00    +0.119 C 
BRANCH  10  18
ATOM     18  C   UNL     1       0.742  -0.511   1.242  0.00  0.00    +0.099 C 
BRANCH  18  20
ATOM     19  C   UNL     1      -0.019   1.526   0.010  0.00  0.00    +0.008 C 
ATOM     20  C   UNL     1       0.002  -0.004   0.002  0.00  0.00    -0.008 C 
ATOM     21  C   UNL     1       0.718  -0.497  -1.257  0.00  0.00    +0.008 C 
ENDBRANCH  18  20
ENDBRANCH  10  18
ENDBRANCH   1  16
BRANCH   5  22
ATOM     22  O   UNL     1      -1.578  -1.009   9.740  0.00  0.00    -0.491 OA
ATOM     23  H   UNL     1      -2.481  -1.279   9.521  0.00  0.00    +0.294 HD
ENDBRANCH   5  22
BRANCH   9  24
ATOM     24  C   UNL     1      -0.852   4.942   8.957  0.00  0.00    +0.185 C 
BRANCH  24  25
ATOM     25  C   UNL     1      -1.993   5.474   8.129  0.00  0.00    +0.011 A 
ATOM     26  C   UNL     1      -1.990   5.304   6.756  0.00  0.00    +0.047 A 
ATOM     27  C   UNL     1      -3.042   5.787   5.997  0.00  0.00    +0.020 A 
ATOM     28  C   UNL     1      -4.089   6.450   6.609  0.00  0.00    +0.003 A 
ATOM     29  C   UNL     1      -4.090   6.625   7.980  0.00  0.00    +0.020 A 
ATOM     30  C   UNL     1      -3.042   6.137   8.741  0.00  0.00    +0.047 A 
ATOM     31 CL   UNL     1      -3.043   6.356  10.463  0.00  0.00    -0.083 Cl
ATOM     32 CL   UNL     1      -0.671   4.478   5.987  0.00  0.00    -0.083 Cl
ENDBRANCH  24  25
ENDBRANCH   9  24
TORSDOF 6
