REMARK  Name = ZINC36156609
REMARK  9 active torsions:
REMARK  status: ('A' for Active; 'I' for Inactive)
REMARK    1  A    between atoms: C_4  and  C_7
REMARK    2  A    between atoms: C_7  and  C_8
REMARK    3  A    between atoms: C_8  and  C_10
REMARK    4  A    between atoms: C_8  and  O_34
REMARK    5  A    between atoms: C_10  and  N_11
REMARK    6  A    between atoms: N_11  and  C_12
REMARK    7  A    between atoms: N_11  and  C_18
REMARK    8  A    between atoms: C_12  and  C_13
REMARK    9  A    between atoms: C_18  and  C_19
REMARK                            x       y       z     vdW  Elec       q    Type
REMARK                         _______ _______ _______ _____ _____    ______ ____
ROOT
ATOM      1  N   UNL     1       5.889  -1.839   2.801  0.00  0.00    +0.391 N 
ATOM      2  H   UNL     1       5.284  -2.447   3.332  0.00  0.00    -0.080 HD
ENDROOT
BRANCH   1   3
ATOM      3  C   UNL     1       5.424  -1.779   1.409  0.00  0.00    -0.046 C 
BRANCH   3   4
ATOM      4  C   UNL     1       5.263  -3.199   0.863  0.00  0.00    +0.102 C 
BRANCH   4   5
ATOM      5  O   UNL     1       6.550  -3.807   0.731  0.00  0.00    -0.393 OA
ATOM      6  H   UNL     1       7.147  -3.337   0.133  0.00  0.00    +0.210 HD
ENDBRANCH   4   5
BRANCH   4   7
ATOM      7  C   UNL     1       4.581  -3.146  -0.505  0.00  0.00    +0.064 C 
BRANCH   7  11
ATOM      8  C   UNL     1       3.817  -7.120  -1.874  0.00  0.00    +0.000 A 
ATOM      9  C   UNL     1       2.871  -6.455  -1.117  0.00  0.00    +0.000 A 
ATOM     10  C   UNL     1       3.118  -5.169  -0.674  0.00  0.00    +0.004 A 
ATOM     11  C   UNL     1       4.312  -4.548  -0.987  0.00  0.00    -0.045 A 
ATOM     12  C   UNL     1       5.259  -5.213  -1.744  0.00  0.00    +0.004 A 
ATOM     13  C   UNL     1       5.012  -6.498  -2.188  0.00  0.00    +0.000 A 
ENDBRANCH   7  11
ENDBRANCH   4   7
ENDBRANCH   3   4
ENDBRANCH   1   3
BRANCH   1  14
ATOM     14  C   UNL     1       5.861  -0.491   3.385  0.00  0.00    -0.002 C 
BRANCH  14  15
ATOM     15  C   UNL     1       4.435  -0.014   3.481  0.00  0.00    +0.089 A 
ATOM     16  C   UNL     1       3.643  -0.116   4.563  0.00  0.00    +0.042 A 
ATOM     17  C   UNL     1       2.397   0.455   4.214  0.00  0.00    +0.041 A 
ATOM     18  C   UNL     1       2.502   0.871   2.939  0.00  0.00    +0.195 A 
ATOM     19  O   UNL     1       3.741   0.590   2.502  0.00  0.00    -0.470 OA
ENDBRANCH  14  15
ENDBRANCH   1  14
BRANCH   1  20
ATOM     20  C   UNL     1       7.262  -2.360   2.837  0.00  0.00    -0.003 C 
BRANCH  20  21
ATOM     21  C   UNL     1       7.687  -2.557   4.269  0.00  0.00    +0.094 A 
ATOM     22  N   UNL     1       8.932  -3.029   4.536  0.00  0.00    -0.312 N 
ATOM     23  H   UNL     1       9.531  -3.233   3.800  0.00  0.00    +0.170 HD
ATOM     24  C   UNL     1       9.352  -3.220   5.801  0.00  0.00    +0.260 A 
ATOM     25  O   UNL     1      10.473  -3.643   6.024  0.00  0.00    -0.267 OA
ATOM     26  C   UNL     1       8.460  -2.915   6.880  0.00  0.00    +0.075 A 
ATOM     27  C   UNL     1       8.697  -3.043   8.318  0.00  0.00    -0.023 A 
ATOM     28  C   UNL     1       7.686  -2.687   9.138  0.00  0.00    -0.004 A 
ATOM     29  S   UNL     1       6.379  -2.168   8.059  0.00  0.00    -0.073 S 
ATOM     30  C   UNL     1       7.196  -2.433   6.506  0.00  0.00    +0.116 A 
ATOM     31  N   UNL     1       6.854  -2.265   5.232  0.00  0.00    -0.229 NA
ATOM     32  C   UNL     1       7.677  -2.725  10.636  0.00  0.00    +0.043 C 
ATOM     33  C   UNL     1       8.860  -3.584  11.106  0.00  0.00    +0.005 C 
ATOM     34  C   UNL     1      10.118  -3.139  10.354  0.00  0.00    +0.005 C 
ATOM     35  C   UNL     1      10.018  -3.554   8.885  0.00  0.00    +0.037 C 
ENDBRANCH  20  21
ENDBRANCH   1  20
TORSDOF 9
