REMARK  Name = ZINC01640104
REMARK  13 active torsions:
REMARK  status: ('A' for Active; 'I' for Inactive)
REMARK    1  A    between atoms: C_1  and  C_2
REMARK    2  A    between atoms: C_2  and  C_4
REMARK    3  A    between atoms: C_2  and  N_21
REMARK    4  A    between atoms: N_6  and  C_7
REMARK    5  A    between atoms: C_7  and  C_9
REMARK    6  A    between atoms: C_7  and  C_17
REMARK    7  A    between atoms: C_9  and  C_10
REMARK    8  A    between atoms: C_13  and  O_16
REMARK    9  A    between atoms: C_17  and  O_19
REMARK   10  A    between atoms: O_19  and  C_20
REMARK   11  A    between atoms: C_22  and  O_24
REMARK   12  A    between atoms: O_24  and  C_25
REMARK   13  A    between atoms: C_25  and  C_26
REMARK                            x       y       z     vdW  Elec       q    Type
REMARK                         _______ _______ _______ _____ _____    ______ ____
ROOT
ATOM      1  C   UNL     1      -0.863   4.158   1.192  0.00  0.00    +0.234 C 
ATOM      2  O   UNL     1      -0.871   3.539   2.235  0.00  0.00    -0.274 OA
ATOM      3  N   UNL     1      -1.083   3.518   0.026  0.00  0.00    -0.301 N 
ATOM      4  H   UNL     1      -1.077   4.013  -0.808  0.00  0.00    +0.150 HD
ENDROOT
BRANCH   1   6
ATOM      5  C   UNL     1      -1.813   6.371   0.598  0.00  0.00    +0.038 C 
ATOM      6  C   UNL     1      -0.608   5.643   1.198  0.00  0.00    +0.159 C 
BRANCH   6   7
ATOM      7  N   UNL     1      -0.400   6.097   2.576  0.00  0.00    -0.270 N 
ATOM      8  C   UNL     1       0.317   7.212   2.817  0.00  0.00    +0.401 C 
ATOM      9  O   UNL     1       0.790   7.842   1.892  0.00  0.00    -0.226 OA
ATOM     10  H   UNL     1      -0.778   5.594   3.314  0.00  0.00    +0.153 HD
BRANCH   8  11
ATOM     11  O   UNL     1       0.508   7.629   4.083  0.00  0.00    -0.446 OA
BRANCH  11  12
ATOM     12  C   UNL     1       1.290   8.838   4.268  0.00  0.00    +0.269 C 
BRANCH  12  13
ATOM     13  C   UNL     1       1.396   9.147   5.739  0.00  0.00    -0.010 A 
ATOM     14  C   UNL     1       0.449   9.950   6.348  0.00  0.00    +0.007 A 
ATOM     15  C   UNL     1       0.545  10.229   7.698  0.00  0.00    +0.000 A 
ATOM     16  C   UNL     1       1.593   9.714   8.438  0.00  0.00    +0.000 A 
ATOM     17  C   UNL     1       2.543   8.917   7.828  0.00  0.00    +0.000 A 
ATOM     18  C   UNL     1       2.445   8.633   6.479  0.00  0.00    +0.007 A 
ENDBRANCH  12  13
ENDBRANCH  11  12
ENDBRANCH   8  11
ENDBRANCH   6   7
ENDBRANCH   1   6
BRANCH   3  19
ATOM     19  C   UNL     1      -1.331   2.074   0.020  0.00  0.00    +0.186 C 
BRANCH  19  20
ATOM     20  C   UNL     1      -0.016   1.338   0.009  0.00  0.00    +0.328 C 
ATOM     21  O   UNL     1       1.022   1.956   0.003  0.00  0.00    -0.249 OA
BRANCH  20  22
ATOM     22  O   UNL     1       0.002  -0.004   0.002  0.00  0.00    -0.467 OA
ATOM     23  C   UNL     1       1.305  -0.646  -0.014  0.00  0.00    +0.280 C 
ENDBRANCH  20  22
ENDBRANCH  19  20
BRANCH  19  24
ATOM     24  C   UNL     1      -2.134   1.700  -1.228  0.00  0.00    +0.069 C 
BRANCH  24  25
ATOM     25  C   UNL     1      -3.498   2.338  -1.158  0.00  0.00    -0.045 A 
ATOM     26  C   UNL     1      -4.548   1.660  -0.567  0.00  0.00    +0.007 A 
ATOM     27  C   UNL     1      -5.797   2.246  -0.496  0.00  0.00    +0.045 A 
ATOM     28  C   UNL     1      -6.000   3.511  -1.028  0.00  0.00    +0.117 A 
ATOM     29  C   UNL     1      -4.946   4.187  -1.625  0.00  0.00    +0.045 A 
ATOM     30  C   UNL     1      -3.697   3.599  -1.689  0.00  0.00    +0.007 A 
BRANCH  28  31
ATOM     31  O   UNL     1      -7.229   4.087  -0.965  0.00  0.00    -0.507 OA
ATOM     32  H   UNL     1      -7.795   3.892  -1.725  0.00  0.00    +0.292 HD
ENDBRANCH  28  31
ENDBRANCH  24  25
ENDBRANCH  19  24
ENDBRANCH   3  19
TORSDOF 11
