REMARK  Name = ZINC12342230
REMARK  10 active torsions:
REMARK  status: ('A' for Active; 'I' for Inactive)
REMARK    1  A    between atoms: C_1  and  O_2
REMARK    2  A    between atoms: O_2  and  C_3
REMARK    3  A    between atoms: C_5  and  C_13
REMARK    4  A    between atoms: C_7  and  O_11
REMARK    5  A    between atoms: C_8  and  O_9
REMARK    6  A    between atoms: O_9  and  C_10
REMARK    7  A    between atoms: O_11  and  C_12
REMARK    8  A    between atoms: C_24  and  S_29
REMARK    9  A    between atoms: S_29  and  N_32
REMARK   10  A    between atoms: N_32  and  C_33
REMARK                            x       y       z     vdW  Elec       q    Type
REMARK                         _______ _______ _______ _____ _____    ______ ____
ROOT
ATOM      1  C   UNL     1       1.869   4.406   0.771  0.00  0.00    +0.105 C 
ATOM      2  C   UNL     1       0.667   4.405  -0.157  0.00  0.00    +0.029 C 
ATOM      3  C   UNL     1      -0.298   5.594  -0.052  0.00  0.00    +0.033 C 
ATOM      4  C   UNL     1      -1.630   4.929  -0.462  0.00  0.00    -0.030 C 
ATOM      5  C   UNL     1      -1.587   3.622  -0.232  0.00  0.00    -0.023 C 
ATOM      6  C   UNL     1      -0.279   3.293   0.390  0.00  0.00    +0.049 C 
ATOM      7  C   UNL     1       0.384   1.988   0.177  0.00  0.00    -0.018 A 
ATOM      8  C   UNL     1      -0.319   0.842  -0.126  0.00  0.00    +0.034 A 
ATOM      9  C   UNL     1       0.343  -0.361  -0.281  0.00  0.00    +0.109 A 
ATOM     10  C   UNL     1       1.717  -0.419  -0.132  0.00  0.00    +0.030 A 
ATOM     11  C   UNL     1       2.430   0.725   0.164  0.00  0.00    +0.025 A 
ATOM     12  C   UNL     1       1.776   1.941   0.314  0.00  0.00    +0.031 A 
ATOM     13  N   UNL     1       2.524   3.094   0.578  0.00  0.00    -0.336 N 
ATOM     14  H   UNL     1       3.490   3.032   0.636  0.00  0.00    +0.147 HD
ENDROOT
BRANCH   1  17
ATOM     15  C   UNL     1       0.738   3.575   4.279  0.00  0.00    +0.165 A 
ATOM     16  C   UNL     1       1.149   3.438   2.962  0.00  0.00    +0.055 A 
ATOM     17  C   UNL     1       1.422   4.560   2.202  0.00  0.00    -0.020 A 
ATOM     18  C   UNL     1       1.293   5.821   2.752  0.00  0.00    +0.055 A 
ATOM     19  C   UNL     1       0.876   5.966   4.067  0.00  0.00    +0.165 A 
ATOM     20  C   UNL     1       0.601   4.841   4.835  0.00  0.00    +0.204 A 
BRANCH  15  22
ATOM     21  C   UNL     1       0.633   1.202   4.391  0.00  0.00    +0.277 C 
ATOM     22  O   UNL     1       0.470   2.471   5.027  0.00  0.00    -0.491 OA
ENDBRANCH  15  22
BRANCH  20  23
ATOM     23  O   UNL     1       0.198   4.980   6.128  0.00  0.00    -0.488 OA
ATOM     24  C   UNL     1       1.220   5.010   7.126  0.00  0.00    +0.277 C 
ENDBRANCH  20  23
BRANCH  19  25
ATOM     25  O   UNL     1       0.744   7.208   4.606  0.00  0.00    -0.491 OA
ATOM     26  C   UNL     1       1.044   8.319   3.758  0.00  0.00    +0.277 C 
ENDBRANCH  19  25
ENDBRANCH   1  17
BRANCH   9  27
ATOM     27  S   UNL     1      -0.563  -1.822  -0.669  0.00  0.00    +0.072 S 
ATOM     28  O   UNL     1       0.225  -2.918  -0.224  0.00  0.00    -0.150 OA
ATOM     29  O   UNL     1      -1.893  -1.607  -0.218  0.00  0.00    -0.150 OA
BRANCH  27  30
ATOM     30  N   UNL     1      -0.635  -1.930  -2.320  0.00  0.00    -0.213 N 
ATOM     31  H   UNL     1      -1.494  -1.925  -2.769  0.00  0.00    +0.174 HD
BRANCH  30  32
ATOM     32  C   UNL     1       0.544  -2.028  -3.066  0.00  0.00    +0.083 A 
ATOM     33  C   UNL     1       1.651  -2.678  -2.537  0.00  0.00    +0.027 A 
ATOM     34  C   UNL     1       2.812  -2.778  -3.279  0.00  0.00    +0.002 A 
ATOM     35  C   UNL     1       2.877  -2.223  -4.543  0.00  0.00    +0.003 A 
ATOM     36  C   UNL     1       1.779  -1.570  -5.073  0.00  0.00    +0.040 A 
ATOM     37  C   UNL     1       0.612  -1.470  -4.338  0.00  0.00    +0.146 A 
ATOM     38  F   UNL     1      -0.461  -0.833  -4.856  0.00  0.00    -0.204 F 
ENDBRANCH  30  32
ENDBRANCH  27  30
ENDBRANCH   9  27
TORSDOF 7
