REMARK  Name = ZINC59019026
REMARK  10 active torsions:
REMARK  status: ('A' for Active; 'I' for Inactive)
REMARK    1  A    between atoms: C_1  and  C_2
REMARK    2  A    between atoms: C_5  and  C_8
REMARK    3  A    between atoms: C_8  and  N_9
REMARK    4  A    between atoms: C_10  and  C_12
REMARK    5  A    between atoms: C_12  and  S_13
REMARK    6  A    between atoms: S_13  and  C_14
REMARK    7  A    between atoms: N_19  and  N_20
REMARK    8  A    between atoms: C_21  and  C_22
REMARK    9  A    between atoms: C_27  and  O_28
REMARK   10  A    between atoms: O_28  and  C_29
REMARK                            x       y       z     vdW  Elec       q    Type
REMARK                         _______ _______ _______ _____ _____    ______ ____
ROOT
ATOM      1  C   UNL     1       4.876  -8.769  -0.073  0.00  0.00    +0.211 A 
ATOM      2  N   UNL     1       5.382 -10.007  -0.087  0.00  0.00    -0.186 NA
ATOM      3  C   UNL     1       6.697  -9.947  -0.093  0.00  0.00    +0.232 A 
ATOM      4  N   UNL     1       7.056  -8.645  -0.082  0.00  0.00    -0.245 N 
ATOM      5  N   UNL     1       5.862  -7.905  -0.074  0.00  0.00    -0.144 NA
ATOM      6  N   UNL     1       7.560 -11.027  -0.108  0.00  0.00    -0.205 N 
ATOM      7  H   UNL     1       8.519 -10.882  -0.111  0.00  0.00    +0.177 HD
ATOM      8  H   UNL     1       7.959  -8.291  -0.082  0.00  0.00    +0.192 HD
ENDROOT
BRANCH   6   9
ATOM      9  N   UNL     1       7.049 -12.332  -0.119  0.00  0.00    -0.187 NA
ATOM     10  C   UNL     1       7.860 -13.346  -0.132  0.00  0.00    +0.142 C 
BRANCH  10  11
ATOM     11  C   UNL     1       7.322 -14.719  -0.144  0.00  0.00    +0.037 A 
ATOM     12  C   UNL     1       8.190 -15.813  -0.152  0.00  0.00    +0.028 A 
ATOM     13  C   UNL     1       7.680 -17.095  -0.163  0.00  0.00    +0.019 A 
ATOM     14  C   UNL     1       6.311 -17.301  -0.164  0.00  0.00    +0.019 A 
ATOM     15  C   UNL     1       5.442 -16.226  -0.156  0.00  0.00    +0.047 A 
ATOM     16  C   UNL     1       5.937 -14.933  -0.140  0.00  0.00    +0.129 A 
ATOM     17 BR   UNL     1       8.856 -18.576  -0.175  0.00  0.00    -0.050 Br
BRANCH  16  18
ATOM     18  O   UNL     1       5.084 -13.876  -0.126  0.00  0.00    -0.494 OA
ATOM     19  C   UNL     1       3.686 -14.171  -0.122  0.00  0.00    +0.277 C 
ENDBRANCH  16  18
ENDBRANCH  10  11
ENDBRANCH   6   9
BRANCH   1  20
ATOM     20  S   UNL     1       3.161  -8.365  -0.061  0.00  0.00    -0.075 S 
BRANCH  20  21
ATOM     21  C   UNL     1       3.137  -6.551  -0.051  0.00  0.00    +0.173 C 
BRANCH  21  23
ATOM     22  N   UNL     1       1.447  -4.746  -0.032  0.00  0.00    -0.311 N 
ATOM     23  C   UNL     1       1.710  -6.067  -0.040  0.00  0.00    +0.224 C 
ATOM     24  O   UNL     1       0.799  -6.867  -0.040  0.00  0.00    -0.275 OA
ATOM     25  H   UNL     1       2.176  -4.106  -0.032  0.00  0.00    +0.149 HD
BRANCH  22  26
ATOM     26  C   UNL     1       0.059  -4.275  -0.021  0.00  0.00    +0.139 C 
BRANCH  26  31
ATOM     27  C   UNL     1      -0.018   1.503   0.010  0.00  0.00    +0.044 C 
ATOM     28  C   UNL     1       0.002  -0.004   0.002  0.00  0.00    -0.050 A 
ATOM     29  C   UNL     1       0.006  -0.689  -1.199  0.00  0.00    +0.003 A 
ATOM     30  C   UNL     1       0.025  -2.071  -1.206  0.00  0.00    +0.005 A 
ATOM     31  C   UNL     1       0.040  -2.768  -0.013  0.00  0.00    -0.030 A 
ATOM     32  C   UNL     1       0.037  -2.084   1.188  0.00  0.00    +0.005 A 
ATOM     33  C   UNL     1       0.023  -0.702   1.195  0.00  0.00    +0.003 A 
ENDBRANCH  26  31
ENDBRANCH  22  26
ENDBRANCH  21  23
ENDBRANCH  20  21
ENDBRANCH   1  20
TORSDOF 8
