REMARK  Name = ZINC39654569
REMARK  9 active torsions:
REMARK  status: ('A' for Active; 'I' for Inactive)
REMARK    1  A    between atoms: C_1  and  C_2
REMARK    2  A    between atoms: C_2  and  C_3
REMARK    3  A    between atoms: C_6  and  C_9
REMARK    4  A    between atoms: C_9  and  C_10
REMARK    5  A    between atoms: C_10  and  N_11
REMARK    6  A    between atoms: C_12  and  C_14
REMARK    7  A    between atoms: C_25  and  C_27
REMARK    8  A    between atoms: C_30  and  O_34
REMARK    9  A    between atoms: O_34  and  C_35
REMARK                            x       y       z     vdW  Elec       q    Type
REMARK                         _______ _______ _______ _____ _____    ______ ____
ROOT
ATOM      1  C   UNL     1       4.557  -0.604   8.877  0.00  0.00    +0.100 C 
ATOM      2  C   UNL     1       3.856  -1.542   9.885  0.00  0.00    +0.121 C 
ATOM      3  N   UNL     1       4.406  -1.151  11.205  0.00  0.00    -0.296 N 
ATOM      4  C   UNL     1       4.502   0.327  11.142  0.00  0.00    +0.115 C 
ATOM      5  C   UNL     1       4.979   0.622   9.706  0.00  0.00    -0.004 C 
ATOM      6  C   UNL     1       4.299   1.879   9.172  0.00  0.00    -0.010 C 
ATOM      7  C   UNL     1       4.779   3.092   9.974  0.00  0.00    -0.082 C 
ATOM      8  N   UNL     1       6.237   3.213   9.857  0.00  0.00    +0.379 N 
ATOM      9  C   UNL     1       6.886   2.041  10.457  0.00  0.00    -0.082 C 
ATOM     10  C   UNL     1       6.496   0.783   9.676  0.00  0.00    -0.010 C 
ATOM     11  C   UNL     1       4.742  -1.958  12.231  0.00  0.00    +0.247 C 
ATOM     12  O   UNL     1       4.727  -3.165  12.086  0.00  0.00    -0.270 OA
ATOM     13  H   UNL     1       6.492   3.275   8.883  0.00  0.00    -0.086 HD
ATOM     14  H   UNL     1       6.544   4.047  10.336  0.00  0.00    -0.086 HD
ENDROOT
BRANCH  11  15
ATOM     15  C   UNL     1       5.130  -1.376  13.531  0.00  0.00    +0.040 A 
ATOM     16  C   UNL     1       4.747  -0.072  13.856  0.00  0.00    +0.036 A 
ATOM     17  C   UNL     1       5.111   0.468  15.071  0.00  0.00    +0.085 A 
ATOM     18  C   UNL     1       5.858  -0.282  15.972  0.00  0.00    +0.157 A 
ATOM     19  C   UNL     1       6.241  -1.580  15.652  0.00  0.00    +0.085 A 
ATOM     20  C   UNL     1       5.875  -2.129  14.441  0.00  0.00    +0.036 A 
ATOM     21 CL   UNL     1       7.174  -2.513  16.780  0.00  0.00    -0.080 Cl
ATOM     22 CL   UNL     1       4.637   2.088  15.476  0.00  0.00    -0.080 Cl
BRANCH  18  23
ATOM     23  O   UNL     1       6.215   0.253  17.167  0.00  0.00    -0.492 OA
ATOM     24  C   UNL     1       5.312   0.065  18.258  0.00  0.00    +0.277 C 
ENDBRANCH  18  23
ENDBRANCH  11  15
BRANCH   1  26
ATOM     25  N   UNL     1       4.064   0.077   6.551  0.00  0.00    -0.315 N 
ATOM     26  C   UNL     1       3.601  -0.196   7.787  0.00  0.00    +0.218 C 
ATOM     27  O   UNL     1       2.414  -0.114   8.021  0.00  0.00    -0.275 OA
ATOM     28  H   UNL     1       5.014   0.011   6.364  0.00  0.00    +0.149 HD
BRANCH  25  29
ATOM     29  C   UNL     1       3.134   0.473   5.491  0.00  0.00    +0.109 C 
BRANCH  29  30
ATOM     30  C   UNL     1       3.912   0.724   4.197  0.00  0.00    +0.054 C 
BRANCH  30  34
ATOM     31  C   UNL     1       1.202   1.880   1.104  0.00  0.00    -0.048 A 
ATOM     32  C   UNL     1       1.780   2.841   1.912  0.00  0.00    +0.004 A 
ATOM     33  C   UNL     1       2.657   2.467   2.913  0.00  0.00    +0.004 A 
ATOM     34  C   UNL     1       2.956   1.131   3.107  0.00  0.00    -0.046 A 
ATOM     35  C   UNL     1       2.377   0.170   2.300  0.00  0.00    +0.004 A 
ATOM     36  C   UNL     1       1.497   0.543   1.301  0.00  0.00    +0.004 A 
BRANCH  31  38
ATOM     37  C   UNL     1      -1.179   2.319   0.569  0.00  0.00    +0.009 C 
ATOM     38  C   UNL     1       0.246   2.287   0.013  0.00  0.00    +0.032 C 
ENDBRANCH  31  38
ENDBRANCH  30  34
ENDBRANCH  29  30
ENDBRANCH  25  29
ENDBRANCH   1  26
TORSDOF 7
