REMARK  Name = ZINC39930065
REMARK  6 active torsions:
REMARK  status: ('A' for Active; 'I' for Inactive)
REMARK    1  A    between atoms: C_1  and  C_2
REMARK    2  A    between atoms: C_5  and  C_12
REMARK    3  A    between atoms: C_6  and  C_11
REMARK    4  A    between atoms: N_7  and  C_8
REMARK    5  A    between atoms: C_8  and  C_9
REMARK    6  A    between atoms: C_18  and  C_20
REMARK                            x       y       z     vdW  Elec       q    Type
REMARK                         _______ _______ _______ _____ _____    ______ ____
ROOT
ATOM      1  C   UNL     1      -2.334  -2.233   2.197  0.00  0.00    +0.078 A 
ATOM      2  C   UNL     1      -1.999  -2.947   3.316  0.00  0.00    +0.076 A 
ATOM      3  S   UNL     1      -3.569  -3.708   3.708  0.00  0.00    -0.060 S 
ATOM      4  C   UNL     1      -4.505  -3.006   2.357  0.00  0.00    +0.165 A 
ATOM      5  N   UNL     1      -3.586  -2.278   1.748  0.00  0.00    -0.225 NA
ATOM      6  N   UNL     1      -5.844  -3.177   2.035  0.00  0.00    -0.259 N 
ATOM      7  C   UNL     1      -6.625  -3.968   2.797  0.00  0.00    +0.270 C 
ATOM      8  O   UNL     1      -6.155  -4.532   3.767  0.00  0.00    -0.268 OA
ATOM      9  H   UNL     1      -6.218  -2.727   1.262  0.00  0.00    +0.157 HD
ENDROOT
BRANCH   7  10
ATOM     10  C   UNL     1      -8.046  -4.149   2.456  0.00  0.00    +0.155 A 
ATOM     11  C   UNL     1      -9.027  -4.971   3.177  0.00  0.00    +0.032 A 
ATOM     12  C   UNL     1      -9.001  -5.785   4.305  0.00  0.00    +0.012 A 
ATOM     13  C   UNL     1     -10.143  -6.423   4.706  0.00  0.00    +0.001 A 
ATOM     14  C   UNL     1     -11.326  -6.263   3.997  0.00  0.00    +0.002 A 
ATOM     15  C   UNL     1     -11.373  -5.463   2.877  0.00  0.00    +0.028 A 
ATOM     16  C   UNL     1     -10.223  -4.805   2.452  0.00  0.00    +0.066 A 
ATOM     17  N   UNL     1      -9.924  -3.959   1.416  0.00  0.00    -0.276 N 
ATOM     18  N   UNL     1      -8.691  -3.603   1.447  0.00  0.00    -0.168 NA
ATOM     19  H   UNL     1     -10.562  -3.665   0.747  0.00  0.00    +0.189 HD
ENDBRANCH   7  10
BRANCH   1  23
ATOM     20  C   UNL     1       1.893  -0.971   0.208  0.00  0.00    +0.028 C 
ATOM     21  C   UNL     1       0.709  -0.278   0.885  0.00  0.00    +0.075 C 
ATOM     22  C   UNL     1       0.100  -1.188   1.969  0.00  0.00    +0.061 C 
ATOM     23  C   UNL     1      -1.320  -1.417   1.500  0.00  0.00    -0.003 C 
ATOM     24  C   UNL     1      -1.504  -0.765   0.358  0.00  0.00    +0.009 C 
ATOM     25  N   UNL     1      -0.386  -0.076  -0.074  0.00  0.00    -0.326 N 
ATOM     26  C   UNL     1      -2.810  -0.772  -0.394  0.00  0.00    +0.061 C 
BRANCH  25  27
ATOM     27  C   UNL     1      -0.304   0.729  -1.296  0.00  0.00    +0.131 C 
BRANCH  27  28
ATOM     28  C   UNL     1       0.149  -0.141  -2.440  0.00  0.00    -0.016 C 
ATOM     29  C   UNL     1      -0.570  -0.211  -3.533  0.00  0.00    +0.005 C 
ENDBRANCH  27  28
ENDBRANCH  25  27
ENDBRANCH   1  23
TORSDOF 4
