REMARK  Name = ZINC67028494
REMARK  7 active torsions:
REMARK  status: ('A' for Active; 'I' for Inactive)
REMARK    1  A    between atoms: C_1  and  C_2
REMARK    2  A    between atoms: C_2  and  O_3
REMARK    3  A    between atoms: O_3  and  C_4
REMARK    4  A    between atoms: C_4  and  C_6
REMARK    5  A    between atoms: C_7  and  C_24
REMARK    6  A    between atoms: C_12  and  C_14
REMARK    7  A    between atoms: C_17  and  C_19
REMARK                            x       y       z     vdW  Elec       q    Type
REMARK                         _______ _______ _______ _____ _____    ______ ____
ROOT
ATOM      1  C   UNL     1      -2.878  -2.492   0.346  0.00  0.00    +0.079 C 
ATOM      2  C   UNL     1      -3.150  -3.797   0.131  0.00  0.00    +0.019 C 
ATOM      3  N   UNL     1      -4.436  -4.244   0.038  0.00  0.00    -0.300 N 
ATOM      4  C   UNL     1      -5.508  -3.449   0.148  0.00  0.00    +0.135 C 
ATOM      5  S   UNL     1      -7.068  -4.140   0.012  0.00  0.00    -0.019 S 
ATOM      6  N   UNL     1      -5.399  -2.123   0.364  0.00  0.00    -0.314 N 
ATOM      7  C   UNL     1      -4.051  -1.542   0.486  0.00  0.00    +0.160 C 
ATOM      8  C   UNL     1      -2.013  -4.777  -0.009  0.00  0.00    +0.061 C 
ATOM      9  H   UNL     1      -4.582  -5.190  -0.117  0.00  0.00    +0.154 HD
ATOM     10  H   UNL     1      -6.189  -1.566   0.441  0.00  0.00    +0.149 HD
ENDROOT
BRANCH   7  11
ATOM     11  C   UNL     1      -3.913  -0.475  -0.570  0.00  0.00    +0.074 A 
ATOM     12  C   UNL     1      -3.932   0.836  -0.217  0.00  0.00    +0.072 A 
ATOM     13  S   UNL     1      -3.736   1.611  -1.817  0.00  0.00    -0.075 S 
ATOM     14  C   UNL     1      -3.650   0.107  -2.780  0.00  0.00    +0.109 A 
ATOM     15  N   UNL     1      -3.769  -0.812  -1.832  0.00  0.00    -0.242 NA
BRANCH  14  16
ATOM     16  C   UNL     1      -3.486  -0.065  -4.238  0.00  0.00    +0.014 A 
ATOM     17  C   UNL     1      -3.268   1.034  -5.067  0.00  0.00    +0.018 A 
ATOM     18  C   UNL     1      -3.123   0.836  -6.395  0.00  0.00    +0.046 A 
ATOM     19  S   UNL     1      -3.289  -0.935  -6.536  0.00  0.00    -0.104 S 
ATOM     20  C   UNL     1      -3.538  -1.309  -4.808  0.00  0.00    +0.055 A 
ENDBRANCH  14  16
ENDBRANCH   7  11
BRANCH   1  21
ATOM     21  C   UNL     1      -1.546  -2.028   0.443  0.00  0.00    +0.339 C 
ATOM     22  O   UNL     1      -0.625  -2.823   0.466  0.00  0.00    -0.245 OA
BRANCH  21  23
ATOM     23  O   UNL     1      -1.296  -0.703   0.510  0.00  0.00    -0.462 OA
BRANCH  23  25
ATOM     24  C   UNL     1       0.164   1.214   0.689  0.00  0.00    +0.048 C 
ATOM     25  C   UNL     1       0.075  -0.300   0.490  0.00  0.00    +0.229 C 
ENDBRANCH  23  25
ENDBRANCH  21  23
ENDBRANCH   1  21
TORSDOF 5
