REMARK  Name = ZINC40098199
REMARK  17 active torsions:
REMARK  status: ('A' for Active; 'I' for Inactive)
REMARK    1  A    between atoms: C_1  and  C_2
REMARK    2  A    between atoms: C_2  and  C_3
REMARK    3  A    between atoms: C_3  and  C_4
REMARK    4  A    between atoms: C_4  and  C_5
REMARK    5  A    between atoms: C_5  and  C_6
REMARK    6  A    between atoms: C_6  and  O_7
REMARK    7  A    between atoms: O_7  and  C_8
REMARK    8  A    between atoms: C_11  and  C_16
REMARK    9  A    between atoms: C_13  and  O_14
REMARK   10  A    between atoms: O_14  and  C_15
REMARK   11  A    between atoms: C_18  and  C_27
REMARK   12  A    between atoms: N_22  and  C_23
REMARK   13  A    between atoms: C_23  and  C_24
REMARK   14  A    between atoms: C_24  and  O_25
REMARK   15  A    between atoms: C_27  and  C_29
REMARK   16  A    between atoms: C_35  and  O_38
REMARK   17  A    between atoms: O_38  and  C_39
REMARK                            x       y       z     vdW  Elec       q    Type
REMARK                         _______ _______ _______ _____ _____    ______ ____
ROOT
ATOM      1  C   UNL     1       2.109 -10.112  -4.337  0.00  0.00    +0.145 C 
ATOM      2  C   UNL     1       0.861 -10.665  -4.983  0.00  0.00    +0.079 C 
ATOM      3  C   UNL     1       0.454 -11.705  -4.220  0.00  0.00    +0.249 C 
ATOM      4  C   UNL     1       1.385 -11.868  -3.085  0.00  0.00    +0.288 C 
ATOM      5  O   UNL     1       1.290 -12.717  -2.221  0.00  0.00    -0.266 OA
ATOM      6  N   UNL     1       2.357 -10.938  -3.149  0.00  0.00    -0.281 N 
ATOM      7  O   UNL     1      -0.634 -12.475  -4.457  0.00  0.00    -0.282 OA
ENDROOT
BRANCH   1  11
ATOM      8  C   UNL     1       1.486  -6.040  -3.186  0.00  0.00    +0.162 A 
ATOM      9  C   UNL     1       0.817  -7.059  -2.528  0.00  0.00    +0.050 A 
ATOM     10  C   UNL     1       1.020  -8.374  -2.902  0.00  0.00    +0.009 A 
ATOM     11  C   UNL     1       1.891  -8.676  -3.933  0.00  0.00    -0.019 A 
ATOM     12  C   UNL     1       2.562  -7.664  -4.593  0.00  0.00    +0.055 A 
ATOM     13  C   UNL     1       2.358  -6.343  -4.227  0.00  0.00    +0.162 A 
BRANCH  13  14
ATOM     14  O   UNL     1       3.013  -5.346  -4.880  0.00  0.00    -0.491 OA
ATOM     15  C   UNL     1       3.813  -5.722  -6.003  0.00  0.00    +0.277 C 
ENDBRANCH  13  14
BRANCH   8  16
ATOM     16  O   UNL     1       1.287  -4.746  -2.820  0.00  0.00    -0.488 OA
BRANCH  16  17
ATOM     17  C   UNL     1       0.378  -4.509  -1.743  0.00  0.00    +0.229 C 
BRANCH  17  18
ATOM     18  C   UNL     1       0.284  -3.006  -1.476  0.00  0.00    +0.041 C 
BRANCH  18  19
ATOM     19  C   UNL     1      -0.690  -2.752  -0.323  0.00  0.00    +0.003 C 
BRANCH  19  20
ATOM     20  C   UNL     1      -0.784  -1.249  -0.056  0.00  0.00    -0.000 C 
BRANCH  20  22
ATOM     21  C   UNL     1      -1.851   0.508   1.364  0.00  0.00    +0.004 C 
ATOM     22  C   UNL     1      -1.757  -0.995   1.097  0.00  0.00    -0.003 C 
ENDBRANCH  20  22
ENDBRANCH  19  20
ENDBRANCH  18  19
ENDBRANCH  17  18
ENDBRANCH  16  17
ENDBRANCH   8  16
ENDBRANCH   1  11
BRANCH   2  23
ATOM     23  C   UNL     1       0.214 -10.170  -6.203  0.00  0.00    +0.230 C 
ATOM     24  O   UNL     1      -0.898  -9.676  -6.146  0.00  0.00    -0.283 OA
BRANCH  23  25
ATOM     25  C   UNL     1       0.908 -10.269  -7.494  0.00  0.00    +0.176 A 
ATOM     26  C   UNL     1       0.453  -9.756  -8.670  0.00  0.00    +0.062 A 
ATOM     27  C   UNL     1       1.460 -10.092  -9.675  0.00  0.00    +0.025 A 
ATOM     28  C   UNL     1       1.582  -9.855 -11.048  0.00  0.00    +0.012 A 
ATOM     29  C   UNL     1       2.679 -10.314 -11.721  0.00  0.00    +0.004 A 
ATOM     30  C   UNL     1       3.674 -11.014 -11.052  0.00  0.00    +0.049 A 
ATOM     31  C   UNL     1       3.573 -11.260  -9.695  0.00  0.00    +0.163 A 
ATOM     32  C   UNL     1       2.462 -10.800  -8.989  0.00  0.00    +0.177 A 
ATOM     33  O   UNL     1       2.095 -10.877  -7.694  0.00  0.00    -0.448 OA
BRANCH  31  34
ATOM     34  O   UNL     1       4.554 -11.947  -9.052  0.00  0.00    -0.491 OA
ATOM     35  C   UNL     1       5.713 -12.289  -9.814  0.00  0.00    +0.277 C 
ENDBRANCH  31  34
ENDBRANCH  23  25
ENDBRANCH   2  23
BRANCH   6  36
ATOM     36  C   UNL     1       3.464 -10.778  -2.203  0.00  0.00    +0.137 C 
BRANCH  36  37
ATOM     37  C   UNL     1       3.043  -9.826  -1.082  0.00  0.00    +0.175 C 
BRANCH  37  38
ATOM     38  O   UNL     1       1.983 -10.417  -0.327  0.00  0.00    -0.393 OA
ATOM     39  H   UNL     1       1.665  -9.867   0.402  0.00  0.00    +0.209 HD
ENDBRANCH  37  38
ENDBRANCH  36  37
ENDBRANCH   6  36
TORSDOF 14
