REMARK  Name = ZINC05347919
REMARK  8 active torsions:
REMARK  status: ('A' for Active; 'I' for Inactive)
REMARK    1  A    between atoms: C_1  and  C_2
REMARK    2  A    between atoms: C_2  and  N_56
REMARK    3  A    between atoms: C_3  and  C_4
REMARK    4  A    between atoms: C_3  and  N_56
REMARK    5  A    between atoms: C_5  and  C_6
REMARK    6  A    between atoms: C_5  and  N_56
REMARK    7  A    between atoms: C_6  and  N_7
REMARK    8  A    between atoms: C_13  and  C_26
REMARK                            x       y       z     vdW  Elec       q    Type
REMARK                         _______ _______ _______ _____ _____    ______ ____
ROOT
ATOM      1  N   UNL     1      -4.625   7.791   1.133  0.00  0.00    -0.320 N 
ATOM      2  C   UNL     1      -3.323   8.161   1.054  0.00  0.00    +0.204 A 
ATOM      3  N   UNL     1      -2.413   7.358   0.583  0.00  0.00    -0.202 NA
ATOM      4  C   UNL     1      -2.710   6.119   0.149  0.00  0.00    +0.229 A 
ATOM      5  C   UNL     1      -3.996   5.673   0.198  0.00  0.00    +0.069 A 
ATOM      6  C   UNL     1      -4.999   6.531   0.706  0.00  0.00    +0.115 A 
ATOM      7  C   UNL     1      -4.360   4.295  -0.277  0.00  0.00    +0.127 C 
ATOM      8  C   UNL     1      -3.132   3.427  -0.365  0.00  0.00    +0.011 A 
ATOM      9  C   UNL     1      -3.286   2.041  -0.424  0.00  0.00    +0.009 A 
ATOM     10  C   UNL     1      -2.212   1.212  -0.505  0.00  0.00    +0.009 A 
ATOM     11  C   UNL     1      -0.915   1.752  -0.531  0.00  0.00    -0.014 A 
ATOM     12  C   UNL     1       0.219   0.927  -0.615  0.00  0.00    +0.008 A 
ATOM     13  C   UNL     1       1.459   1.488  -0.641  0.00  0.00    +0.001 A 
ATOM     14  C   UNL     1       1.622   2.871  -0.582  0.00  0.00    +0.001 A 
ATOM     15  C   UNL     1       0.545   3.700  -0.495  0.00  0.00    +0.012 A 
ATOM     16  C   UNL     1      -0.749   3.157  -0.465  0.00  0.00    +0.025 A 
ATOM     17  C   UNL     1      -1.888   3.989  -0.376  0.00  0.00    +0.142 A 
ATOM     18  O   UNL     1      -1.724   5.332  -0.333  0.00  0.00    -0.437 OA
ATOM     19  H   UNL     1      -7.004   6.667   1.105  0.00  0.00    +0.157 HD
ATOM     20  N   UNL     1      -6.256   6.074   0.744  0.00  0.00    -0.384 N 
ATOM     21  H   UNL     1      -6.469   5.126   0.411  0.00  0.00    +0.157 HD
ENDROOT
BRANCH   7  22
ATOM     22  C   UNL     1      -5.002   4.391  -1.637  0.00  0.00    +0.117 A 
ATOM     23  C   UNL     1      -6.251   3.999  -1.946  0.00  0.00    +0.045 A 
ATOM     24  C   UNL     1      -6.436   4.269  -3.321  0.00  0.00    +0.041 A 
ATOM     25  C   UNL     1      -5.289   4.809  -3.771  0.00  0.00    +0.195 A 
ATOM     26  O   UNL     1      -4.426   4.885  -2.744  0.00  0.00    -0.467 OA
ENDBRANCH   7  22
BRANCH   1  27
ATOM     27  C   UNL     1      -5.627   8.718   1.667  0.00  0.00    +0.106 C 
BRANCH  27  28
ATOM     28  C   UNL     1      -5.838   8.438   3.156  0.00  0.00    -0.057 C 
BRANCH  28  29
ATOM     29  N   UNL     1      -6.834   9.395   3.684  0.00  0.00    +0.380 N 
ATOM     30  H   UNL     1      -6.550  10.347   3.428  0.00  0.00    -0.082 HD
BRANCH  29  32
ATOM     31  C   UNL     1      -8.626   7.706   3.469  0.00  0.00    -0.017 C 
ATOM     32  C   UNL     1      -8.162   9.116   3.098  0.00  0.00    -0.082 C 
ENDBRANCH  29  32
BRANCH  29  33
ATOM     33  C   UNL     1      -6.900   9.293   5.157  0.00  0.00    -0.082 C 
ATOM     34  C   UNL     1      -7.646  10.513   5.701  0.00  0.00    -0.017 C 
ENDBRANCH  29  33
ENDBRANCH  28  29
ENDBRANCH  27  28
ENDBRANCH   1  27
TORSDOF 6
