REMARK  Name = ZINC39353845
REMARK  5 active torsions:
REMARK  status: ('A' for Active; 'I' for Inactive)
REMARK    1  A    between atoms: C_3  and  C_8
REMARK    2  A    between atoms: C_11  and  N_14
REMARK    3  A    between atoms: C_17  and  N_20
REMARK    4  A    between atoms: N_20  and  C_21
REMARK    5  A    between atoms: C_21  and  C_22
REMARK                            x       y       z     vdW  Elec       q    Type
REMARK                         _______ _______ _______ _____ _____    ______ ____
ROOT
ATOM      1  N   UNL     1       7.240   4.298  -0.047  0.00  0.00    -0.330 N 
ATOM      2  C   UNL     1       7.238   5.764  -0.138  0.00  0.00    +0.103 C 
ATOM      3  C   UNL     1       8.132   6.187  -1.307  0.00  0.00    +0.003 C 
ATOM      4  C   UNL     1       9.522   5.570  -1.131  0.00  0.00    -0.069 C 
ATOM      5  C   UNL     1       9.409   4.044  -1.136  0.00  0.00    +0.003 C 
ATOM      6  C   UNL     1       8.528   3.597   0.041  0.00  0.00    +0.103 C 
ENDROOT
BRANCH   1  10
ATOM      7  C   UNL     1       3.659   2.168  -0.021  0.00  0.00    -0.018 A 
ATOM      8  C   UNL     1       4.876   1.488  -0.059  0.00  0.00    +0.010 A 
ATOM      9  C   UNL     1       6.059   2.194  -0.068  0.00  0.00    +0.024 A 
ATOM     10  C   UNL     1       6.040   3.584  -0.038  0.00  0.00    +0.030 A 
ATOM     11  C   UNL     1       4.829   4.264   0.001  0.00  0.00    +0.024 A 
ATOM     12  C   UNL     1       3.643   3.561   0.003  0.00  0.00    +0.010 A 
BRANCH   7  15
ATOM     13  C   UNL     1       1.211  -0.686  -0.025  0.00  0.00    +0.003 A 
ATOM     14  C   UNL     1       2.400   0.016  -0.035  0.00  0.00    +0.009 A 
ATOM     15  C   UNL     1       2.385   1.409  -0.011  0.00  0.00    -0.015 A 
ATOM     16  C   UNL     1       1.168   2.088   0.022  0.00  0.00    +0.046 A 
ATOM     17  C   UNL     1      -0.017   1.376   0.031  0.00  0.00    +0.124 A 
ATOM     18  C   UNL     1       0.005  -0.010   0.008  0.00  0.00    +0.038 A 
ATOM     19  F   UNL     1      -1.198   2.031   0.064  0.00  0.00    -0.205 F 
ENDBRANCH   7  15
ENDBRANCH   1  10
BRANCH   4  20
ATOM     20  N   UNL     1      10.392   6.000  -2.233  0.00  0.00    +0.383 N 
ATOM     21  H   UNL     1      10.043   5.627  -3.103  0.00  0.00    -0.085 HD
ATOM     22  H   UNL     1      10.402   7.008  -2.280  0.00  0.00    -0.085 HD
BRANCH  20  23
ATOM     23  C   UNL     1      11.756   5.507  -2.001  0.00  0.00    -0.049 C 
BRANCH  23  24
ATOM     24  C   UNL     1      12.662   5.955  -3.150  0.00  0.00    +0.139 C 
ATOM     25  C   UNL     1      14.029   5.311  -3.037  0.00  0.00    -0.023 C 
ATOM     26  C   UNL     1      14.153   4.582  -4.145  0.00  0.00    +0.064 C 
ATOM     27  C   UNL     1      15.498   3.878  -4.150  0.00  0.00    +0.057 C 
ATOM     28  C   UNL     1      16.346   4.622  -3.095  0.00  0.00    +0.011 C 
ATOM     29  C   UNL     1      15.253   5.199  -2.166  0.00  0.00    +0.035 C 
ATOM     30  N   UNL     1      13.034   4.707  -4.909  0.00  0.00    -0.159 NA
ATOM     31  N   UNL     1      12.163   5.446  -4.438  0.00  0.00    -0.181 NA
ENDBRANCH  23  24
ENDBRANCH  20  23
ENDBRANCH   4  20
TORSDOF 5
