REMARK  Name = ZINC33960935
REMARK  9 active torsions:
REMARK  status: ('A' for Active; 'I' for Inactive)
REMARK    1  A    between atoms: C_1  and  C_2
REMARK    2  A    between atoms: C_5  and  C_23
REMARK    3  A    between atoms: C_6  and  C_7
REMARK    4  A    between atoms: C_6  and  C_8
REMARK    5  A    between atoms: N_12  and  N_13
REMARK    6  A    between atoms: N_13  and  C_14
REMARK    7  A    between atoms: C_17  and  N_20
REMARK    8  A    between atoms: N_25  and  C_26
REMARK    9  A    between atoms: C_31  and  C_32
REMARK                            x       y       z     vdW  Elec       q    Type
REMARK                         _______ _______ _______ _____ _____    ______ ____
ROOT
ATOM      1  C   UNL     1      -0.054   1.526   0.033  0.00  0.00    +0.018 C 
ATOM      2  C   UNL     1      -0.026  -0.003   0.020  0.00  0.00    +0.022 C 
ATOM      3  C   UNL     1       0.709  -0.666  -1.187  0.00  0.00    +0.015 C 
ATOM      4  C   UNL     1       0.987  -2.112  -0.710  0.00  0.00    +0.026 C 
ATOM      5  C   UNL     1       0.389  -2.158   0.731  0.00  0.00    +0.117 C 
ATOM      6  C   UNL     1       0.707  -0.700   1.222  0.00  0.00    -0.003 C 
ATOM      7  C   UNL     1       2.212  -0.423   1.224  0.00  0.00    +0.013 C 
ATOM      8  C   UNL     1       0.061  -0.368   2.568  0.00  0.00    +0.013 C 
ATOM      9  C   UNL     1      -1.126  -2.046   0.514  0.00  0.00    +0.195 C 
ATOM     10  O   UNL     1      -1.949  -2.924   0.685  0.00  0.00    -0.290 OA
ATOM     11  C   UNL     1      -1.389  -0.706   0.090  0.00  0.00    +0.109 C 
ATOM     12  N   UNL     1      -2.551  -0.183  -0.202  0.00  0.00    -0.183 NA
ENDROOT
BRANCH   5  13
ATOM     13  C   UNL     1       0.868  -3.283   1.612  0.00  0.00    +0.232 C 
ATOM     14  O   UNL     1       1.451  -3.037   2.646  0.00  0.00    -0.274 OA
ATOM     15  N   UNL     1       0.648  -4.563   1.251  0.00  0.00    -0.284 N 
ATOM     16  H   UNL     1       0.125  -4.760   0.458  0.00  0.00    +0.155 HD
BRANCH  15  17
ATOM     17  C   UNL     1       1.174  -5.607   2.019  0.00  0.00    +0.045 A 
ATOM     18  C   UNL     1       1.265  -5.478   3.399  0.00  0.00    +0.024 A 
ATOM     19  C   UNL     1       1.785  -6.510   4.155  0.00  0.00    +0.002 A 
ATOM     20  C   UNL     1       2.214  -7.672   3.539  0.00  0.00    +0.001 A 
ATOM     21  C   UNL     1       2.125  -7.803   2.166  0.00  0.00    +0.014 A 
ATOM     22  C   UNL     1       1.600  -6.777   1.405  0.00  0.00    +0.076 A 
BRANCH  22  23
ATOM     23  C   UNL     1       1.496  -6.924  -0.091  0.00  0.00    +0.419 C 
ATOM     24  F   UNL     1       1.984  -8.179  -0.471  0.00  0.00    -0.166 F 
ATOM     25  F   UNL     1       0.157  -6.807  -0.480  0.00  0.00    -0.166 F 
ATOM     26  F   UNL     1       2.251  -5.923  -0.712  0.00  0.00    -0.166 F 
ENDBRANCH  22  23
ENDBRANCH  15  17
ENDBRANCH   5  13
BRANCH  12  27
ATOM     27  N   UNL     1      -3.623  -0.893  -0.097  0.00  0.00    -0.237 N 
ATOM     28  H   UNL     1      -3.566  -1.815   0.199  0.00  0.00    +0.174 HD
BRANCH  27  29
ATOM     29  C   UNL     1      -4.863  -0.335  -0.409  0.00  0.00    +0.048 A 
ATOM     30  C   UNL     1      -4.946   0.984  -0.839  0.00  0.00    +0.027 A 
ATOM     31  C   UNL     1      -6.175   1.532  -1.148  0.00  0.00    +0.034 A 
ATOM     32  C   UNL     1      -7.323   0.771  -1.029  0.00  0.00    +0.126 A 
ATOM     33  C   UNL     1      -7.245  -0.542  -0.601  0.00  0.00    +0.034 A 
ATOM     34  C   UNL     1      -6.019  -1.099  -0.297  0.00  0.00    +0.027 A 
BRANCH  32  35
ATOM     35  N   UNL     1      -8.639   1.362  -1.360  0.00  0.00    +0.056 N 
ATOM     36  O   UNL     1      -8.709   2.510  -1.734  0.00  0.00    -0.126 OA
ATOM     37  O   UNL     1      -9.644   0.698  -1.257  0.00  0.00    -0.126 OA
ENDBRANCH  32  35
ENDBRANCH  27  29
ENDBRANCH  12  27
TORSDOF 6
