REMARK  Name = ZINC15670722
REMARK  6 active torsions:
REMARK  status: ('A' for Active; 'I' for Inactive)
REMARK    1  A    between atoms: C_1  and  C_2
REMARK    2  A    between atoms: C_4  and  C_24
REMARK    3  A    between atoms: N_13  and  C_18
REMARK    4  A    between atoms: C_14  and  C_17
REMARK    5  A    between atoms: C_24  and  O_25
REMARK    6  A    between atoms: O_25  and  C_26
REMARK                            x       y       z     vdW  Elec       q    Type
REMARK                         _______ _______ _______ _____ _____    ______ ____
ROOT
ATOM      1  C   UNL     1       4.354  -0.526   9.467  0.00  0.00    +0.065 C 
ATOM      2  C   UNL     1       3.448  -0.225   8.301  0.00  0.00    +0.040 A 
ATOM      3  C   UNL     1       2.082  -0.390   8.457  0.00  0.00    +0.029 A 
ATOM      4  C   UNL     1       1.190  -0.130   7.433  0.00  0.00    -0.009 A 
ATOM      5  C   UNL     1       1.761   0.313   6.211  0.00  0.00    +0.035 A 
ATOM      6  C   UNL     1       1.045   0.656   4.998  0.00  0.00    +0.058 A 
ATOM      7  C   UNL     1       1.828   1.039   3.913  0.00  0.00    +0.098 A 
ATOM      8  S   UNL     1       3.491   0.998   4.507  0.00  0.00    -0.062 S 
ATOM      9  C   UNL     1       3.176   0.444   6.157  0.00  0.00    +0.111 A 
ATOM     10  N   UNL     1       3.986   0.188   7.161  0.00  0.00    -0.245 NA
ATOM     11  C   UNL     1       1.308   1.387   2.654  0.00  0.00    +0.257 C 
ATOM     12  O   UNL     1       1.993   1.885   1.779  0.00  0.00    -0.269 OA
ATOM     13  N   UNL     1      -0.017   1.129   2.483  0.00  0.00    -0.276 N 
ATOM     14  C   UNL     1      -0.738   0.336   3.476  0.00  0.00    +0.158 C 
ATOM     15  N   UNL     1      -0.352   0.646   4.849  0.00  0.00    -0.324 N 
ATOM     16  C   UNL     1      -2.238   0.592   3.316  0.00  0.00    +0.049 C 
ATOM     17  H   UNL     1      -0.754   1.523   5.145  0.00  0.00    +0.148 HD
ENDROOT
BRANCH  13  18
ATOM     18  C   UNL     1      -0.721   1.650   1.308  0.00  0.00    +0.078 C 
ATOM     19  C   UNL     1      -0.126   1.032   0.041  0.00  0.00    +0.022 C 
ATOM     20  C   UNL     1      -0.861   1.576  -1.185  0.00  0.00    +0.002 C 
ATOM     21  C   UNL     1      -0.707   3.098  -1.239  0.00  0.00    +0.000 C 
ATOM     22  C   UNL     1      -1.302   3.715   0.028  0.00  0.00    +0.002 C 
ATOM     23  C   UNL     1      -0.567   3.171   1.255  0.00  0.00    +0.022 C 
ENDBRANCH  13  18
BRANCH   4  24
ATOM     24  C   UNL     1      -0.296  -0.308   7.603  0.00  0.00    +0.195 C 
BRANCH  24  25
ATOM     25  O   UNL     1      -0.573  -0.761   8.930  0.00  0.00    -0.378 OA
ATOM     26  C   UNL     1      -1.962  -0.962   9.198  0.00  0.00    +0.194 C 
ENDBRANCH  24  25
ENDBRANCH   4  24
TORSDOF 3
