REMARK  Name = ZINC25262478
REMARK  11 active torsions:
REMARK  status: ('A' for Active; 'I' for Inactive)
REMARK    1  A    between atoms: C_1  and  C_2
REMARK    2  A    between atoms: C_5  and  O_10
REMARK    3  A    between atoms: C_6  and  O_8
REMARK    4  A    between atoms: O_8  and  C_9
REMARK    5  A    between atoms: O_10  and  C_11
REMARK    6  A    between atoms: C_11  and  C_12
REMARK    7  A    between atoms: N_14  and  N_15
REMARK    8  A    between atoms: N_15  and  C_16
REMARK    9  A    between atoms: C_16  and  N_18
REMARK   10  A    between atoms: N_18  and  C_19
REMARK   11  A    between atoms: C_19  and  C_20
REMARK                            x       y       z     vdW  Elec       q    Type
REMARK                         _______ _______ _______ _____ _____    ______ ____
ROOT
ATOM      1  N   UNL     1      -4.440  -0.204   2.920  0.00  0.00    -0.246 N 
ATOM      2  H   UNL     1      -5.367  -0.760   3.123  0.00  0.00    +0.172 HD
ENDROOT
BRANCH   1   5
ATOM      3  C   UNL     1      -4.034   0.021   5.255  0.00  0.00    +0.267 C 
ATOM      4  O   UNL     1      -5.055  -0.593   5.478  0.00  0.00    -0.271 OA
ATOM      5  N   UNL     1      -3.654   0.258   3.984  0.00  0.00    -0.232 N 
ATOM      6  H   UNL     1      -2.727   0.815   3.781  0.00  0.00    +0.173 HD
BRANCH   3   7
ATOM      7  C   UNL     1      -3.188   0.517   6.399  0.00  0.00    +0.326 C 
BRANCH   7   8
ATOM      8  O   UNL     1      -3.795   0.144   7.638  0.00  0.00    -0.479 OA
BRANCH   8  13
ATOM      9  C   UNL     1      -1.136   1.698  12.358  0.00  0.00    +0.044 C 
ATOM     10  C   UNL     1      -1.849   1.281  11.098  0.00  0.00    -0.047 A 
ATOM     11  C   UNL     1      -1.317   1.609   9.864  0.00  0.00    +0.007 A 
ATOM     12  C   UNL     1      -1.968   1.230   8.705  0.00  0.00    +0.050 A 
ATOM     13  C   UNL     1      -3.154   0.518   8.777  0.00  0.00    +0.163 A 
ATOM     14  C   UNL     1      -3.692   0.192  10.019  0.00  0.00    +0.162 A 
ATOM     15  C   UNL     1      -3.032   0.571  11.177  0.00  0.00    +0.052 A 
BRANCH  14  16
ATOM     16  O   UNL     1      -4.859  -0.501  10.095  0.00  0.00    -0.491 OA
ATOM     17  C   UNL     1      -5.352  -0.800  11.403  0.00  0.00    +0.277 C 
ENDBRANCH  14  16
ENDBRANCH   8  13
ENDBRANCH   7   8
ENDBRANCH   3   7
ENDBRANCH   1   5
BRANCH   1  18
ATOM     18  C   UNL     1      -4.061   0.034   1.649  0.00  0.00    +0.147 C 
ATOM     19  S   UNL     1      -5.021  -0.530   0.349  0.00  0.00    -0.017 S 
BRANCH  18  20
ATOM     20  N   UNL     1      -2.925   0.716   1.401  0.00  0.00    -0.321 N 
ATOM     21  H   UNL     1      -2.308   1.079   2.236  0.00  0.00    +0.148 HD
BRANCH  20  22
ATOM     22  C   UNL     1      -2.513   0.975   0.019  0.00  0.00    +0.138 C 
BRANCH  22  23
ATOM     23  C   UNL     1      -1.220   1.749   0.017  0.00  0.00    -0.027 A 
ATOM     24  C   UNL     1      -0.013   1.076   0.008  0.00  0.00    +0.009 A 
ATOM     25  C   UNL     1       1.176   1.782   0.000  0.00  0.00    +0.050 A 
ATOM     26  C   UNL     1       1.160   3.167   0.008  0.00  0.00    +0.166 A 
ATOM     27  C   UNL     1      -0.057   3.845   0.022  0.00  0.00    +0.167 A 
ATOM     28  C   UNL     1      -1.244   3.131   0.031  0.00  0.00    +0.054 A 
ATOM     29  O   UNL     1       0.192   5.188   0.026  0.00  0.00    -0.453 OA
ATOM     30  C   UNL     1       1.561   5.326  -0.398  0.00  0.00    +0.466 C 
ATOM     31  O   UNL     1       2.171   4.084   0.002  0.00  0.00    -0.453 OA
ENDBRANCH  22  23
ENDBRANCH  20  22
ENDBRANCH  18  20
ENDBRANCH   1  18
TORSDOF 9
