REMARK  Name = ZINC63732943
REMARK  9 active torsions:
REMARK  status: ('A' for Active; 'I' for Inactive)
REMARK    1  A    between atoms: C_1  and  C_2
REMARK    2  A    between atoms: C_2  and  C_3
REMARK    3  A    between atoms: C_2  and  C_4
REMARK    4  A    between atoms: C_4  and  C_6
REMARK    5  A    between atoms: C_4  and  N_20
REMARK    6  A    between atoms: N_8  and  C_9
REMARK    7  A    between atoms: C_9  and  C_10
REMARK    8  A    between atoms: C_10  and  C_11
REMARK    9  A    between atoms: C_21  and  C_23
REMARK                            x       y       z     vdW  Elec       q    Type
REMARK                         _______ _______ _______ _____ _____    ______ ____
ROOT
ATOM      1  C   UNL     1      -2.074  -0.231  -1.335  0.00  0.00    +0.234 C 
ATOM      2  O   UNL     1      -2.511  -1.081  -2.081  0.00  0.00    -0.274 OA
ATOM      3  N   UNL     1      -2.204   1.073  -1.649  0.00  0.00    -0.313 N 
ATOM      4  H   UNL     1      -1.924   1.754  -1.018  0.00  0.00    +0.149 HD
ENDROOT
BRANCH   1   5
ATOM      5  C   UNL     1      -1.386  -0.633  -0.056  0.00  0.00    +0.162 C 
BRANCH   5   6
ATOM      6  N   UNL     1      -1.702  -2.030   0.251  0.00  0.00    -0.300 N 
ATOM      7  C   UNL     1      -1.649  -2.470   1.524  0.00  0.00    +0.245 C 
ATOM      8  O   UNL     1      -1.339  -1.707   2.418  0.00  0.00    -0.270 OA
ATOM      9  H   UNL     1      -1.950  -2.639  -0.463  0.00  0.00    +0.150 HD
BRANCH   7  10
ATOM     10  C   UNL     1      -1.968  -3.879   1.832  0.00  0.00    +0.037 A 
ATOM     11  C   UNL     1      -2.318  -4.759   0.806  0.00  0.00    +0.016 A 
ATOM     12  C   UNL     1      -2.615  -6.073   1.099  0.00  0.00    +0.039 A 
ATOM     13  C   UNL     1      -2.565  -6.521   2.411  0.00  0.00    +0.123 A 
ATOM     14  C   UNL     1      -2.217  -5.652   3.433  0.00  0.00    +0.039 A 
ATOM     15  C   UNL     1      -1.913  -4.338   3.150  0.00  0.00    +0.016 A 
ATOM     16  F   UNL     1      -2.857  -7.810   2.693  0.00  0.00    -0.205 F 
ENDBRANCH   7  10
ENDBRANCH   5   6
BRANCH   5  18
ATOM     17  C   UNL     1       0.820  -0.801   1.106  0.00  0.00    +0.009 C 
ATOM     18  C   UNL     1       0.127  -0.476  -0.219  0.00  0.00    +0.012 C 
ATOM     19  C   UNL     1       0.625  -1.434  -1.304  0.00  0.00    +0.009 C 
ENDBRANCH   5  18
ENDBRANCH   1   5
BRANCH   3  20
ATOM     20  C   UNL     1      -2.768   1.462  -2.944  0.00  0.00    +0.108 C 
BRANCH  20  21
ATOM     21  C   UNL     1      -2.804   2.988  -3.047  0.00  0.00    +0.052 C 
BRANCH  21  22
ATOM     22  C   UNL     1      -3.384   3.388  -4.379  0.00  0.00    -0.040 C 
ATOM     23  C   UNL     1      -4.672   3.706  -4.642  0.00  0.00    -0.001 A 
ATOM     24  C   UNL     1      -5.873   3.771  -3.800  0.00  0.00    +0.010 A 
ATOM     25  C   UNL     1      -7.050   4.128  -4.362  0.00  0.00    +0.001 A 
ATOM     26  C   UNL     1      -7.152   4.438  -5.725  0.00  0.00    +0.002 A 
ATOM     27  C   UNL     1      -6.094   4.401  -6.563  0.00  0.00    +0.026 A 
ATOM     28  C   UNL     1      -4.807   4.038  -6.079  0.00  0.00    +0.043 A 
ATOM     29  N   UNL     1      -3.647   3.929  -6.680  0.00  0.00    -0.380 N 
ATOM     30  C   UNL     1      -2.643   3.522  -5.690  0.00  0.00    +0.144 C 
ATOM     31  H   UNL     1      -3.479   4.095  -7.621  0.00  0.00    +0.160 HD
ENDBRANCH  21  22
ENDBRANCH  20  21
ENDBRANCH   3  20
TORSDOF 7
