REMARK  Name = ZINC11813597
REMARK  11 active torsions:
REMARK  status: ('A' for Active; 'I' for Inactive)
REMARK    1  A    between atoms: C_1  and  N_58
REMARK    2  A    between atoms: C_2  and  C_3
REMARK    3  A    between atoms: C_2  and  N_58
REMARK    4  A    between atoms: C_6  and  O_9
REMARK    5  A    between atoms: O_9  and  C_10
REMARK    6  A    between atoms: C_10  and  C_11
REMARK    7  A    between atoms: C_11  and  C_13
REMARK    8  A    between atoms: C_11  and  O_23
REMARK    9  A    between atoms: C_13  and  N_60
REMARK   10  A    between atoms: C_24  and  C_25
REMARK   11  A    between atoms: C_24  and  N_58
REMARK                            x       y       z     vdW  Elec       q    Type
REMARK                         _______ _______ _______ _____ _____    ______ ____
ROOT
ATOM      1  O   UNL     1      -1.214   2.114   0.627  0.00  0.00    -0.489 OA
ENDROOT
BRANCH   1   5
ATOM      2  C   UNL     1       2.375   0.098   0.895  0.00  0.00    -0.064 A 
ATOM      3  C   UNL     1       1.184  -0.589   1.047  0.00  0.00    +0.005 A 
ATOM      4  C   UNL     1      -0.019   0.084   0.960  0.00  0.00    +0.046 A 
ATOM      5  C   UNL     1      -0.032   1.450   0.719  0.00  0.00    +0.121 A 
ATOM      6  C   UNL     1       1.164   2.137   0.567  0.00  0.00    +0.046 A 
ATOM      7  C   UNL     1       2.364   1.459   0.655  0.00  0.00    +0.005 A 
BRANCH   2   8
ATOM      8  C   UNL     1       3.686  -0.639   0.991  0.00  0.00    -0.043 C 
BRANCH   8  10
ATOM      9  C   UNL     1       3.138  -2.139  -0.830  0.00  0.00    -0.095 C 
ATOM     10  N   UNL     1       4.075  -1.097  -0.359  0.00  0.00    +0.384 N 
ATOM     11  H   UNL     1       4.039  -0.300  -1.006  0.00  0.00    -0.081 HD
BRANCH  10  12
ATOM     12  C   UNL     1       5.453  -1.632  -0.334  0.00  0.00    -0.019 C 
BRANCH  12  13
ATOM     13  C   UNL     1       5.903  -1.885  -1.749  0.00  0.00    +0.067 A 
ATOM     14  C   UNL     1       6.637  -1.003  -2.575  0.00  0.00    +0.065 A 
ATOM     15  C   UNL     1       6.787  -1.688  -3.734  0.00  0.00    +0.230 A 
ATOM     16  O   UNL     1       6.176  -2.869  -3.559  0.00  0.00    -0.363 OA
ATOM     17  N   UNL     1       5.698  -2.962  -2.452  0.00  0.00    -0.085 NA
ENDBRANCH  12  13
ENDBRANCH  10  12
ENDBRANCH   8  10
ENDBRANCH   2   8
ENDBRANCH   1   5
BRANCH   1  18
ATOM     18  C   UNL     1      -1.152   3.519   0.378  0.00  0.00    +0.258 C 
BRANCH  18  19
ATOM     19  C   UNL     1      -2.570   4.089   0.308  0.00  0.00    +0.135 C 
BRANCH  19  20
ATOM     20  O   UNL     1      -3.200   3.958   1.585  0.00  0.00    -0.390 OA
ATOM     21  H   UNL     1      -2.741   4.423   2.298  0.00  0.00    +0.210 HD
ENDBRANCH  19  20
BRANCH  19  22
ATOM     22  C   UNL     1      -2.508   5.567  -0.082  0.00  0.00    -0.043 C 
BRANCH  22  32
ATOM     23  C   UNL     1      -4.538   5.600  -1.405  0.00  0.00    -0.074 C 
ATOM     24  C   UNL     1      -6.037   5.877  -1.285  0.00  0.00    +0.017 C 
ATOM     25  C   UNL     1      -6.265   7.321  -0.916  0.00  0.00    -0.048 A 
ATOM     26  C   UNL     1      -7.529   7.859  -1.102  0.00  0.00    +0.004 A 
ATOM     27  C   UNL     1      -7.782   9.175  -0.773  0.00  0.00    +0.000 A 
ATOM     28  C   UNL     1      -6.769   9.962  -0.256  0.00  0.00    +0.000 A 
ATOM     29  C   UNL     1      -5.510   9.427  -0.072  0.00  0.00    +0.002 A 
ATOM     30  C   UNL     1      -5.254   8.105  -0.403  0.00  0.00    -0.061 A 
ATOM     31  C   UNL     1      -3.863   7.568  -0.188  0.00  0.00    -0.043 C 
ATOM     32  N   UNL     1      -3.888   6.096  -0.175  0.00  0.00    +0.384 N 
ATOM     33  H   UNL     1      -4.424   5.777   0.640  0.00  0.00    -0.081 HD
ENDBRANCH  22  32
ENDBRANCH  19  22
ENDBRANCH  18  19
ENDBRANCH   1  18
TORSDOF 10
