REMARK  Name = ZINC27598786
REMARK  8 active torsions:
REMARK  status: ('A' for Active; 'I' for Inactive)
REMARK    1  A    between atoms: C_1  and  C_2
REMARK    2  A    between atoms: C_2  and  C_3
REMARK    3  A    between atoms: N_5  and  C_6
REMARK    4  A    between atoms: C_9  and  C_12
REMARK    5  A    between atoms: C_12  and  C_14
REMARK    6  A    between atoms: C_12  and  N_15
REMARK    7  A    between atoms: C_16  and  C_18
REMARK    8  A    between atoms: C_19  and  C_20
REMARK                            x       y       z     vdW  Elec       q    Type
REMARK                         _______ _______ _______ _____ _____    ______ ____
ROOT
ATOM      1  C   UNL     1      -5.935  -1.221   0.389  0.00  0.00    +0.100 C 
ATOM      2  C   UNL     1      -6.275  -1.800  -0.986  0.00  0.00    +0.033 C 
ENDROOT
BRANCH   1   6
ATOM      3  C   UNL     1      -2.361   1.105   0.110  0.00  0.00    +0.033 A 
ATOM      4  C   UNL     1      -2.286  -0.279   0.192  0.00  0.00    +0.023 A 
ATOM      5  C   UNL     1      -3.442  -1.028   0.288  0.00  0.00    +0.007 A 
ATOM      6  C   UNL     1      -4.675  -0.401   0.291  0.00  0.00    -0.027 A 
ATOM      7  C   UNL     1      -4.753   0.977   0.204  0.00  0.00    +0.007 A 
ATOM      8  C   UNL     1      -3.600   1.732   0.113  0.00  0.00    +0.023 A 
BRANCH   3  11
ATOM      9  C   UNL     1      -1.125   3.076   0.609  0.00  0.00    +0.217 C 
ATOM     10  O   UNL     1      -2.107   3.541   1.149  0.00  0.00    -0.275 OA
ATOM     11  N   UNL     1      -1.191   1.867   0.018  0.00  0.00    -0.286 N 
ATOM     12  H   UNL     1      -0.324   1.478  -0.537  0.00  0.00    +0.155 HD
BRANCH   9  14
ATOM     13  C   UNL     1      -0.026   5.174   1.343  0.00  0.00    +0.013 C 
ATOM     14  C   UNL     1       0.169   3.848   0.605  0.00  0.00    +0.093 C 
ENDBRANCH   9  14
ENDBRANCH   3  11
ENDBRANCH   1   6
BRANCH   1  15
ATOM     15  N   UNL     1      -5.733  -2.314   1.343  0.00  0.00    -0.305 N 
ATOM     16  C   UNL     1      -6.790  -2.859   1.977  0.00  0.00    +0.237 C 
ATOM     17  O   UNL     1      -7.913  -2.443   1.758  0.00  0.00    -0.271 OA
ATOM     18  H   UNL     1      -4.719  -2.690   1.542  0.00  0.00    +0.150 HD
BRANCH  16  19
ATOM     19  C   UNL     1      -6.589  -3.951   2.931  0.00  0.00    +0.068 C 
ATOM     20  C   UNL     1      -7.646  -4.496   3.566  0.00  0.00    +0.013 C 
BRANCH  20  21
ATOM     21  C   UNL     1      -7.443  -5.594   4.524  0.00  0.00    -0.025 A 
ATOM     22  C   UNL     1      -6.156  -6.079   4.775  0.00  0.00    +0.009 A 
ATOM     23  C   UNL     1      -5.973  -7.105   5.678  0.00  0.00    +0.016 A 
ATOM     24  C   UNL     1      -7.062  -7.662   6.327  0.00  0.00    +0.018 A 
ATOM     25  C   UNL     1      -8.340  -7.191   6.080  0.00  0.00    +0.016 A 
ATOM     26  C   UNL     1      -8.538  -6.162   5.184  0.00  0.00    +0.009 A 
ATOM     27 BR   UNL     1      -6.801  -9.075   7.558  0.00  0.00    -0.050 Br
ENDBRANCH  20  21
ENDBRANCH  16  19
ENDBRANCH   1  15
TORSDOF 6
