REMARK  Name = ZINC04420377
REMARK  8 active torsions:
REMARK  status: ('A' for Active; 'I' for Inactive)
REMARK    1  A    between atoms: C_1  and  C_2
REMARK    2  A    between atoms: C_2  and  N_3
REMARK    3  A    between atoms: N_3  and  N_4
REMARK    4  A    between atoms: C_5  and  C_7
REMARK    5  A    between atoms: C_7  and  C_8
REMARK    6  A    between atoms: C_11  and  C_14
REMARK    7  A    between atoms: C_20  and  C_21
REMARK    8  A    between atoms: N_23  and  C_24
REMARK                            x       y       z     vdW  Elec       q    Type
REMARK                         _______ _______ _______ _____ _____    ______ ____
ROOT
ATOM      1  N   UNL     1      -0.706   1.862  -3.562  0.00  0.00    -0.237 N 
ATOM      2  C   UNL     1      -0.009   1.946  -4.712  0.00  0.00    +0.233 C 
ATOM      3  O   UNL     1       1.199   2.053  -4.683  0.00  0.00    -0.274 OA
ATOM      4  H   UNL     1      -1.672   1.777  -3.585  0.00  0.00    +0.173 HD
ENDROOT
BRANCH   1   5
ATOM      5  N   UNL     1      -0.036   1.899  -2.332  0.00  0.00    -0.269 N 
ATOM      6  H   UNL     1       0.930   1.984  -2.309  0.00  0.00    +0.170 HD
BRANCH   5   8
ATOM      7  C   UNL     1      -0.021   1.854   0.157  0.00  0.00    +0.062 C 
ATOM      8  C   UNL     1      -0.743   1.814  -1.165  0.00  0.00    +0.024 C 
ATOM      9  C   UNL     1      -2.086   1.696  -1.198  0.00  0.00    +0.087 C 
BRANCH   9  10
ATOM     10  C   UNL     1      -2.803   1.445  -0.004  0.00  0.00    +0.239 C 
ATOM     11  O   UNL     1      -2.202   1.218   1.030  0.00  0.00    -0.271 OA
ATOM     12  N   UNL     1      -4.150   1.456  -0.013  0.00  0.00    -0.309 N 
ATOM     13  H   UNL     1      -4.629   1.637  -0.837  0.00  0.00    +0.149 HD
BRANCH  12  14
ATOM     14  C   UNL     1      -4.893   1.196   1.223  0.00  0.00    +0.073 C 
ATOM     15  C   UNL     1      -5.033   2.497   2.017  0.00  0.00    +0.022 C 
ATOM     16  C   UNL     1      -5.808   2.225   3.308  0.00  0.00    +0.002 C 
ATOM     17  C   UNL     1      -7.198   1.685   2.964  0.00  0.00    +0.000 C 
ATOM     18  C   UNL     1      -7.058   0.385   2.170  0.00  0.00    +0.002 C 
ATOM     19  C   UNL     1      -6.282   0.656   0.879  0.00  0.00    +0.022 C 
ENDBRANCH  12  14
ENDBRANCH   9  10
ENDBRANCH   5   8
ENDBRANCH   1   5
BRANCH   2  20
ATOM     20  C   UNL     1      -0.730   1.907  -6.035  0.00  0.00    +0.132 C 
BRANCH  20  21
ATOM     21  C   UNL     1       0.270   2.016  -7.156  0.00  0.00    -0.039 A 
ATOM     22  C   UNL     1       0.626   3.261  -7.643  0.00  0.00    +0.005 A 
ATOM     23  C   UNL     1       1.542   3.368  -8.669  0.00  0.00    +0.009 A 
ATOM     24  C   UNL     1       2.109   2.218  -9.216  0.00  0.00    -0.018 A 
ATOM     25  C   UNL     1       1.747   0.967  -8.722  0.00  0.00    +0.009 A 
ATOM     26  C   UNL     1       0.834   0.872  -7.691  0.00  0.00    +0.005 A 
BRANCH  24  27
ATOM     27  C   UNL     1       3.094   2.327 -10.321  0.00  0.00    -0.018 A 
ATOM     28  C   UNL     1       3.459   3.578 -10.811  0.00  0.00    +0.008 A 
ATOM     29  C   UNL     1       4.377   3.673 -11.838  0.00  0.00    +0.001 A 
ATOM     30  C   UNL     1       4.932   2.529 -12.381  0.00  0.00    +0.000 A 
ATOM     31  C   UNL     1       4.572   1.283 -11.898  0.00  0.00    +0.001 A 
ATOM     32  C   UNL     1       3.660   1.177 -10.867  0.00  0.00    +0.008 A 
ENDBRANCH  24  27
ENDBRANCH  20  21
ENDBRANCH   2  20
TORSDOF 7
