REMARK  Name = ZINC38898359
REMARK  6 active torsions:
REMARK  status: ('A' for Active; 'I' for Inactive)
REMARK    1  A    between atoms: C_1  and  O_2
REMARK    2  A    between atoms: O_2  and  C_3
REMARK    3  A    between atoms: C_6  and  C_9
REMARK    4  A    between atoms: N_15  and  N_16
REMARK    5  A    between atoms: C_17  and  C_18
REMARK    6  A    between atoms: C_23  and  O_24
REMARK                            x       y       z     vdW  Elec       q    Type
REMARK                         _______ _______ _______ _____ _____    ______ ____
ROOT
ATOM      1  C   UNL     1       2.586  -2.615   4.455  0.00  0.00    +0.264 C 
ATOM      2  N   UNL     1       3.725  -1.739   4.767  0.00  0.00    -0.189 NA
ATOM      3  N   UNL     1       4.756  -2.302   4.390  0.00  0.00    -0.219 N 
ATOM      4  C   UNL     1       4.531  -3.517   3.823  0.00  0.00    +0.174 C 
ATOM      5  S   UNL     1       5.747  -4.549   3.200  0.00  0.00    -0.015 S 
ATOM      6  N   UNL     1       3.205  -3.794   3.823  0.00  0.00    -0.172 N 
ATOM      7  H   UNL     1       5.641  -1.916   4.489  0.00  0.00    +0.176 HD
ENDROOT
BRANCH   1  11
ATOM      8  C   UNL     1      -0.089  -0.686   1.737  0.00  0.00    +0.120 A 
ATOM      9  C   UNL     1       0.605   0.062   2.677  0.00  0.00    +0.046 A 
ATOM     10  C   UNL     1       1.469  -0.564   3.555  0.00  0.00    +0.011 A 
ATOM     11  C   UNL     1       1.642  -1.935   3.497  0.00  0.00    -0.002 A 
ATOM     12  C   UNL     1       0.952  -2.682   2.561  0.00  0.00    +0.011 A 
ATOM     13  C   UNL     1       0.082  -2.062   1.685  0.00  0.00    +0.046 A 
BRANCH   8  15
ATOM     14  C   UNL     1      -1.066   1.347   0.984  0.00  0.00    +0.277 C 
ATOM     15  O   UNL     1      -0.940  -0.072   0.873  0.00  0.00    -0.495 OA
ENDBRANCH   8  15
ENDBRANCH   1  11
BRANCH   6  16
ATOM     16  N   UNL     1       2.565  -4.940   3.333  0.00  0.00    -0.183 NA
ATOM     17  C   UNL     1       3.268  -5.943   2.902  0.00  0.00    +0.142 C 
BRANCH  17  18
ATOM     18  C   UNL     1       2.604  -7.078   2.238  0.00  0.00    +0.038 A 
ATOM     19  C   UNL     1       3.357  -8.162   1.779  0.00  0.00    +0.028 A 
ATOM     20  C   UNL     1       2.728  -9.222   1.158  0.00  0.00    +0.020 A 
ATOM     21  C   UNL     1       1.353  -9.216   0.988  0.00  0.00    +0.034 A 
ATOM     22  C   UNL     1       0.598  -8.149   1.438  0.00  0.00    +0.061 A 
ATOM     23  C   UNL     1       1.213  -7.079   2.069  0.00  0.00    +0.139 A 
ATOM     24 BR   UNL     1      -1.278  -8.153   1.199  0.00  0.00    -0.046 Br
ATOM     25 BR   UNL     1       3.748 -10.688   0.536  0.00  0.00    -0.050 Br
BRANCH  23  26
ATOM     26  O   UNL     1       0.471  -6.033   2.517  0.00  0.00    -0.505 OA
ATOM     27  H   UNL     1       0.350  -5.329   1.865  0.00  0.00    +0.292 HD
ENDBRANCH  23  26
ENDBRANCH  17  18
ENDBRANCH   6  16
TORSDOF 5
