REMARK  Name = ZINC22987450
REMARK  9 active torsions:
REMARK  status: ('A' for Active; 'I' for Inactive)
REMARK    1  A    between atoms: C_1  and  N_2
REMARK    2  A    between atoms: N_9  and  C_36
REMARK    3  A    between atoms: C_11  and  C_12
REMARK    4  A    between atoms: C_11  and  C_14
REMARK    5  A    between atoms: C_14  and  C_16
REMARK    6  A    between atoms: C_16  and  S_17
REMARK    7  A    between atoms: S_17  and  C_18
REMARK    8  A    between atoms: N_28  and  C_29
REMARK    9  A    between atoms: C_29  and  C_30
REMARK                            x       y       z     vdW  Elec       q    Type
REMARK                         _______ _______ _______ _____ _____    ______ ____
ROOT
ATOM      1  S   UNL     1      -8.154   4.099  -0.098  0.00  0.00    -0.080 S 
ENDROOT
BRANCH   1   2
ATOM      2  C   UNL     1      -9.800   3.571   0.245  0.00  0.00    +0.173 A 
ATOM      3  N   UNL     1      -9.993   2.328   0.613  0.00  0.00    -0.223 NA
ATOM      4  C   UNL     1     -11.225   1.858   0.896  0.00  0.00    +0.079 A 
ATOM      5  C   UNL     1     -11.430   0.534   1.293  0.00  0.00    +0.028 A 
ATOM      6  C   UNL     1     -12.696   0.098   1.565  0.00  0.00    +0.002 A 
ATOM      7  C   UNL     1     -13.786   0.952   1.452  0.00  0.00    +0.001 A 
ATOM      8  C   UNL     1     -13.617   2.253   1.066  0.00  0.00    +0.015 A 
ATOM      9  C   UNL     1     -12.336   2.724   0.782  0.00  0.00    +0.065 A 
ATOM     10  C   UNL     1     -12.094   4.112   0.363  0.00  0.00    +0.262 A 
ATOM     11  O   UNL     1     -13.010   4.905   0.247  0.00  0.00    -0.267 OA
ATOM     12  N   UNL     1     -10.815   4.474   0.110  0.00  0.00    -0.285 N 
BRANCH  12  13
ATOM     13  C   UNL     1     -10.518   5.845  -0.311  0.00  0.00    +0.159 C 
BRANCH  13  14
ATOM     14  C   UNL     1     -10.576   5.934  -1.838  0.00  0.00    +0.138 C 
ATOM     15  C   UNL     1     -10.194   7.360  -2.308  0.00  0.00    +0.035 C 
ATOM     16  C   UNL     1      -9.694   7.070  -3.750  0.00  0.00    +0.031 C 
ATOM     17  C   UNL     1      -9.039   5.681  -3.596  0.00  0.00    +0.160 C 
ATOM     18  O   UNL     1      -9.591   5.069  -2.425  0.00  0.00    -0.375 OA
ENDBRANCH  13  14
ENDBRANCH  12  13
ENDBRANCH   1   2
BRANCH   1  19
ATOM     19  C   UNL     1      -7.256   2.562   0.230  0.00  0.00    +0.157 C 
BRANCH  19  20
ATOM     20  C   UNL     1      -5.784   2.781  -0.006  0.00  0.00    +0.187 C 
ATOM     21  O   UNL     1      -5.380   3.871  -0.361  0.00  0.00    -0.290 OA
BRANCH  20  32
ATOM     22  C   UNL     1      -2.695  -0.322   0.675  0.00  0.00    +0.137 C 
ATOM     23  N   UNL     1      -3.007   0.841   1.510  0.00  0.00    -0.289 N 
ATOM     24  C   UNL     1      -2.348   1.204   2.679  0.00  0.00    +0.056 A 
ATOM     25  C   UNL     1      -1.284   0.650   3.379  0.00  0.00    +0.025 A 
ATOM     26  C   UNL     1      -0.834   1.253   4.536  0.00  0.00    +0.002 A 
ATOM     27  C   UNL     1      -1.442   2.405   5.005  0.00  0.00    +0.002 A 
ATOM     28  C   UNL     1      -2.503   2.961   4.320  0.00  0.00    +0.025 A 
ATOM     29  C   UNL     1      -2.964   2.363   3.156  0.00  0.00    +0.056 A 
ATOM     30  N   UNL     1      -3.986   2.677   2.268  0.00  0.00    -0.289 N 
ATOM     31  C   UNL     1      -3.990   1.748   1.276  0.00  0.00    +0.118 C 
ATOM     32  C   UNL     1      -4.877   1.724   0.186  0.00  0.00    +0.131 C 
ATOM     33  C   UNL     1      -4.894   3.822   2.374  0.00  0.00    +0.137 C 
BRANCH  32  34
ATOM     34  C   UNL     1      -4.857   0.623  -0.730  0.00  0.00    +0.106 C 
ATOM     35  N   UNL     1      -4.842  -0.250  -1.456  0.00  0.00    -0.191 NA
ENDBRANCH  32  34
ENDBRANCH  20  32
ENDBRANCH  19  20
ENDBRANCH   1  19
TORSDOF 7
