REMARK  Name = ZINC57549025
REMARK  12 active torsions:
REMARK  status: ('A' for Active; 'I' for Inactive)
REMARK    1  A    between atoms: C_1  and  C_2
REMARK    2  A    between atoms: C_2  and  C_4
REMARK    3  A    between atoms: C_2  and  N_12
REMARK    4  A    between atoms: C_13  and  C_15
REMARK    5  A    between atoms: C_15  and  C_17
REMARK    6  A    between atoms: C_15  and  O_18
REMARK    7  A    between atoms: O_18  and  C_19
REMARK    8  A    between atoms: C_19  and  C_21
REMARK    9  A    between atoms: C_26  and  N_27
REMARK   10  A    between atoms: N_27  and  C_28
REMARK   11  A    between atoms: C_28  and  C_29
REMARK   12  A    between atoms: C_29  and  O_30
REMARK                            x       y       z     vdW  Elec       q    Type
REMARK                         _______ _______ _______ _____ _____    ______ ____
ROOT
ATOM      1  C   UNL     1      -3.433  -1.124   1.194  0.00  0.00    +0.259 C 
ATOM      2  C   UNL     1      -3.418  -2.570   0.695  0.00  0.00    +0.062 C 
ENDROOT
BRANCH   1   4
ATOM      3  N   UNL     1      -1.375  -0.419   0.016  0.00  0.00    -0.306 N 
ATOM      4  C   UNL     1      -2.029  -0.575   1.184  0.00  0.00    +0.254 C 
ATOM      5  O   UNL     1      -1.489  -0.273   2.227  0.00  0.00    -0.272 OA
ATOM      6  H   UNL     1      -1.807  -0.661  -0.818  0.00  0.00    +0.149 HD
BRANCH   3   8
ATOM      7  C   UNL     1      -0.061   1.643   0.013  0.00  0.00    +0.033 C 
ATOM      8  C   UNL     1      -0.011   0.114   0.006  0.00  0.00    +0.102 C 
BRANCH   8   9
ATOM      9  C   UNL     1       0.705  -0.360  -1.232  0.00  0.00    -0.009 A 
ATOM     10  C   UNL     1      -0.018  -0.702  -2.360  0.00  0.00    +0.008 A 
ATOM     11  C   UNL     1       0.638  -1.137  -3.496  0.00  0.00    +0.020 A 
ATOM     12  C   UNL     1       2.019  -1.229  -3.506  0.00  0.00    +0.042 A 
ATOM     13  C   UNL     1       2.742  -0.886  -2.378  0.00  0.00    +0.040 A 
ATOM     14  C   UNL     1       2.086  -0.446  -1.243  0.00  0.00    +0.047 A 
ATOM     15 CL   UNL     1       2.994  -0.010   0.171  0.00  0.00    -0.083 Cl
ATOM     16 CL   UNL     1       2.842  -1.776  -4.933  0.00  0.00    -0.083 Cl
ENDBRANCH   8   9
ENDBRANCH   3   8
ENDBRANCH   1   4
BRANCH   1  17
ATOM     17  O   UNL     1      -3.950  -1.084   2.526  0.00  0.00    -0.449 OA
BRANCH  17  18
ATOM     18  C   UNL     1      -5.282  -0.928   2.661  0.00  0.00    +0.342 C 
ATOM     19  O   UNL     1      -5.985  -0.828   1.675  0.00  0.00    -0.245 OA
BRANCH  18  20
ATOM     20  C   UNL     1      -5.885  -0.879   4.003  0.00  0.00    +0.080 A 
ATOM     21  C   UNL     1      -5.101  -1.115   5.136  0.00  0.00    +0.017 A 
ATOM     22  C   UNL     1      -5.672  -1.067   6.389  0.00  0.00    +0.001 A 
ATOM     23  C   UNL     1      -7.021  -0.787   6.534  0.00  0.00    +0.002 A 
ATOM     24  C   UNL     1      -7.809  -0.552   5.426  0.00  0.00    +0.024 A 
ATOM     25  C   UNL     1      -7.251  -0.590   4.154  0.00  0.00    +0.041 A 
BRANCH  25  26
ATOM     26  N   UNL     1      -8.040  -0.348   3.038  0.00  0.00    -0.341 N 
ATOM     27  H   UNL     1      -7.669  -0.457   2.148  0.00  0.00    +0.146 HD
BRANCH  26  28
ATOM     28  C   UNL     1      -9.435   0.070   3.203  0.00  0.00    +0.129 C 
BRANCH  28  29
ATOM     29  C   UNL     1     -10.075   0.268   1.828  0.00  0.00    +0.174 C 
BRANCH  29  30
ATOM     30  O   UNL     1     -10.135  -0.987   1.146  0.00  0.00    -0.393 OA
ATOM     31  H   UNL     1     -10.530  -0.937   0.265  0.00  0.00    +0.209 HD
ENDBRANCH  29  30
ENDBRANCH  28  29
ENDBRANCH  26  28
ENDBRANCH  25  26
ENDBRANCH  18  20
ENDBRANCH  17  18
ENDBRANCH   1  17
TORSDOF 10
