REMARK  Name = ZINC45551117
REMARK  6 active torsions:
REMARK  status: ('A' for Active; 'I' for Inactive)
REMARK    1  A    between atoms: C_1  and  C_2
REMARK    2  A    between atoms: C_7  and  N_12
REMARK    3  A    between atoms: C_9  and  C_11
REMARK    4  A    between atoms: N_15  and  N_16
REMARK    5  A    between atoms: C_17  and  C_19
REMARK    6  A    between atoms: C_19  and  C_20
REMARK                            x       y       z     vdW  Elec       q    Type
REMARK                         _______ _______ _______ _____ _____    ______ ____
ROOT
ATOM      1  N   UNL     1       1.471  -2.526   2.420  0.00  0.00    -0.295 N 
ATOM      2  C   UNL     1       1.207  -3.754   2.907  0.00  0.00    +0.316 C 
ATOM      3  O   UNL     1       0.380  -4.460   2.362  0.00  0.00    -0.251 OA
ATOM      4  N   UNL     1       1.859  -4.201   3.999  0.00  0.00    -0.218 N 
ATOM      5  H   UNL     1       2.131  -1.963   2.855  0.00  0.00    +0.151 HD
ATOM      6  H   UNL     1       1.668  -5.085   4.350  0.00  0.00    +0.174 HD
ENDROOT
BRANCH   1  12
ATOM      7  C   UNL     1      -0.019   1.526   0.010  0.00  0.00    +0.008 C 
ATOM      8  C   UNL     1       0.002  -0.004   0.002  0.00  0.00    -0.009 C 
ATOM      9  C   UNL     1       0.718  -0.497  -1.257  0.00  0.00    +0.003 C 
ATOM     10  C   UNL     1       0.739  -2.027  -1.265  0.00  0.00    +0.002 C 
ATOM     11  C   UNL     1       1.479  -2.534  -0.026  0.00  0.00    +0.022 C 
ATOM     12  C   UNL     1       0.763  -2.041   1.233  0.00  0.00    +0.078 C 
ATOM     13  C   UNL     1       0.742  -0.511   1.242  0.00  0.00    +0.009 C 
ATOM     14  C   UNL     1       0.026  -0.018   2.500  0.00  0.00    +0.009 C 
ENDBRANCH   1  12
BRANCH   4  15
ATOM     15  N   UNL     1       2.811  -3.388   4.628  0.00  0.00    -0.233 N 
ATOM     16  C   UNL     1       3.463  -3.835   5.720  0.00  0.00    +0.233 C 
ATOM     17  O   UNL     1       3.225  -4.940   6.158  0.00  0.00    -0.274 OA
ATOM     18  H   UNL     1       3.002  -2.504   4.277  0.00  0.00    +0.173 HD
BRANCH  16  19
ATOM     19  C   UNL     1       4.488  -2.960   6.395  0.00  0.00    +0.132 C 
BRANCH  19  20
ATOM     20  C   UNL     1       5.065  -3.688   7.582  0.00  0.00    -0.038 A 
ATOM     21  C   UNL     1       4.471  -3.565   8.824  0.00  0.00    +0.007 A 
ATOM     22  C   UNL     1       4.999  -4.232   9.913  0.00  0.00    +0.038 A 
ATOM     23  C   UNL     1       6.124  -5.025   9.759  0.00  0.00    +0.123 A 
ATOM     24  C   UNL     1       6.718  -5.148   8.515  0.00  0.00    +0.038 A 
ATOM     25  C   UNL     1       6.185  -4.484   7.426  0.00  0.00    +0.007 A 
ATOM     26  F   UNL     1       6.641  -5.677  10.823  0.00  0.00    -0.205 F 
ENDBRANCH  19  20
ENDBRANCH  16  19
ENDBRANCH   4  15
TORSDOF 4
