REMARK  Name = ZINC59384192
REMARK  7 active torsions:
REMARK  status: ('A' for Active; 'I' for Inactive)
REMARK    1  A    between atoms: C_1  and  C_2
REMARK    2  A    between atoms: C_3  and  C_19
REMARK    3  A    between atoms: C_4  and  C_10
REMARK    4  A    between atoms: C_13  and  N_16
REMARK    5  A    between atoms: N_21  and  N_22
REMARK    6  A    between atoms: C_23  and  C_24
REMARK    7  A    between atoms: C_27  and  O_30
REMARK                            x       y       z     vdW  Elec       q    Type
REMARK                         _______ _______ _______ _____ _____    ______ ____
ROOT
ATOM      1  C   UNL     1       0.658   1.367   0.084  0.00  0.00    +0.061 C 
ATOM      2  C   UNL     1       0.360  -0.109   0.047  0.00  0.00    +0.017 C 
ATOM      3  C   UNL     1      -0.922  -0.526  -0.023  0.00  0.00    +0.057 C 
ATOM      4  C   UNL     1      -1.177  -2.019  -0.058  0.00  0.00    +0.139 C 
ATOM      5  N   UNL     1       0.003  -2.899  -0.013  0.00  0.00    -0.315 N 
ATOM      6  C   UNL     1       1.224  -2.332   0.055  0.00  0.00    +0.135 C 
ATOM      7  S   UNL     1       2.604  -3.343   0.107  0.00  0.00    -0.019 S 
ATOM      8  N   UNL     1       1.392  -1.004   0.078  0.00  0.00    -0.300 N 
ATOM      9  H   UNL     1      -0.096  -3.864  -0.033  0.00  0.00    +0.149 HD
ATOM     10  H   UNL     1       2.297  -0.658   0.124  0.00  0.00    +0.154 HD
ENDROOT
BRANCH   4  11
ATOM     11  C   UNL     1      -1.940  -2.331  -1.320  0.00  0.00    -0.023 A 
ATOM     12  C   UNL     1      -1.293  -2.314  -2.541  0.00  0.00    +0.008 A 
ATOM     13  C   UNL     1      -1.993  -2.599  -3.699  0.00  0.00    +0.033 A 
ATOM     14  C   UNL     1      -3.340  -2.902  -3.635  0.00  0.00    +0.126 A 
ATOM     15  C   UNL     1      -3.987  -2.920  -2.413  0.00  0.00    +0.033 A 
ATOM     16  C   UNL     1      -3.286  -2.639  -1.255  0.00  0.00    +0.008 A 
BRANCH  14  17
ATOM     17  N   UNL     1      -4.090  -3.207  -4.874  0.00  0.00    +0.056 N 
ATOM     18  O   UNL     1      -3.524  -3.191  -5.942  0.00  0.00    -0.126 OA
ATOM     19  O   UNL     1      -5.268  -3.471  -4.818  0.00  0.00    -0.126 OA
ENDBRANCH  14  17
ENDBRANCH   4  11
BRANCH   3  20
ATOM     20  C   UNL     1      -1.992   0.401  -0.061  0.00  0.00    +0.263 C 
ATOM     21  O   UNL     1      -2.657   0.604   0.939  0.00  0.00    -0.269 OA
ATOM     22  N   UNL     1      -2.275   1.057  -1.204  0.00  0.00    -0.203 N 
ATOM     23  H   UNL     1      -1.795   0.841  -2.018  0.00  0.00    +0.178 HD
BRANCH  22  24
ATOM     24  N   UNL     1      -3.263   2.050  -1.215  0.00  0.00    -0.187 NA
ATOM     25  C   UNL     1      -3.535   2.682  -2.315  0.00  0.00    +0.138 C 
BRANCH  25  26
ATOM     26  C   UNL     1      -4.574   3.728  -2.327  0.00  0.00    -0.005 A 
ATOM     27  C   UNL     1      -5.264   4.044  -1.153  0.00  0.00    +0.013 A 
ATOM     28  C   UNL     1      -6.234   5.022  -1.169  0.00  0.00    +0.046 A 
ATOM     29  C   UNL     1      -6.529   5.692  -2.349  0.00  0.00    +0.117 A 
ATOM     30  C   UNL     1      -5.846   5.381  -3.518  0.00  0.00    +0.046 A 
ATOM     31  C   UNL     1      -4.869   4.409  -3.511  0.00  0.00    +0.013 A 
BRANCH  29  32
ATOM     32  O   UNL     1      -7.487   6.655  -2.361  0.00  0.00    -0.507 OA
ATOM     33  H   UNL     1      -7.155   7.543  -2.169  0.00  0.00    +0.292 HD
ENDBRANCH  29  32
ENDBRANCH  25  26
ENDBRANCH  22  24
ENDBRANCH   3  20
TORSDOF 6
