REMARK  Name = ZINC09091552
REMARK  11 active torsions:
REMARK  status: ('A' for Active; 'I' for Inactive)
REMARK    1  A    between atoms: C_1  and  C_2
REMARK    2  A    between atoms: C_5  and  O_29
REMARK    3  A    between atoms: C_6  and  N_8
REMARK    4  A    between atoms: C_9  and  C_11
REMARK    5  A    between atoms: C_11  and  S_12
REMARK    6  A    between atoms: S_12  and  C_13
REMARK    7  A    between atoms: N_23  and  C_24
REMARK    8  A    between atoms: C_24  and  C_25
REMARK    9  A    between atoms: C_25  and  C_26
REMARK   10  A    between atoms: C_25  and  C_27
REMARK   11  A    between atoms: O_29  and  C_30
REMARK                            x       y       z     vdW  Elec       q    Type
REMARK                         _______ _______ _______ _____ _____    ______ ____
ROOT
ATOM      1  C   UNL     1      -0.319   2.736   1.793  0.00  0.00    +0.173 A 
ATOM      2  N   UNL     1      -0.887   3.221   2.869  0.00  0.00    -0.223 NA
ATOM      3  C   UNL     1      -1.871   2.550   3.513  0.00  0.00    +0.079 A 
ATOM      4  C   UNL     1      -2.474   3.064   4.665  0.00  0.00    +0.030 A 
ATOM      5  C   UNL     1      -3.463   2.357   5.287  0.00  0.00    +0.022 A 
ATOM      6  C   UNL     1      -3.883   1.127   4.792  0.00  0.00    +0.042 A 
ATOM      7  C   UNL     1      -3.308   0.595   3.658  0.00  0.00    +0.035 A 
ATOM      8  C   UNL     1      -2.296   1.300   3.008  0.00  0.00    +0.066 A 
ATOM      9  C   UNL     1      -1.645   0.784   1.796  0.00  0.00    +0.262 A 
ATOM     10  O   UNL     1      -1.969  -0.286   1.314  0.00  0.00    -0.267 OA
ATOM     11  N   UNL     1      -0.673   1.540   1.236  0.00  0.00    -0.287 N 
ATOM     12 CL   UNL     1      -5.144   0.256   5.608  0.00  0.00    -0.084 Cl
ENDROOT
BRANCH   1  13
ATOM     13  S   UNL     1       0.959   3.675   1.023  0.00  0.00    -0.078 S 
BRANCH  13  14
ATOM     14  C   UNL     1       1.013   5.103   2.133  0.00  0.00    +0.173 C 
BRANCH  14  16
ATOM     15  N   UNL     1       2.286   7.214   2.335  0.00  0.00    -0.282 N 
ATOM     16  C   UNL     1       2.066   6.070   1.657  0.00  0.00    +0.228 C 
ATOM     17  O   UNL     1       2.716   5.818   0.665  0.00  0.00    -0.275 OA
ATOM     18  H   UNL     1       1.713   7.454   3.080  0.00  0.00    +0.155 HD
BRANCH  15  24
ATOM     19  C   UNL     1       6.669   7.814   0.190  0.00  0.00    +0.044 C 
ATOM     20  C   UNL     1       5.478   8.376   0.921  0.00  0.00    -0.048 A 
ATOM     21  C   UNL     1       5.427   9.724   1.225  0.00  0.00    +0.007 A 
ATOM     22  C   UNL     1       4.337  10.245   1.897  0.00  0.00    +0.048 A 
ATOM     23  C   UNL     1       3.291   9.415   2.268  0.00  0.00    +0.141 A 
ATOM     24  C   UNL     1       3.341   8.057   1.962  0.00  0.00    +0.076 A 
ATOM     25  C   UNL     1       4.441   7.541   1.292  0.00  0.00    +0.030 A 
BRANCH  23  26
ATOM     26  O   UNL     1       2.218   9.926   2.929  0.00  0.00    -0.493 OA
ATOM     27  C   UNL     1       2.235  11.328   3.208  0.00  0.00    +0.277 C 
ENDBRANCH  23  26
ENDBRANCH  15  24
ENDBRANCH  14  16
ENDBRANCH  13  14
ENDBRANCH   1  13
BRANCH  11  28
ATOM     28  C   UNL     1       0.008   1.071   0.028  0.00  0.00    +0.130 C 
BRANCH  28  29
ATOM     29  C   UNL     1      -0.742   1.572  -1.208  0.00  0.00    +0.003 C 
ATOM     30  C   UNL     1      -0.771   3.102  -1.201  0.00  0.00    +0.009 C 
ATOM     31  C   UNL     1      -0.030   1.081  -2.470  0.00  0.00    +0.009 C 
ENDBRANCH  28  29
ENDBRANCH  11  28
TORSDOF 7
