REMARK  Name = ZINC11813153
REMARK  14 active torsions:
REMARK  status: ('A' for Active; 'I' for Inactive)
REMARK    1  A    between atoms: C_1  and  C_2
REMARK    2  A    between atoms: C_3  and  C_8
REMARK    3  A    between atoms: N_5  and  C_7
REMARK    4  A    between atoms: C_8  and  N_64
REMARK    5  A    between atoms: C_9  and  C_10
REMARK    6  A    between atoms: C_9  and  N_64
REMARK    7  A    between atoms: C_15  and  O_22
REMARK    8  A    between atoms: C_16  and  O_20
REMARK    9  A    between atoms: C_17  and  O_18
REMARK   10  A    between atoms: O_18  and  C_19
REMARK   11  A    between atoms: O_20  and  C_21
REMARK   12  A    between atoms: O_22  and  C_23
REMARK   13  A    between atoms: C_24  and  N_25
REMARK   14  A    between atoms: C_29  and  O_32
REMARK                            x       y       z     vdW  Elec       q    Type
REMARK                         _______ _______ _______ _____ _____    ______ ____
ROOT
ATOM      1  C   UNL     1      -4.064   3.442  -0.471  0.00  0.00    -0.026 A 
ATOM      2  C   UNL     1      -2.926   2.818  -0.050  0.00  0.00    +0.018 A 
ATOM      3  C   UNL     1      -1.991   3.563   0.693  0.00  0.00    +0.044 A 
ATOM      4  C   UNL     1      -2.261   4.925   0.974  0.00  0.00    +0.055 A 
ATOM      5  C   UNL     1      -1.332   5.673   1.713  0.00  0.00    +0.075 A 
ATOM      6  C   UNL     1      -0.172   5.080   2.158  0.00  0.00    +0.167 A 
ATOM      7  C   UNL     1       0.094   3.733   1.887  0.00  0.00    +0.204 A 
ATOM      8  C   UNL     1      -0.798   2.976   1.158  0.00  0.00    +0.174 A 
ATOM      9  C   UNL     1      -4.274   4.791  -0.162  0.00  0.00    +0.101 A 
ATOM     10  N   UNL     1      -3.410   5.559   0.548  0.00  0.00    -0.343 N 
ATOM     11  H   UNL     1      -3.598   6.546   0.756  0.00  0.00    +0.167 HD
ENDROOT
BRANCH   9  12
ATOM     12  N   UNL     1      -5.436   5.413  -0.597  0.00  0.00    -0.314 N 
ATOM     13  C   UNL     1      -6.487   5.339   0.426  0.00  0.00    +0.106 C 
ATOM     14  C   UNL     1      -7.793   5.903  -0.141  0.00  0.00    +0.021 C 
ATOM     15  C   UNL     1      -7.572   7.356  -0.569  0.00  0.00    +0.034 C 
ATOM     16  C   UNL     1      -6.440   7.410  -1.599  0.00  0.00    +0.132 C 
ATOM     17  C   UNL     1      -5.174   6.803  -0.990  0.00  0.00    +0.137 C 
BRANCH  16  18
ATOM     18  O   UNL     1      -6.190   8.770  -1.962  0.00  0.00    -0.390 OA
ATOM     19  H   UNL     1      -6.951   9.218  -2.356  0.00  0.00    +0.210 HD
ENDBRANCH  16  18
ENDBRANCH   9  12
BRANCH   8  20
ATOM     20  O   UNL     1      -0.531   1.670   0.893  0.00  0.00    -0.491 OA
ATOM     21  C   UNL     1      -0.934   0.714   1.875  0.00  0.00    +0.277 C 
ENDBRANCH   8  20
BRANCH   7  22
ATOM     22  O   UNL     1       1.246   3.167   2.343  0.00  0.00    -0.488 OA
ATOM     23  C   UNL     1       2.389   3.244   1.489  0.00  0.00    +0.277 C 
ENDBRANCH   7  22
BRANCH   6  24
ATOM     24  O   UNL     1       0.724   5.810   2.873  0.00  0.00    -0.491 OA
ATOM     25  C   UNL     1       0.394   7.178   3.123  0.00  0.00    +0.277 C 
ENDBRANCH   6  24
BRANCH   1  26
ATOM     26  C   UNL     1      -5.091   2.680  -1.268  0.00  0.00    -0.043 C 
BRANCH  26  27
ATOM     27  N   UNL     1      -4.979   3.060  -2.689  0.00  0.00    +0.385 N 
ATOM     28  H   UNL     1      -5.142   4.069  -2.784  0.00  0.00    -0.085 HD
ATOM     29  H   UNL     1      -4.037   2.832  -3.027  0.00  0.00    -0.085 HD
BRANCH  27  30
ATOM     30  C   UNL     1      -5.975   2.328  -3.494  0.00  0.00    -0.043 C 
BRANCH  30  33
ATOM     31  C   UNL     1      -3.808   1.245  -5.537  0.00  0.00    +0.068 C 
ATOM     32  C   UNL     1      -4.882   2.258  -5.841  0.00  0.00    +0.061 A 
ATOM     33  C   UNL     1      -5.838   2.736  -4.939  0.00  0.00    -0.024 A 
ATOM     34  C   UNL     1      -6.621   3.624  -5.593  0.00  0.00    +0.110 A 
ATOM     35  N   UNL     1      -6.171   3.712  -6.862  0.00  0.00    -0.274 N 
ATOM     36  N   UNL     1      -5.081   2.842  -6.994  0.00  0.00    -0.177 NA
ATOM     37  C   UNL     1      -6.728   4.562  -7.918  0.00  0.00    +0.172 C 
ENDBRANCH  30  33
ENDBRANCH  27  30
ENDBRANCH  26  27
ENDBRANCH   1  26
TORSDOF 9
