REMARK  Name = ZINC08831587
REMARK  12 active torsions:
REMARK  status: ('A' for Active; 'I' for Inactive)
REMARK    1  A    between atoms: C_1  and  C_2
REMARK    2  A    between atoms: C_6  and  C_10
REMARK    3  A    between atoms: C_7  and  O_8
REMARK    4  A    between atoms: O_8  and  C_9
REMARK    5  A    between atoms: N_12  and  C_13
REMARK    6  A    between atoms: C_13  and  N_15
REMARK    7  A    between atoms: N_15  and  C_16
REMARK    8  A    between atoms: C_17  and  C_30
REMARK    9  A    between atoms: C_22  and  C_26
REMARK   10  A    between atoms: C_26  and  C_27
REMARK   11  A    between atoms: C_26  and  C_28
REMARK   12  A    between atoms: C_26  and  C_29
REMARK                            x       y       z     vdW  Elec       q    Type
REMARK                         _______ _______ _______ _____ _____    ______ ____
ROOT
ATOM      1  N   UNL     1      -1.156  -0.694   0.009  0.00  0.00    -0.290 N 
ATOM      2  H   UNL     1      -2.002  -0.220   0.020  0.00  0.00    +0.154 HD
ENDROOT
BRANCH   1   3
ATOM      3  C   UNL     1      -1.137  -2.081   0.002  0.00  0.00    +0.089 A 
ATOM      4  C   UNL     1      -2.212  -2.957   0.013  0.00  0.00    +0.084 A 
ATOM      5  C   UNL     1      -1.919  -4.380  -0.003  0.00  0.00    -0.018 A 
ATOM      6  C   UNL     1      -0.606  -4.697  -0.017  0.00  0.00    -0.004 A 
ATOM      7  S   UNL     1       0.235  -3.139  -0.017  0.00  0.00    -0.077 S 
ATOM      8  C   UNL     1      -0.008  -6.070  -0.030  0.00  0.00    +0.047 C 
ATOM      9  C   UNL     1      -1.109  -7.073  -0.403  0.00  0.00    -0.000 C 
ATOM     10  C   UNL     1      -2.349  -6.783   0.447  0.00  0.00    +0.009 C 
ATOM     11  C   UNL     1      -2.988  -5.466   0.003  0.00  0.00    +0.037 C 
BRANCH   9  12
ATOM     12  C   UNL     1      -0.620  -8.496  -0.128  0.00  0.00    -0.035 C 
ATOM     13  C   UNL     1      -0.281  -8.642   1.357  0.00  0.00    +0.011 C 
ATOM     14  C   UNL     1      -1.718  -9.494  -0.500  0.00  0.00    +0.011 C 
ATOM     15  C   UNL     1       0.629  -8.777  -0.965  0.00  0.00    +0.011 C 
ENDBRANCH   9  12
BRANCH   4  16
ATOM     16  C   UNL     1      -3.561  -2.477   0.035  0.00  0.00    +0.102 C 
ATOM     17  N   UNL     1      -4.631  -2.097   0.053  0.00  0.00    -0.191 NA
ENDBRANCH   4  16
ENDBRANCH   1   3
BRANCH   1  18
ATOM     18  C   UNL     1       0.002  -0.004   0.002  0.00  0.00    +0.141 C 
ATOM     19  S   UNL     1       1.496  -0.840  -0.017  0.00  0.00    -0.018 S 
BRANCH  18  22
ATOM     20  C   UNL     1       1.142   2.033   0.002  0.00  0.00    +0.253 C 
ATOM     21  O   UNL     1       2.203   1.440  -0.011  0.00  0.00    -0.270 OA
ATOM     22  N   UNL     1      -0.016   1.344   0.009  0.00  0.00    -0.263 N 
ATOM     23  H   UNL     1      -0.863   1.817   0.016  0.00  0.00    +0.157 HD
BRANCH  20  29
ATOM     24  C   UNL     1       3.582   6.397   0.002  0.00  0.00    +0.047 C 
ATOM     25  C   UNL     1       2.293   5.615   0.010  0.00  0.00    -0.008 A 
ATOM     26  C   UNL     1       1.083   6.281   0.026  0.00  0.00    +0.007 A 
ATOM     27  C   UNL     1      -0.107   5.572   0.034  0.00  0.00    +0.001 A 
ATOM     28  C   UNL     1      -0.095   4.194   0.020  0.00  0.00    +0.017 A 
ATOM     29  C   UNL     1       1.122   3.508   0.010  0.00  0.00    +0.079 A 
ATOM     30  C   UNL     1       2.324   4.229   0.003  0.00  0.00    +0.135 A 
BRANCH  30  31
ATOM     31  O   UNL     1       3.512   3.574  -0.013  0.00  0.00    -0.494 OA
ATOM     32  C   UNL     1       4.067   3.268  -1.293  0.00  0.00    +0.277 C 
ENDBRANCH  30  31
ENDBRANCH  20  29
ENDBRANCH  18  22
ENDBRANCH   1  18
TORSDOF 7
