REMARK  Name = ZINC57786587
REMARK  5 active torsions:
REMARK  status: ('A' for Active; 'I' for Inactive)
REMARK    1  A    between atoms: C_4  and  C_7
REMARK    2  A    between atoms: C_9  and  C_12
REMARK    3  A    between atoms: C_12  and  C_13
REMARK    4  A    between atoms: N_18  and  C_21
REMARK    5  A    between atoms: C_24  and  O_27
REMARK                            x       y       z     vdW  Elec       q    Type
REMARK                         _______ _______ _______ _____ _____    ______ ____
ROOT
ATOM      1  C   UNL     1       5.254  -4.443   1.064  0.00  0.00    +0.222 C 
ATOM      2  O   UNL     1       4.444  -3.952   1.821  0.00  0.00    -0.275 OA
ATOM      3  N   UNL     1       5.667  -5.713   1.251  0.00  0.00    -0.298 N 
ATOM      4  C   UNL     1       6.652  -6.319   0.345  0.00  0.00    +0.126 C 
ATOM      5  C   UNL     1       7.832  -6.835   1.178  0.00  0.00    +0.124 C 
ATOM      6  N   UNL     1       7.306  -7.637   2.292  0.00  0.00    -0.327 N 
ATOM      7  C   UNL     1       6.321  -7.030   3.198  0.00  0.00    +0.124 C 
ATOM      8  C   UNL     1       5.145  -6.513   2.368  0.00  0.00    +0.126 C 
ENDROOT
BRANCH   6   9
ATOM      9  C   UNL     1       7.735  -8.954   2.485  0.00  0.00    +0.030 A 
ATOM     10  C   UNL     1       7.319  -9.663   3.605  0.00  0.00    +0.027 A 
ATOM     11  C   UNL     1       7.743 -10.963   3.795  0.00  0.00    +0.047 A 
ATOM     12  C   UNL     1       8.583 -11.562   2.868  0.00  0.00    +0.117 A 
ATOM     13  C   UNL     1       8.999 -10.855   1.750  0.00  0.00    +0.047 A 
ATOM     14  C   UNL     1       8.572  -9.556   1.555  0.00  0.00    +0.027 A 
BRANCH  12  15
ATOM     15  O   UNL     1       9.000 -12.843   3.056  0.00  0.00    -0.507 OA
ATOM     16  H   UNL     1       8.418 -13.508   2.664  0.00  0.00    +0.292 HD
ENDBRANCH  12  15
ENDBRANCH   6   9
BRANCH   1  17
ATOM     17  C   UNL     1       5.798  -3.635  -0.086  0.00  0.00    +0.154 C 
BRANCH  17  20
ATOM     18  C   UNL     1       3.713  -0.681  -0.056  0.00  0.00    +0.227 A 
ATOM     19  N   UNL     1       3.868  -1.984  -0.073  0.00  0.00    -0.214 NA
ATOM     20  C   UNL     1       5.180  -2.261  -0.070  0.00  0.00    +0.089 A 
ATOM     21  C   UNL     1       5.847  -1.092  -0.050  0.00  0.00    +0.221 A 
ATOM     22  O   UNL     1       4.928  -0.107  -0.047  0.00  0.00    -0.443 OA
BRANCH  18  26
ATOM     23  C   UNL     1      -0.004   1.375  -0.049  0.00  0.00    +0.000 A 
ATOM     24  C   UNL     1       1.180   2.091  -0.038  0.00  0.00    +0.001 A 
ATOM     25  C   UNL     1       2.391   1.429  -0.040  0.00  0.00    +0.013 A 
ATOM     26  C   UNL     1       2.420   0.034  -0.053  0.00  0.00    +0.037 A 
ATOM     27  C   UNL     1       1.222  -0.682  -0.064  0.00  0.00    +0.013 A 
ATOM     28  C   UNL     1       0.018  -0.008  -0.062  0.00  0.00    +0.001 A 
ENDBRANCH  18  26
ENDBRANCH  17  20
ENDBRANCH   1  17
TORSDOF 5
