REMARK  Name = ZINC00267155
REMARK  4 active torsions:
REMARK  status: ('A' for Active; 'I' for Inactive)
REMARK    1  A    between atoms: C_4  and  N_20
REMARK    2  A    between atoms: C_5  and  C_7
REMARK    3  A    between atoms: N_8  and  C_9
REMARK    4  A    between atoms: C_10  and  C_18
REMARK                            x       y       z     vdW  Elec       q    Type
REMARK                         _______ _______ _______ _____ _____    ______ ____
ROOT
ATOM      1  C   UNL     1       0.947  -2.143   0.044  0.00  0.00    +0.122 C 
ATOM      2  N   UNL     1       2.014  -2.891   0.146  0.00  0.00    -0.246 NA
ENDROOT
BRANCH   2   3
ATOM      3  C   UNL     1       1.896  -4.236   0.169  0.00  0.00    +0.119 A 
ATOM      4  C   UNL     1       2.896  -5.208   0.277  0.00  0.00    +0.088 A 
ATOM      5  C   UNL     1       2.520  -6.562   0.279  0.00  0.00    -0.018 A 
ATOM      6  C   UNL     1       1.194  -6.831   0.175  0.00  0.00    -0.004 A 
ATOM      7  S   UNL     1       0.421  -5.239   0.079  0.00  0.00    -0.073 S 
ATOM      8  C   UNL     1       0.539  -8.176   0.152  0.00  0.00    +0.043 C 
ATOM      9  C   UNL     1       1.619  -9.237  -0.106  0.00  0.00    +0.005 C 
ATOM     10  C   UNL     1       2.802  -8.970   0.828  0.00  0.00    +0.005 C 
ATOM     11  C   UNL     1       3.533  -7.699   0.393  0.00  0.00    +0.037 C 
BRANCH   4  12
ATOM     12  C   UNL     1       4.274  -4.831   0.382  0.00  0.00    +0.102 C 
ATOM     13  N   UNL     1       5.367  -4.532   0.465  0.00  0.00    -0.191 NA
ENDBRANCH   4  12
ENDBRANCH   2   3
BRANCH   1  18
ATOM     14  C   UNL     1       2.454   1.290  -0.043  0.00  0.00    +0.001 A 
ATOM     15  C   UNL     1       1.318   2.081  -0.028  0.00  0.00    +0.002 A 
ATOM     16  C   UNL     1       0.062   1.501   0.011  0.00  0.00    +0.033 A 
ATOM     17  C   UNL     1      -0.067   0.129   0.035  0.00  0.00    +0.135 A 
ATOM     18  C   UNL     1       1.076  -0.678   0.019  0.00  0.00    +0.023 A 
ATOM     19  C   UNL     1       2.342  -0.084  -0.020  0.00  0.00    +0.012 A 
BRANCH  17  20
ATOM     20  N   UNL     1      -1.411  -0.490   0.077  0.00  0.00    +0.057 N 
ATOM     21  O   UNL     1      -2.393   0.205   0.206  0.00  0.00    -0.126 OA
ATOM     22  O   UNL     1      -1.528  -1.690  -0.017  0.00  0.00    -0.126 OA
ENDBRANCH  17  20
ENDBRANCH   1  18
TORSDOF 4
