REMARK  Name = ZINC48572536
REMARK  13 active torsions:
REMARK  status: ('A' for Active; 'I' for Inactive)
REMARK    1  A    between atoms: C_1  and  C_2
REMARK    2  A    between atoms: C_2  and  O_3
REMARK    3  A    between atoms: O_3  and  C_4
REMARK    4  A    between atoms: C_6  and  C_11
REMARK    5  A    between atoms: C_9  and  O_10
REMARK    6  A    between atoms: N_12  and  N_13
REMARK    7  A    between atoms: C_14  and  C_16
REMARK    8  A    between atoms: N_18  and  C_19
REMARK    9  A    between atoms: C_20  and  C_30
REMARK   10  A    between atoms: C_25  and  C_29
REMARK   11  A    between atoms: C_30  and  O_32
REMARK   12  A    between atoms: O_32  and  C_33
REMARK   13  A    between atoms: C_33  and  C_34
REMARK                            x       y       z     vdW  Elec       q    Type
REMARK                         _______ _______ _______ _____ _____    ______ ____
ROOT
ATOM      1  C   UNL     1      -1.109  -9.379   2.095  0.00  0.00    +0.305 C 
ATOM      2  O   UNL     1      -1.672  -8.933   3.074  0.00  0.00    -0.265 OA
ATOM      3  N   UNL     1      -1.002 -10.713   1.929  0.00  0.00    -0.271 N 
ATOM      4  H   UNL     1      -0.552 -11.069   1.146  0.00  0.00    +0.156 HD
ENDROOT
BRANCH   3   5
ATOM      5  C   UNL     1      -1.533 -11.572   2.873  0.00  0.00    +0.087 A 
ATOM      6  C   UNL     1      -1.512 -12.960   2.872  0.00  0.00    +0.091 A 
ATOM      7  C   UNL     1      -2.146 -13.634   3.991  0.00  0.00    -0.021 A 
ATOM      8  C   UNL     1      -2.683 -12.799   4.907  0.00  0.00    -0.004 A 
ATOM      9  S   UNL     1      -2.344 -11.177   4.290  0.00  0.00    -0.077 S 
ATOM     10  C   UNL     1      -3.398 -13.184   6.165  0.00  0.00    +0.046 C 
ATOM     11  C   UNL     1      -3.103 -14.664   6.454  0.00  0.00    -0.009 C 
ATOM     12  C   UNL     1      -3.320 -15.472   5.171  0.00  0.00    +0.008 C 
ATOM     13  C   UNL     1      -2.221 -15.145   4.158  0.00  0.00    +0.037 C 
ATOM     14  C   UNL     1      -4.046 -15.170   7.547  0.00  0.00    +0.008 C 
BRANCH   6  15
ATOM     15  C   UNL     1      -0.879 -13.713   1.786  0.00  0.00    +0.342 C 
ATOM     16  O   UNL     1       0.298 -14.013   1.860  0.00  0.00    -0.245 OA
BRANCH  15  17
ATOM     17  O   UNL     1      -1.600 -14.073   0.705  0.00  0.00    -0.461 OA
BRANCH  17  18
ATOM     18  C   UNL     1      -0.918 -14.806  -0.315  0.00  0.00    +0.229 C 
ATOM     19  C   UNL     1      -1.891 -15.123  -1.452  0.00  0.00    +0.048 C 
ENDBRANCH  17  18
ENDBRANCH  15  17
ENDBRANCH   6  15
ENDBRANCH   3   5
BRANCH   1  21
ATOM     20  N   UNL     1      -0.645  -7.120   1.243  0.00  0.00    -0.199 N 
ATOM     21  C   UNL     1      -0.537  -8.453   1.077  0.00  0.00    +0.318 C 
ATOM     22  O   UNL     1       0.025  -8.900   0.097  0.00  0.00    -0.263 OA
ATOM     23  H   UNL     1      -1.094  -6.763   2.025  0.00  0.00    +0.178 HD
BRANCH  20  25
ATOM     24  C   UNL     1      -0.211  -4.964   0.446  0.00  0.00    +0.138 C 
ATOM     25  N   UNL     1      -0.107  -6.249   0.286  0.00  0.00    -0.187 NA
BRANCH  24  28
ATOM     26  C   UNL     1       0.777  -1.811  -1.336  0.00  0.00    +0.162 A 
ATOM     27  C   UNL     1       0.244  -2.665  -0.389  0.00  0.00    +0.059 A 
ATOM     28  C   UNL     1       0.355  -4.048  -0.560  0.00  0.00    -0.002 A 
ATOM     29  C   UNL     1       1.003  -4.560  -1.688  0.00  0.00    +0.013 A 
ATOM     30  C   UNL     1       1.532  -3.701  -2.628  0.00  0.00    +0.050 A 
ATOM     31  C   UNL     1       1.417  -2.329  -2.460  0.00  0.00    +0.158 A 
BRANCH  31  32
ATOM     32  O   UNL     1       1.936  -1.487  -3.393  0.00  0.00    -0.503 OA
ATOM     33  H   UNL     1       2.855  -1.235  -3.228  0.00  0.00    +0.292 HD
ENDBRANCH  31  32
BRANCH  26  34
ATOM     34  O   UNL     1       0.671  -0.465  -1.174  0.00  0.00    -0.489 OA
BRANCH  34  36
ATOM     35  C   UNL     1      -0.019   1.526   0.010  0.00  0.00    +0.048 C 
ATOM     36  C   UNL     1       0.002  -0.004   0.002  0.00  0.00    +0.226 C 
ENDBRANCH  34  36
ENDBRANCH  26  34
ENDBRANCH  24  28
ENDBRANCH  20  25
ENDBRANCH   1  21
TORSDOF 10
