REMARK  Name = ZINC01186720
REMARK  7 active torsions:
REMARK  status: ('A' for Active; 'I' for Inactive)
REMARK    1  A    between atoms: C_1  and  C_2
REMARK    2  A    between atoms: C_2  and  C_3
REMARK    3  A    between atoms: C_6  and  C_9
REMARK    4  A    between atoms: N_13  and  C_17
REMARK    5  A    between atoms: C_17  and  C_18
REMARK    6  A    between atoms: N_20  and  C_21
REMARK    7  A    between atoms: C_26  and  O_27
REMARK                            x       y       z     vdW  Elec       q    Type
REMARK                         _______ _______ _______ _____ _____    ______ ____
ROOT
ATOM      1  C   UNL     1       4.825  -0.368  -2.358  0.00  0.00    +0.028 C 
ATOM      2  C   UNL     1       4.185   0.061  -1.242  0.00  0.00    +0.077 C 
ATOM      3  C   UNL     1       3.056   1.006  -1.106  0.00  0.00    +0.259 C 
ATOM      4  O   UNL     1       2.547   1.537  -2.076  0.00  0.00    -0.269 OA
ATOM      5  N   UNL     1       2.627   1.244   0.122  0.00  0.00    -0.246 N 
ATOM      6  C   UNL     1       3.198   0.657   1.194  0.00  0.00    +0.121 C 
ATOM      7  S   UNL     1       2.793   0.841   2.847  0.00  0.00    -0.027 S 
ATOM      8  S   UNL     1       4.475  -0.360   0.471  0.00  0.00    -0.061 S 
ENDROOT
BRANCH   1  12
ATOM      9  C   UNL     1       7.890  -3.282  -2.058  0.00  0.00    -0.048 A 
ATOM     10  C   UNL     1       7.187  -3.142  -3.242  0.00  0.00    +0.004 A 
ATOM     11  C   UNL     1       6.189  -2.196  -3.348  0.00  0.00    +0.008 A 
ATOM     12  C   UNL     1       5.887  -1.378  -2.254  0.00  0.00    -0.024 A 
ATOM     13  C   UNL     1       6.605  -1.523  -1.062  0.00  0.00    +0.008 A 
ATOM     14  C   UNL     1       7.597  -2.477  -0.970  0.00  0.00    +0.004 A 
BRANCH   9  16
ATOM     15  C   UNL     1      10.314  -3.700  -2.373  0.00  0.00    +0.009 C 
ATOM     16  C   UNL     1       8.979  -4.318  -1.951  0.00  0.00    +0.032 C 
ENDBRANCH   9  16
ENDBRANCH   1  12
BRANCH   5  17
ATOM     17  C   UNL     1       1.512   2.172   0.323  0.00  0.00    +0.211 C 
BRANCH  17  18
ATOM     18  C   UNL     1       0.212   1.411   0.282  0.00  0.00    +0.235 C 
ATOM     19  O   UNL     1       0.217   0.211   0.102  0.00  0.00    -0.274 OA
ATOM     20  N   UNL     1      -0.957   2.063   0.440  0.00  0.00    -0.281 N 
ATOM     21  H   UNL     1      -0.959   3.014   0.631  0.00  0.00    +0.155 HD
BRANCH  20  22
ATOM     22  C   UNL     1      -2.168   1.369   0.327  0.00  0.00    +0.075 A 
ATOM     23  C   UNL     1      -2.216   0.007   0.586  0.00  0.00    +0.027 A 
ATOM     24  C   UNL     1      -3.413  -0.675   0.480  0.00  0.00    +0.002 A 
ATOM     25  C   UNL     1      -4.563  -0.006   0.103  0.00  0.00    +0.004 A 
ATOM     26  C   UNL     1      -4.522   1.350  -0.162  0.00  0.00    +0.047 A 
ATOM     27  C   UNL     1      -3.327   2.042  -0.052  0.00  0.00    +0.138 A 
BRANCH  27  28
ATOM     28  O   UNL     1      -3.286   3.376  -0.312  0.00  0.00    -0.505 OA
ATOM     29  H   UNL     1      -3.096   3.591  -1.236  0.00  0.00    +0.292 HD
ENDBRANCH  27  28
ENDBRANCH  20  22
ENDBRANCH  17  18
ENDBRANCH   5  17
TORSDOF 6
