REMARK  Name = ZINC09846056
REMARK  14 active torsions:
REMARK  status: ('A' for Active; 'I' for Inactive)
REMARK    1  A    between atoms: C_1  and  C_2
REMARK    2  A    between atoms: C_2  and  C_3
REMARK    3  A    between atoms: C_2  and  C_4
REMARK    4  A    between atoms: C_2  and  C_5
REMARK    5  A    between atoms: C_7  and  C_16
REMARK    6  A    between atoms: C_9  and  C_12
REMARK    7  A    between atoms: C_10  and  O_11
REMARK    8  A    between atoms: C_12  and  C_13
REMARK    9  A    between atoms: C_12  and  C_14
REMARK   10  A    between atoms: C_12  and  C_15
REMARK   11  A    between atoms: C_16  and  C_17
REMARK   12  A    between atoms: C_17  and  C_18
REMARK   13  A    between atoms: N_20  and  N_21
REMARK   14  A    between atoms: C_22  and  C_23
REMARK                            x       y       z     vdW  Elec       q    Type
REMARK                         _______ _______ _______ _____ _____    ______ ____
ROOT
ATOM      1  C   UNL     1       0.000   1.080   2.488  0.00  0.00    -0.000 A 
ATOM      2  C   UNL     1       1.133   0.302   2.347  0.00  0.00    +0.011 A 
ATOM      3  C   UNL     1       1.802  -0.156   3.466  0.00  0.00    -0.046 A 
ATOM      4  C   UNL     1       1.340   0.163   4.730  0.00  0.00    +0.011 A 
ATOM      5  C   UNL     1       0.208   0.942   4.876  0.00  0.00    -0.000 A 
ATOM      6  C   UNL     1      -0.463   1.406   3.754  0.00  0.00    +0.124 A 
ENDROOT
BRANCH   1   8
ATOM      7  C   UNL     1      -0.013   1.086   0.008  0.00  0.00    +0.015 C 
ATOM      8  C   UNL     1      -0.729   1.579   1.267  0.00  0.00    -0.009 C 
ATOM      9  C   UNL     1      -0.750   3.109   1.275  0.00  0.00    +0.015 C 
ATOM     10  C   UNL     1      -2.164   1.050   1.278  0.00  0.00    +0.015 C 
ENDBRANCH   1   8
BRANCH   5  11
ATOM     11  C   UNL     1      -0.295   1.290   6.253  0.00  0.00    -0.009 C 
ATOM     12  C   UNL     1       0.622   0.662   7.305  0.00  0.00    +0.015 C 
ATOM     13  C   UNL     1      -0.301   2.810   6.425  0.00  0.00    +0.015 C 
ATOM     14  C   UNL     1      -1.716   0.751   6.429  0.00  0.00    +0.015 C 
ENDBRANCH   5  11
BRANCH   6  15
ATOM     15  O   UNL     1      -1.573   2.176   3.896  0.00  0.00    -0.506 OA
ATOM     16  H   UNL     1      -2.398   1.673   3.940  0.00  0.00    +0.292 HD
ENDBRANCH   6  15
BRANCH   3  17
ATOM     17  C   UNL     1       3.038  -1.004   3.310  0.00  0.00    +0.044 C 
BRANCH  17  18
ATOM     18  C   UNL     1       4.272  -0.102   3.255  0.00  0.00    +0.102 C 
BRANCH  18  19
ATOM     19  C   UNL     1       5.508  -0.951   3.098  0.00  0.00    +0.232 C 
ATOM     20  O   UNL     1       5.411  -2.158   3.036  0.00  0.00    -0.274 OA
ATOM     21  N   UNL     1       6.721  -0.368   3.026  0.00  0.00    -0.207 N 
ATOM     22  H   UNL     1       6.799   0.598   3.076  0.00  0.00    +0.177 HD
BRANCH  21  23
ATOM     23  N   UNL     1       7.870  -1.156   2.881  0.00  0.00    -0.188 NA
ATOM     24  C   UNL     1       9.037  -0.595   2.812  0.00  0.00    +0.138 C 
BRANCH  24  25
ATOM     25  C   UNL     1      10.247  -1.425   2.659  0.00  0.00    -0.004 A 
ATOM     26  C   UNL     1      11.506  -0.824   2.584  0.00  0.00    +0.009 A 
ATOM     27  C   UNL     1      12.633  -1.607   2.441  0.00  0.00    +0.002 A 
ATOM     28  C   UNL     1      12.518  -2.984   2.370  0.00  0.00    +0.014 A 
ATOM     29  C   UNL     1      11.274  -3.587   2.444  0.00  0.00    +0.014 A 
ATOM     30  C   UNL     1      10.139  -2.816   2.593  0.00  0.00    +0.023 A 
ATOM     31  I   UNL     1      11.116  -5.673   2.337  0.00  0.00    -0.044 I 
ENDBRANCH  24  25
ENDBRANCH  21  23
ENDBRANCH  18  19
ENDBRANCH  17  18
ENDBRANCH   3  17
TORSDOF 8
