REMARK  Name = ZINC17723176
REMARK  9 active torsions:
REMARK  status: ('A' for Active; 'I' for Inactive)
REMARK    1  A    between atoms: C_1  and  C_2
REMARK    2  A    between atoms: C_2  and  C_3
REMARK    3  A    between atoms: C_2  and  N_4
REMARK    4  A    between atoms: N_4  and  S_5
REMARK    5  A    between atoms: S_5  and  C_8
REMARK    6  A    between atoms: C_12  and  C_14
REMARK    7  A    between atoms: C_14  and  O_16
REMARK    8  A    between atoms: O_16  and  C_17
REMARK    9  A    between atoms: C_17  and  C_18
REMARK                            x       y       z     vdW  Elec       q    Type
REMARK                         _______ _______ _______ _____ _____    ______ ____
ROOT
ATOM      1  C   UNL     1      -2.502   1.008   0.019  0.00  0.00    +0.340 C 
ATOM      2  O   UNL     1      -3.560   1.605   0.028  0.00  0.00    -0.245 OA
ENDROOT
BRANCH   1   7
ATOM      3  C   UNL     1      -0.048   3.850   0.022  0.00  0.00    +0.106 A 
ATOM      4  C   UNL     1       1.155   3.167   0.008  0.00  0.00    +0.028 A 
ATOM      5  C   UNL     1       1.172   1.783   0.000  0.00  0.00    +0.003 A 
ATOM      6  C   UNL     1      -0.013   1.076   0.008  0.00  0.00    +0.015 A 
ATOM      7  C   UNL     1      -1.230   1.759   0.017  0.00  0.00    +0.061 A 
ATOM      8  C   UNL     1      -1.240   3.155   0.030  0.00  0.00    +0.043 A 
BRANCH   3   9
ATOM      9  S   UNL     1      -0.058   5.612   0.031  0.00  0.00    +0.059 S 
ATOM     10  O   UNL     1      -1.301   6.009   0.595  0.00  0.00    -0.153 OA
ATOM     11  O   UNL     1       1.190   6.023   0.572  0.00  0.00    -0.153 OA
BRANCH   9  12
ATOM     12  N   UNL     1      -0.076   6.109  -1.549  0.00  0.00    -0.187 NA
ATOM     13  H   UNL     1       0.679   6.598  -1.912  0.00  0.00    +0.148 HD
BRANCH  12  15
ATOM     14  C   UNL     1      -1.463   6.969  -3.371  0.00  0.00    +0.025 C 
ATOM     15  C   UNL     1      -1.233   5.811  -2.397  0.00  0.00    +0.070 C 
ATOM     16  C   UNL     1      -0.969   4.527  -3.186  0.00  0.00    +0.025 C 
ENDBRANCH  12  15
ENDBRANCH   9  12
ENDBRANCH   3   9
ENDBRANCH   1   7
BRANCH   1  17
ATOM     17  O   UNL     1      -2.489  -0.339   0.012  0.00  0.00    -0.456 OA
BRANCH  17  18
ATOM     18  C   UNL     1      -3.777  -1.011   0.014  0.00  0.00    +0.268 C 
BRANCH  18  19
ATOM     19  C   UNL     1      -3.565  -2.503   0.005  0.00  0.00    -0.005 A 
ATOM     20  C   UNL     1      -3.479  -3.180  -1.199  0.00  0.00    +0.056 A 
ATOM     21  C   UNL     1      -3.279  -4.550  -1.203  0.00  0.00    +0.164 A 
ATOM     22  C   UNL     1      -3.178  -5.242  -0.005  0.00  0.00    +0.180 A 
ATOM     23  C   UNL     1      -3.269  -4.562   1.198  0.00  0.00    +0.087 A 
ATOM     24  C   UNL     1      -3.462  -3.191   1.199  0.00  0.00    +0.031 A 
ATOM     25 CL   UNL     1      -3.140  -5.426   2.699  0.00  0.00    -0.080 Cl
ATOM     26  O   UNL     1      -2.988  -6.593  -0.021  0.00  0.00    -0.487 OA
ATOM     27  C   UNL     1      -1.721  -7.041  -0.507  0.00  0.00    +0.232 C 
ATOM     28  C   UNL     1      -1.729  -7.136  -2.025  0.00  0.00    +0.082 C 
ATOM     29  C   UNL     1      -1.905  -5.780  -2.689  0.00  0.00    +0.232 C 
ATOM     30  O   UNL     1      -3.188  -5.228  -2.384  0.00  0.00    -0.488 OA
ENDBRANCH  18  19
ENDBRANCH  17  18
ENDBRANCH   1  17
TORSDOF 7
