REMARK  Name = ZINC15064126
REMARK  7 active torsions:
REMARK  status: ('A' for Active; 'I' for Inactive)
REMARK    1  A    between atoms: C_5  and  C_7
REMARK    2  A    between atoms: C_7  and  N_8
REMARK    3  A    between atoms: C_10  and  C_13
REMARK    4  A    between atoms: N_15  and  C_16
REMARK    5  A    between atoms: C_16  and  C_17
REMARK    6  A    between atoms: C_17  and  C_19
REMARK    7  A    between atoms: C_17  and  N_53
REMARK                            x       y       z     vdW  Elec       q    Type
REMARK                         _______ _______ _______ _____ _____    ______ ____
ROOT
ATOM      1  C   UNL     1      -3.443   3.712   2.631  0.00  0.00    +0.266 C 
ATOM      2  O   UNL     1      -2.904   3.421   3.681  0.00  0.00    -0.268 OA
ATOM      3  N   UNL     1      -2.923   3.282   1.464  0.00  0.00    -0.311 N 
ATOM      4  H   UNL     1      -3.353   3.514   0.626  0.00  0.00    +0.149 HD
ENDROOT
BRANCH   1   7
ATOM      5  N   UNL     1      -6.366   5.723   3.307  0.00  0.00    -0.247 N 
ATOM      6  C   UNL     1      -5.296   5.027   3.742  0.00  0.00    +0.143 A 
ATOM      7  C   UNL     1      -4.667   4.535   2.633  0.00  0.00    +0.167 A 
ATOM      8  N   UNL     1      -5.356   4.923   1.546  0.00  0.00    -0.125 NA
ATOM      9  N   UNL     1      -6.370   5.630   1.908  0.00  0.00    -0.065 NA
BRANCH   5  10
ATOM     10  C   UNL     1      -7.341   6.435   4.138  0.00  0.00    +0.181 C 
BRANCH  10  15
ATOM     11  C   UNL     1      -8.557   9.588   2.456  0.00  0.00    +0.000 A 
ATOM     12  C   UNL     1      -7.601  10.503   2.858  0.00  0.00    +0.001 A 
ATOM     13  C   UNL     1      -6.560  10.101   3.673  0.00  0.00    +0.020 A 
ATOM     14  C   UNL     1      -6.478   8.785   4.092  0.00  0.00    +0.046 A 
ATOM     15  C   UNL     1      -7.432   7.870   3.686  0.00  0.00    -0.008 A 
ATOM     16  C   UNL     1      -8.473   8.273   2.871  0.00  0.00    +0.007 A 
ATOM     17 CL   UNL     1      -5.175   8.281   5.122  0.00  0.00    -0.083 Cl
ENDBRANCH  10  15
ENDBRANCH   5  10
ENDBRANCH   1   7
BRANCH   3  18
ATOM     18  C   UNL     1      -1.708   2.464   1.461  0.00  0.00    +0.094 C 
BRANCH  18  19
ATOM     19  C   UNL     1      -1.332   2.113   0.020  0.00  0.00    -0.020 C 
BRANCH  19  20
ATOM     20  C   UNL     1      -0.017   1.377   0.008  0.00  0.00    -0.059 A 
ATOM     21  C   UNL     1       0.985   1.740   0.888  0.00  0.00    +0.005 A 
ATOM     22  C   UNL     1       2.194   1.070   0.874  0.00  0.00    +0.038 A 
ATOM     23  C   UNL     1       2.400   0.035  -0.021  0.00  0.00    +0.123 A 
ATOM     24  C   UNL     1       1.395  -0.328  -0.902  0.00  0.00    +0.038 A 
ATOM     25  C   UNL     1       0.188   0.343  -0.886  0.00  0.00    +0.005 A 
ATOM     26  F   UNL     1       3.582  -0.621  -0.036  0.00  0.00    -0.205 F 
ENDBRANCH  19  20
BRANCH  19  31
ATOM     27  C   UNL     1      -0.046   4.152  -0.319  0.00  0.00    -0.078 C 
ATOM     28  C   UNL     1       0.238   5.073  -1.533  0.00  0.00    -0.020 C 
ATOM     29  C   UNL     1      -0.043   4.149  -2.740  0.00  0.00    -0.020 C 
ATOM     30  C   UNL     1      -0.963   3.042  -2.195  0.00  0.00    -0.078 C 
ATOM     31  N   UNL     1      -1.197   3.364  -0.786  0.00  0.00    +0.385 N 
ATOM     32  H   UNL     1      -2.057   3.918  -0.695  0.00  0.00    -0.081 HD
ENDBRANCH  19  31
ENDBRANCH  18  19
ENDBRANCH   3  18
TORSDOF 7
