REMARK  Name = ZINC39694948
REMARK  9 active torsions:
REMARK  status: ('A' for Active; 'I' for Inactive)
REMARK    1  A    between atoms: C_1  and  C_2
REMARK    2  A    between atoms: C_2  and  C_3
REMARK    3  A    between atoms: C_3  and  C_4
REMARK    4  A    between atoms: C_4  and  C_6
REMARK    5  A    between atoms: C_4  and  C_7
REMARK    6  A    between atoms: C_11  and  C_20
REMARK    7  A    between atoms: N_22  and  C_23
REMARK    8  A    between atoms: C_23  and  C_24
REMARK    9  A    between atoms: C_29  and  C_30
REMARK                            x       y       z     vdW  Elec       q    Type
REMARK                         _______ _______ _______ _____ _____    ______ ____
ROOT
ATOM      1  C   UNL     1      -2.953  -2.797  -0.283  0.00  0.00    +0.218 C 
ATOM      2  O   UNL     1      -3.919  -2.100  -0.508  0.00  0.00    -0.275 OA
ATOM      3  N   UNL     1      -3.104  -4.127  -0.122  0.00  0.00    -0.300 N 
ATOM      4  C   UNL     1      -2.073  -5.118   0.264  0.00  0.00    +0.121 C 
ATOM      5  C   UNL     1      -2.803  -6.089   1.219  0.00  0.00    +0.100 C 
ATOM      6  C   UNL     1      -4.290  -5.961   0.847  0.00  0.00    -0.004 C 
ATOM      7  C   UNL     1      -4.342  -4.927  -0.287  0.00  0.00    +0.115 C 
ATOM      8  C   UNL     1      -5.093  -5.462   2.045  0.00  0.00    -0.010 C 
ATOM      9  C   UNL     1      -6.575  -5.397   1.668  0.00  0.00    -0.082 C 
ATOM     10  N   UNL     1      -7.038  -6.731   1.264  0.00  0.00    +0.379 N 
ATOM     11  C   UNL     1      -6.325  -7.164   0.057  0.00  0.00    -0.082 C 
ATOM     12  C   UNL     1      -4.832  -7.303   0.365  0.00  0.00    -0.010 C 
ATOM     13  H   UNL     1      -6.862  -7.387   2.011  0.00  0.00    -0.086 HD
ATOM     14  H   UNL     1      -8.029  -6.699   1.075  0.00  0.00    -0.086 HD
ENDROOT
BRANCH   5  15
ATOM     15  C   UNL     1      -2.325  -7.501   0.998  0.00  0.00    +0.218 C 
ATOM     16  O   UNL     1      -1.946  -7.848  -0.100  0.00  0.00    -0.275 OA
ATOM     17  N   UNL     1      -2.318  -8.378   2.022  0.00  0.00    -0.311 N 
ATOM     18  H   UNL     1      -2.621  -8.100   2.900  0.00  0.00    +0.149 HD
BRANCH  17  19
ATOM     19  C   UNL     1      -1.853  -9.751   1.807  0.00  0.00    +0.139 C 
BRANCH  19  20
ATOM     20  C   UNL     1      -1.945 -10.520   3.100  0.00  0.00    -0.026 A 
ATOM     21  C   UNL     1      -0.816 -10.708   3.875  0.00  0.00    +0.005 A 
ATOM     22  C   UNL     1      -0.900 -11.414   5.060  0.00  0.00    +0.002 A 
ATOM     23  C   UNL     1      -2.114 -11.932   5.471  0.00  0.00    +0.020 A 
ATOM     24  C   UNL     1      -3.244 -11.745   4.696  0.00  0.00    +0.044 A 
ATOM     25  C   UNL     1      -3.160 -11.033   3.513  0.00  0.00    -0.027 A 
ATOM     26  C   UNL     1      -4.392 -10.823   2.671  0.00  0.00    +0.045 C 
ATOM     27 CL   UNL     1      -4.768 -12.396   5.212  0.00  0.00    -0.083 Cl
ENDBRANCH  19  20
ENDBRANCH  17  19
ENDBRANCH   5  15
BRANCH   1  28
ATOM     28  C   UNL     1      -1.583  -2.177  -0.181  0.00  0.00    +0.072 C 
ATOM     29  C   UNL     1      -1.318  -1.762   1.267  0.00  0.00    +0.017 C 
BRANCH  28  30
ATOM     30  C   UNL     1      -1.513  -0.946  -1.086  0.00  0.00    +0.012 C 
BRANCH  30  32
ATOM     31  C   UNL     1      -0.017   0.843  -1.985  0.00  0.00    +0.004 C 
ATOM     32  C   UNL     1      -0.088  -0.389  -1.080  0.00  0.00    -0.003 C 
ENDBRANCH  30  32
ENDBRANCH  28  30
ENDBRANCH   1  28
TORSDOF 6
