REMARK  Name = ZINC67624900
REMARK  8 active torsions:
REMARK  status: ('A' for Active; 'I' for Inactive)
REMARK    1  A    between atoms: C_1  and  C_2
REMARK    2  A    between atoms: N_5  and  C_8
REMARK    3  A    between atoms: C_8  and  C_9
REMARK    4  A    between atoms: C_9  and  C_11
REMARK    5  A    between atoms: C_9  and  O_23
REMARK    6  A    between atoms: C_11  and  N_12
REMARK    7  A    between atoms: N_15  and  C_16
REMARK    8  A    between atoms: C_16  and  C_17
REMARK                            x       y       z     vdW  Elec       q    Type
REMARK                         _______ _______ _______ _____ _____    ______ ____
ROOT
ATOM      1  C   UNL     1       0.041  -5.922   2.735  0.00  0.00    +0.135 C 
ENDROOT
BRANCH   1   2
ATOM      2  N   UNL     1       0.630  -6.349   4.007  0.00  0.00    -0.297 N 
ATOM      3  C   UNL     1       0.786  -7.662   4.270  0.00  0.00    +0.300 C 
ATOM      4  O   UNL     1       0.440  -8.491   3.452  0.00  0.00    -0.253 OA
ATOM      5  N   UNL     1       1.328  -8.054   5.441  0.00  0.00    -0.295 N 
ATOM      6  H   UNL     1       0.906  -5.687   4.660  0.00  0.00    +0.150 HD
ATOM      7  H   UNL     1       1.605  -7.392   6.093  0.00  0.00    +0.151 HD
BRANCH   5   8
ATOM      8  C   UNL     1       1.499  -9.481   5.727  0.00  0.00    +0.148 C 
BRANCH   8   9
ATOM      9  C   UNL     1       2.121  -9.649   7.089  0.00  0.00    +0.008 A 
ATOM     10  C   UNL     1       1.514  -9.777   8.294  0.00  0.00    +0.014 A 
ATOM     11  C   UNL     1       2.295  -9.921   9.426  0.00  0.00    +0.023 A 
ATOM     12  C   UNL     1       3.645  -9.930   9.296  0.00  0.00    +0.055 A 
ATOM     13  S   UNL     1       3.848  -9.739   7.532  0.00  0.00    -0.085 S 
ATOM     14 BR   UNL     1       4.969 -10.108  10.634  0.00  0.00    -0.043 Br
ENDBRANCH   8   9
ENDBRANCH   5   8
ENDBRANCH   1   2
BRANCH   1  15
ATOM     15  C   UNL     1      -0.023  -4.394   2.690  0.00  0.00    +0.115 C 
BRANCH  15  16
ATOM     16  O   UNL     1       1.303  -3.862   2.691  0.00  0.00    -0.392 OA
ATOM     17  H   UNL     1       1.841  -4.147   1.940  0.00  0.00    +0.210 HD
ENDBRANCH  15  16
BRANCH  15  18
ATOM     18  C   UNL     1      -0.750  -3.952   1.419  0.00  0.00    -0.046 C 
BRANCH  18  23
ATOM     19  C   UNL     1      -2.158   1.567   1.124  0.00  0.00    +0.007 C 
ATOM     20  C   UNL     1      -2.222   0.038   1.151  0.00  0.00    -0.018 C 
ATOM     21  C   UNL     1      -1.674  -0.474   2.486  0.00  0.00    -0.016 C 
ATOM     22  C   UNL     1      -1.667  -2.005   2.474  0.00  0.00    -0.078 C 
ATOM     23  N   UNL     1      -0.817  -2.485   1.378  0.00  0.00    +0.381 N 
ATOM     24  C   UNL     1      -1.376  -2.057   0.090  0.00  0.00    -0.078 C 
ATOM     25  C   UNL     1      -1.372  -0.529   0.010  0.00  0.00    -0.016 C 
ATOM     26  H   UNL     1       0.112  -2.105   1.483  0.00  0.00    -0.082 HD
ENDBRANCH  18  23
ENDBRANCH  15  18
ENDBRANCH   1  15
TORSDOF 7
