REMARK  Name = ZINC20573324
REMARK  3 active torsions:
REMARK  status: ('A' for Active; 'I' for Inactive)
REMARK    1  A    between atoms: C_6  and  C_7
REMARK    2  A    between atoms: N_9  and  C_10
REMARK    3  A    between atoms: C_10  and  C_11
REMARK                            x       y       z     vdW  Elec       q    Type
REMARK                         _______ _______ _______ _____ _____    ______ ____
ROOT
ATOM      1  C   UNL     1      -2.203  -4.341   0.001  0.00  0.00    +0.233 C 
ATOM      2  O   UNL     1      -1.053  -4.727  -0.013  0.00  0.00    -0.274 OA
ATOM      3  N   UNL     1      -3.213  -5.233   0.006  0.00  0.00    -0.300 N 
ATOM      4  C   UNL     1      -4.611  -4.781   0.016  0.00  0.00    +0.110 C 
ATOM      5  C   UNL     1      -5.351  -5.443  -1.150  0.00  0.00    +0.047 C 
ATOM      6  C   UNL     1      -5.178  -6.960  -1.065  0.00  0.00    +0.064 C 
ATOM      7  C   UNL     1      -3.696  -7.319  -1.164  0.00  0.00    +0.047 C 
ATOM      8  C   UNL     1      -2.938  -6.676  -0.005  0.00  0.00    +0.110 C 
ATOM      9  C   UNL     1      -5.936  -7.620  -2.188  0.00  0.00    +0.057 A 
ATOM     10  C   UNL     1      -6.703  -8.722  -2.017  0.00  0.00    +0.039 A 
ATOM     11  N   UNL     1      -7.231  -9.034  -3.229  0.00  0.00    -0.349 N 
ATOM     12  H   UNL     1      -7.826  -9.775  -3.425  0.00  0.00    +0.166 HD
ATOM     13  C   UNL     1      -6.771  -8.115  -4.109  0.00  0.00    +0.171 A 
ATOM     14  N   UNL     1      -5.996  -7.274  -3.474  0.00  0.00    -0.348 N 
ATOM     15  C   UNL     1      -6.880  -9.414  -0.690  0.00  0.00    +0.070 C 
ATOM     16  C   UNL     1      -5.774  -8.915   0.252  0.00  0.00    +0.088 C 
ATOM     17  N   UNL     1      -5.719  -7.447   0.214  0.00  0.00    -0.305 NA
ATOM     18  H   UNL     1      -5.189  -7.085   0.992  0.00  0.00    +0.123 HD
ATOM     19  H   UNL     1      -5.538  -6.518  -3.875  0.00  0.00    +0.166 HD
ENDROOT
BRANCH   1  20
ATOM     20  C   UNL     1      -2.501  -2.864   0.011  0.00  0.00    +0.200 C 
BRANCH  20  23
ATOM     21  C   UNL     1      -1.266  -0.763   0.011  0.00  0.00    +0.244 C 
ATOM     22  O   UNL     1      -2.328  -0.172   0.024  0.00  0.00    -0.270 OA
ATOM     23  N   UNL     1      -1.244  -2.111   0.003  0.00  0.00    -0.303 N 
ATOM     24  H   UNL     1      -0.397  -2.583  -0.008  0.00  0.00    +0.150 HD
BRANCH  21  30
ATOM     25  C   UNL     1      -0.017   1.392   0.010  0.00  0.00    +0.014 A 
ATOM     26  C   UNL     1       1.170   2.095   0.002  0.00  0.00    +0.016 A 
ATOM     27  C   UNL     1       2.378   1.419  -0.013  0.00  0.00    +0.018 A 
ATOM     28  C   UNL     1       2.403   0.034  -0.021  0.00  0.00    +0.016 A 
ATOM     29  C   UNL     1       1.224  -0.680  -0.014  0.00  0.00    +0.014 A 
ATOM     30  C   UNL     1       0.002  -0.004   0.002  0.00  0.00    +0.037 A 
ATOM     31 BR   UNL     1       4.000   2.390  -0.024  0.00  0.00    -0.050 Br
ENDBRANCH  21  30
ENDBRANCH  20  23
ENDBRANCH   1  20
TORSDOF 3
