REMARK  Name = ZINC64215479
REMARK  9 active torsions:
REMARK  status: ('A' for Active; 'I' for Inactive)
REMARK    1  A    between atoms: C_1  and  C_2
REMARK    2  A    between atoms: C_2  and  C_4
REMARK    3  A    between atoms: C_2  and  N_32
REMARK    4  A    between atoms: N_6  and  C_7
REMARK    5  A    between atoms: C_7  and  C_8
REMARK    6  A    between atoms: C_8  and  C_10
REMARK    7  A    between atoms: C_8  and  C_16
REMARK    8  A    between atoms: C_24  and  C_26
REMARK    9  A    between atoms: C_33  and  C_35
REMARK                            x       y       z     vdW  Elec       q    Type
REMARK                         _______ _______ _______ _____ _____    ______ ____
ROOT
ATOM      1  C   UNL     1       0.270  -0.182   4.899  0.00  0.00    +0.065 C 
ENDROOT
BRANCH   1   2
ATOM      2  C   UNL     1       0.845  -0.875   6.108  0.00  0.00    -0.025 C 
ATOM      3  C   UNL     1       2.003  -1.571   6.172  0.00  0.00    +0.000 A 
ATOM      4  C   UNL     1       3.034  -1.881   5.175  0.00  0.00    +0.010 A 
ATOM      5  C   UNL     1       4.106  -2.617   5.546  0.00  0.00    +0.001 A 
ATOM      6  C   UNL     1       4.256  -3.092   6.856  0.00  0.00    +0.002 A 
ATOM      7  C   UNL     1       3.351  -2.848   7.828  0.00  0.00    +0.026 A 
ATOM      8  C   UNL     1       2.185  -2.083   7.549  0.00  0.00    +0.043 A 
ATOM      9  N   UNL     1       1.179  -1.718   8.306  0.00  0.00    -0.374 N 
ATOM     10  C   UNL     1       0.246  -0.927   7.496  0.00  0.00    +0.137 C 
ATOM     11  H   UNL     1       1.071  -1.932   9.246  0.00  0.00    +0.161 HD
BRANCH  10  12
ATOM     12  C   UNL     1      -1.102  -1.599   7.455  0.00  0.00    -0.021 A 
ATOM     13  C   UNL     1      -1.185  -2.979   7.420  0.00  0.00    +0.006 A 
ATOM     14  C   UNL     1      -2.422  -3.595   7.383  0.00  0.00    +0.000 A 
ATOM     15  C   UNL     1      -3.575  -2.833   7.382  0.00  0.00    +0.000 A 
ATOM     16  C   UNL     1      -3.491  -1.453   7.418  0.00  0.00    +0.000 A 
ATOM     17  C   UNL     1      -2.255  -0.837   7.459  0.00  0.00    +0.006 A 
ENDBRANCH  10  12
ENDBRANCH   1   2
BRANCH   1  18
ATOM     18  C   UNL     1       0.330   1.310   5.099  0.00  0.00    -0.039 A 
ATOM     19  C   UNL     1       1.548   1.934   5.288  0.00  0.00    +0.004 A 
ATOM     20  C   UNL     1       1.603   3.303   5.472  0.00  0.00    +0.000 A 
ATOM     21  C   UNL     1       0.438   4.048   5.467  0.00  0.00    +0.000 A 
ATOM     22  C   UNL     1      -0.780   3.424   5.277  0.00  0.00    +0.000 A 
ATOM     23  C   UNL     1      -0.835   2.056   5.089  0.00  0.00    +0.004 A 
ENDBRANCH   1  18
BRANCH   1  24
ATOM     24  C   UNL     1       1.082  -0.563   3.659  0.00  0.00    +0.116 C 
BRANCH  24  27
ATOM     25  C   UNL     1       0.980  -0.220   1.249  0.00  0.00    +0.233 C 
ATOM     26  O   UNL     1       2.001  -0.866   1.143  0.00  0.00    -0.274 OA
ATOM     27  N   UNL     1       0.438  -0.011   2.465  0.00  0.00    -0.313 N 
ATOM     28  H   UNL     1      -0.379   0.506   2.549  0.00  0.00    +0.149 HD
BRANCH  25  30
ATOM     29  C   UNL     1       0.248   1.872   0.137  0.00  0.00    +0.038 C 
ATOM     30  C   UNL     1       0.317   0.348   0.020  0.00  0.00    +0.156 C 
BRANCH  30  31
ATOM     31  N   UNL     1       1.095  -0.017  -1.167  0.00  0.00    -0.301 N 
ATOM     32  C   UNL     1       0.494  -0.081  -2.372  0.00  0.00    +0.255 C 
ATOM     33  O   UNL     1      -0.689   0.163  -2.473  0.00  0.00    -0.272 OA
ATOM     34  H   UNL     1       2.041  -0.212  -1.085  0.00  0.00    +0.150 HD
BRANCH  32  35
ATOM     35  C   UNL     1       1.294  -0.456  -3.593  0.00  0.00    +0.261 C 
ATOM     36  C   UNL     1       2.315   0.652  -3.948  0.00  0.00    +0.084 C 
ATOM     37  C   UNL     1       2.262   0.644  -5.466  0.00  0.00    +0.015 C 
ATOM     38  C   UNL     1       1.183  -0.022  -5.818  0.00  0.00    +0.184 C 
ATOM     39  O   UNL     1       0.461  -0.476  -4.768  0.00  0.00    -0.487 OA
ENDBRANCH  32  35
ENDBRANCH  30  31
ENDBRANCH  25  30
ENDBRANCH  24  27
ENDBRANCH   1  24
TORSDOF 8
