REMARK  Name = ZINC13525772
REMARK  6 active torsions:
REMARK  status: ('A' for Active; 'I' for Inactive)
REMARK    1  A    between atoms: C_1  and  C_2
REMARK    2  A    between atoms: C_2  and  C_4
REMARK    3  A    between atoms: C_2  and  O_14
REMARK    4  A    between atoms: O_14  and  C_15
REMARK    5  A    between atoms: C_15  and  C_17
REMARK    6  A    between atoms: C_31  and  C_32
REMARK                            x       y       z     vdW  Elec       q    Type
REMARK                         _______ _______ _______ _____ _____    ______ ____
ROOT
ATOM      1  C   UNL     1      -3.761  -1.581   3.117  0.00  0.00    +0.073 A 
ATOM      2  C   UNL     1      -4.062  -3.002   2.939  0.00  0.00    +0.015 A 
ATOM      3  C   UNL     1      -3.122  -3.993   3.239  0.00  0.00    +0.011 A 
ATOM      4  C   UNL     1      -3.445  -5.306   3.059  0.00  0.00    +0.001 A 
ATOM      5  C   UNL     1      -4.701  -5.673   2.582  0.00  0.00    +0.002 A 
ATOM      6  C   UNL     1      -5.639  -4.734   2.280  0.00  0.00    +0.028 A 
ATOM      7  C   UNL     1      -5.342  -3.369   2.452  0.00  0.00    +0.072 A 
ATOM      8  N   UNL     1      -6.240  -2.427   2.165  0.00  0.00    -0.247 NA
ATOM      9  C   UNL     1      -5.992  -1.135   2.316  0.00  0.00    +0.072 A 
ATOM     10  C   UNL     1      -4.757  -0.667   2.804  0.00  0.00    -0.007 A 
ATOM     11  C   UNL     1      -4.484   0.799   2.996  0.00  0.00    +0.038 C 
ATOM     12  C   UNL     1      -5.407   1.653   2.130  0.00  0.00    +0.009 C 
ATOM     13  C   UNL     1      -6.865   1.270   2.414  0.00  0.00    +0.037 C 
ATOM     14  C   UNL     1      -7.049  -0.165   1.964  0.00  0.00    -0.021 C 
ATOM     15  C   UNL     1      -8.147  -0.548   1.279  0.00  0.00    +0.020 C 
ENDROOT
BRANCH  15  16
ATOM     16  C   UNL     1      -9.299   0.349   1.182  0.00  0.00    +0.013 A 
ATOM     17  C   UNL     1     -10.453   0.212   0.426  0.00  0.00    +0.015 A 
ATOM     18  C   UNL     1     -11.404   1.200   0.503  0.00  0.00    +0.008 A 
ATOM     19  C   UNL     1     -11.187   2.272   1.310  0.00  0.00    +0.046 A 
ATOM     20  S   UNL     1      -9.588   1.903   2.012  0.00  0.00    -0.097 S 
ENDBRANCH  15  16
BRANCH   1  21
ATOM     21  C   UNL     1      -2.444  -1.135   3.619  0.00  0.00    +0.341 C 
ATOM     22  O   UNL     1      -2.262  -1.004   4.813  0.00  0.00    -0.245 OA
BRANCH  21  23
ATOM     23  O   UNL     1      -1.446  -0.874   2.753  0.00  0.00    -0.449 OA
BRANCH  23  25
ATOM     24  C   UNL     1      -0.189   1.078   3.421  0.00  0.00    +0.062 C 
ATOM     25  C   UNL     1      -0.200  -0.448   3.308  0.00  0.00    +0.259 C 
BRANCH  25  26
ATOM     26  C   UNL     1       0.927  -0.894   2.413  0.00  0.00    +0.259 C 
ATOM     27  O   UNL     1       0.684  -1.436   1.355  0.00  0.00    -0.271 OA
ATOM     28  N   UNL     1       2.206  -0.690   2.787  0.00  0.00    -0.267 N 
ATOM     29  C   UNL     1       3.249  -1.179   2.002  0.00  0.00    +0.125 A 
ATOM     30  C   UNL     1       4.559  -1.073   2.453  0.00  0.00    +0.045 A 
ATOM     31  C   UNL     1       5.585  -1.562   1.664  0.00  0.00    +0.025 A 
ATOM     32  C   UNL     1       5.263  -2.144   0.444  0.00  0.00    +0.059 A 
ATOM     33  C   UNL     1       3.938  -2.216   0.059  0.00  0.00    +0.132 A 
ATOM     34  N   UNL     1       2.981  -1.746   0.836  0.00  0.00    -0.239 NA
ATOM     35 CL   UNL     1       6.512  -2.773  -0.585  0.00  0.00    -0.082 Cl
ATOM     36  H   UNL     1       2.400  -0.204   3.604  0.00  0.00    +0.156 HD
ENDBRANCH  25  26
ENDBRANCH  23  25
ENDBRANCH  21  23
ENDBRANCH   1  21
TORSDOF 5
