REMARK  Name = ZINC08534865
REMARK  12 active torsions:
REMARK  status: ('A' for Active; 'I' for Inactive)
REMARK    1  A    between atoms: C_1  and  C_2
REMARK    2  A    between atoms: C_2  and  C_4
REMARK    3  A    between atoms: C_2  and  N_66
REMARK    4  A    between atoms: C_14  and  C_15
REMARK    5  A    between atoms: C_14  and  N_66
REMARK    6  A    between atoms: C_18  and  O_21
REMARK    7  A    between atoms: O_21  and  C_22
REMARK    8  A    between atoms: C_22  and  C_23
REMARK    9  A    between atoms: N_25  and  C_26
REMARK   10  A    between atoms: C_26  and  C_27
REMARK   11  A    between atoms: C_26  and  C_28
REMARK   12  A    between atoms: C_26  and  C_29
REMARK                            x       y       z     vdW  Elec       q    Type
REMARK                         _______ _______ _______ _____ _____    ______ ____
ROOT
ATOM      1  C   UNL     1       0.492   3.588   1.846  0.00  0.00    -0.046 C 
ENDROOT
BRANCH   1   2
ATOM      2  C   UNL     1       0.435   5.094   1.837  0.00  0.00    -0.064 A 
ATOM      3  C   UNL     1       0.910   5.797   0.745  0.00  0.00    +0.005 A 
ATOM      4  C   UNL     1       0.854   7.177   0.733  0.00  0.00    +0.046 A 
ATOM      5  C   UNL     1       0.331   7.859   1.822  0.00  0.00    +0.121 A 
ATOM      6  C   UNL     1      -0.140   7.152   2.919  0.00  0.00    +0.046 A 
ATOM      7  C   UNL     1      -0.087   5.771   2.924  0.00  0.00    +0.005 A 
BRANCH   5   8
ATOM      8  O   UNL     1       0.279   9.217   1.814  0.00  0.00    -0.483 OA
BRANCH   8   9
ATOM      9  C   UNL     1       0.781   9.878   0.652  0.00  0.00    +0.324 C 
BRANCH   9  10
ATOM     10  C   UNL     1       0.643  11.369   0.823  0.00  0.00    +0.251 C 
ATOM     11  O   UNL     1       0.161  11.820   1.840  0.00  0.00    -0.272 OA
ATOM     12  N   UNL     1       1.054  12.201  -0.155  0.00  0.00    -0.308 N 
ATOM     13  H   UNL     1       1.439  11.840  -0.968  0.00  0.00    +0.149 HD
BRANCH  12  14
ATOM     14  C   UNL     1       0.919  13.650   0.012  0.00  0.00    +0.026 C 
ATOM     15  C   UNL     1       1.716  14.099   1.238  0.00  0.00    +0.031 C 
ATOM     16  C   UNL     1       1.457  14.359  -1.233  0.00  0.00    +0.031 C 
ATOM     17  C   UNL     1      -0.556  14.006   0.204  0.00  0.00    +0.031 C 
ENDBRANCH  12  14
ENDBRANCH   9  10
ENDBRANCH   8   9
ENDBRANCH   5   8
ENDBRANCH   1   2
BRANCH   1  18
ATOM     18  N   UNL     1      -0.757   3.054   1.271  0.00  0.00    +0.384 N 
ATOM     19  H   UNL     1      -1.553   3.376   1.834  0.00  0.00    -0.085 HD
ATOM     20  H   UNL     1      -0.859   3.394   0.308  0.00  0.00    -0.085 HD
BRANCH  18  22
ATOM     21  C   UNL     1      -0.013   1.086   0.008  0.00  0.00    -0.013 C 
ATOM     22  C   UNL     1      -0.729   1.579   1.267  0.00  0.00    -0.068 C 
BRANCH  22  23
ATOM     23  C   UNL     1      -2.164   1.050   1.278  0.00  0.00    -0.041 C 
ATOM     24  C   UNL     1      -2.904   1.556   0.038  0.00  0.00    +0.009 C 
ATOM     25  C   UNL     1      -4.340   1.027   0.049  0.00  0.00    -0.010 C 
ATOM     26  C   UNL     1      -4.319  -0.503   0.041  0.00  0.00    +0.007 C 
ATOM     27  C   UNL     1      -3.579  -1.010   1.280  0.00  0.00    -0.010 C 
ATOM     28  C   UNL     1      -2.143  -0.480   1.269  0.00  0.00    +0.009 C 
ATOM     29  C   UNL     1      -4.295  -0.516   2.539  0.00  0.00    +0.007 C 
ATOM     30  C   UNL     1      -4.316   1.014   2.547  0.00  0.00    -0.010 C 
ATOM     31  C   UNL     1      -5.056   1.520   1.308  0.00  0.00    +0.007 C 
ATOM     32  C   UNL     1      -2.880   1.543   2.537  0.00  0.00    +0.009 C 
ENDBRANCH  22  23
ENDBRANCH  18  22
ENDBRANCH   1  18
TORSDOF 8
