REMARK  Name = ZINC39937773
REMARK  7 active torsions:
REMARK  status: ('A' for Active; 'I' for Inactive)
REMARK    1  A    between atoms: C_1  and  C_2
REMARK    2  A    between atoms: C_2  and  C_4
REMARK    3  A    between atoms: C_2  and  S_15
REMARK    4  A    between atoms: N_6  and  C_7
REMARK    5  A    between atoms: S_15  and  C_16
REMARK    6  A    between atoms: C_20  and  C_25
REMARK    7  A    between atoms: N_21  and  C_22
REMARK                            x       y       z     vdW  Elec       q    Type
REMARK                         _______ _______ _______ _____ _____    ______ ____
ROOT
ATOM      1  C   UNL     1      -2.484  -0.257   1.627  0.00  0.00    +0.238 C 
ATOM      2  N   UNL     1      -2.563   1.213   1.616  0.00  0.00    -0.237 N 
ATOM      3  N   UNL     1      -1.797   1.660   2.699  0.00  0.00    -0.169 NA
ATOM      4  C   UNL     1      -1.272   0.659   3.354  0.00  0.00    +0.147 C 
ATOM      5  N   UNL     1      -1.629  -0.569   2.784  0.00  0.00    -0.282 N 
ATOM      6  H   UNL     1      -3.050   1.763   0.983  0.00  0.00    +0.171 HD
ENDROOT
BRANCH   4   7
ATOM      7  C   UNL     1      -0.454   0.797   4.486  0.00  0.00    +0.022 C 
ATOM      8  C   UNL     1      -0.141   1.976   5.162  0.00  0.00    +0.006 A 
ATOM      9  C   UNL     1      -0.511   3.322   4.953  0.00  0.00    +0.010 A 
ATOM     10  C   UNL     1      -0.046   4.286   5.789  0.00  0.00    +0.001 A 
ATOM     11  C   UNL     1       0.797   3.982   6.860  0.00  0.00    +0.002 A 
ATOM     12  C   UNL     1       1.193   2.711   7.119  0.00  0.00    +0.026 A 
ATOM     13  C   UNL     1       0.748   1.650   6.290  0.00  0.00    +0.043 A 
ATOM     14  N   UNL     1       0.985   0.353   6.330  0.00  0.00    -0.380 N 
ATOM     15  C   UNL     1       0.267  -0.304   5.233  0.00  0.00    +0.152 C 
ATOM     16  H   UNL     1       1.542  -0.096   6.984  0.00  0.00    +0.160 HD
ENDBRANCH   4   7
BRANCH   5  17
ATOM     17  C   UNL     1      -1.232  -1.901   3.246  0.00  0.00    +0.078 C 
ATOM     18  C   UNL     1      -1.692  -3.102   2.417  0.00  0.00    +0.024 C 
ATOM     19  C   UNL     1      -2.331  -2.822   3.779  0.00  0.00    +0.024 C 
ENDBRANCH   5  17
BRANCH   1  20
ATOM     20  S   UNL     1      -1.724  -0.863   0.095  0.00  0.00    -0.106 S 
BRANCH  20  22
ATOM     21  C   UNL     1      -0.330   1.481  -0.106  0.00  0.00    +0.029 C 
ATOM     22  C   UNL     1      -0.116  -0.027   0.042  0.00  0.00    +0.133 C 
BRANCH  22  23
ATOM     23  C   UNL     1       0.679  -0.539  -1.131  0.00  0.00    +0.230 C 
ATOM     24  O   UNL     1       0.107  -1.007  -2.093  0.00  0.00    -0.274 OA
ATOM     25  N   UNL     1       2.025  -0.477  -1.112  0.00  0.00    -0.282 N 
ATOM     26  H   UNL     1       2.480  -0.046  -0.372  0.00  0.00    +0.155 HD
BRANCH  25  27
ATOM     27  C   UNL     1       2.767  -1.034  -2.161  0.00  0.00    +0.072 A 
ATOM     28  C   UNL     1       2.273  -0.997  -3.458  0.00  0.00    +0.064 A 
ATOM     29  C   UNL     1       3.008  -1.549  -4.492  0.00  0.00    +0.125 A 
ATOM     30  C   UNL     1       4.235  -2.137  -4.234  0.00  0.00    +0.041 A 
ATOM     31  C   UNL     1       4.729  -2.176  -2.944  0.00  0.00    +0.043 A 
ATOM     32  C   UNL     1       4.001  -1.622  -1.907  0.00  0.00    +0.145 A 
ATOM     33  F   UNL     1       4.486  -1.655  -0.646  0.00  0.00    -0.204 F 
ATOM     34  F   UNL     1       2.529  -1.513  -5.755  0.00  0.00    -0.205 F 
ENDBRANCH  25  27
ENDBRANCH  22  23
ENDBRANCH  20  22
ENDBRANCH   1  20
TORSDOF 6
