REMARK  Name = ZINC62962177
REMARK  2 active torsions:
REMARK  status: ('A' for Active; 'I' for Inactive)
REMARK    1  A    between atoms: C_5  and  N_8
REMARK    2  A    between atoms: N_8  and  C_9
REMARK                            x       y       z     vdW  Elec       q    Type
REMARK                         _______ _______ _______ _____ _____    ______ ____
ROOT
ATOM      1  C   UNL     1       2.015   1.219  -1.366  0.00  0.00    +0.044 A 
ATOM      2  C   UNL     1       0.993   2.007  -0.953  0.00  0.00    +0.071 A 
ATOM      3  C   UNL     1      -0.068   1.458  -0.180  0.00  0.00    +0.120 A 
ATOM      4  C   UNL     1      -0.024   0.040   0.151  0.00  0.00    +0.123 A 
ATOM      5  C   UNL     1       1.082  -0.732  -0.317  0.00  0.00    +0.075 A 
ATOM      6  C   UNL     1       2.062  -0.139  -1.052  0.00  0.00    +0.065 A 
ATOM      7 CL   UNL     1       3.399  -1.094  -1.612  0.00  0.00    -0.082 Cl
ATOM      8  N   UNL     1      -1.067  -0.363   0.877  0.00  0.00    -0.189 NA
ATOM      9  S   UNL     1      -1.977   0.946   1.092  0.00  0.00    +0.117 S 
ATOM     10  N   UNL     1      -1.144   2.078   0.308  0.00  0.00    -0.189 NA
ATOM     11 CL   UNL     1       0.979   3.692  -1.368  0.00  0.00    -0.081 Cl
ENDROOT
BRANCH   5  12
ATOM     12  N   UNL     1       1.158  -2.093  -0.020  0.00  0.00    -0.337 N 
ATOM     13  H   UNL     1       2.003  -2.562  -0.106  0.00  0.00    +0.147 HD
BRANCH  12  14
ATOM     14  C   UNL     1      -0.038  -2.815   0.422  0.00  0.00    +0.093 C 
ATOM     15  C   UNL     1      -0.059  -2.894   1.957  0.00  0.00    +0.046 C 
ATOM     16  C   UNL     1      -1.127  -3.915   2.419  0.00  0.00    +0.168 C 
ATOM     17  S   UNL     1      -1.201  -5.089   1.005  0.00  0.00    -0.029 S 
ATOM     18  O   UNL     1      -0.660  -6.338   1.413  0.00  0.00    -0.174 OA
ATOM     19  O   UNL     1      -2.501  -5.043   0.433  0.00  0.00    -0.174 OA
ATOM     20  C   UNL     1      -0.012  -4.266  -0.137  0.00  0.00    +0.188 C 
ENDBRANCH  12  14
ENDBRANCH   5  12
TORSDOF 2
