REMARK  Name = ZINC43619340
REMARK  4 active torsions:
REMARK  status: ('A' for Active; 'I' for Inactive)
REMARK    1  A    between atoms: C_9  and  C_11
REMARK    2  A    between atoms: N_25  and  C_26
REMARK    3  A    between atoms: C_26  and  C_27
REMARK    4  A    between atoms: C_27  and  C_28
REMARK                            x       y       z     vdW  Elec       q    Type
REMARK                         _______ _______ _______ _____ _____    ______ ____
ROOT
ATOM      1  C   UNL     1       5.435  -2.891  -0.143  0.00  0.00    +0.265 C 
ATOM      2  O   UNL     1       4.368  -2.455  -0.529  0.00  0.00    -0.268 OA
ATOM      3  N   UNL     1       6.481  -2.059   0.028  0.00  0.00    -0.296 N 
ATOM      4  C   UNL     1       6.296  -0.601  -0.015  0.00  0.00    +0.110 C 
ATOM      5  C   UNL     1       7.253  -0.022  -1.061  0.00  0.00    +0.042 C 
ATOM      6  C   UNL     1       8.680  -0.466  -0.759  0.00  0.00    +0.082 C 
ATOM      7  C   UNL     1       8.791  -1.990  -0.774  0.00  0.00    +0.027 C 
ATOM      8  C   UNL     1       7.830  -2.587   0.267  0.00  0.00    +0.113 C 
ATOM      9  C   UNL     1      10.226  -2.365  -0.373  0.00  0.00    +0.016 C 
ATOM     10  C   UNL     1      10.426  -1.992   1.097  0.00  0.00    +0.096 C 
ATOM     11  C   UNL     1       9.946  -0.591   1.346  0.00  0.00    +0.216 C 
ATOM     12  O   UNL     1      10.310  -0.031   2.358  0.00  0.00    -0.276 OA
ATOM     13  N   UNL     1       9.134   0.058   0.520  0.00  0.00    -0.298 N 
ENDROOT
BRANCH   1  22
ATOM     14  C   UNL     1       7.204  -8.762   1.562  0.00  0.00    +0.001 A 
ATOM     15  C   UNL     1       8.188  -7.837   1.909  0.00  0.00    +0.002 A 
ATOM     16  C   UNL     1       8.032  -6.513   1.644  0.00  0.00    +0.028 A 
ATOM     17  C   UNL     1       6.860  -6.061   1.007  0.00  0.00    +0.072 A 
ATOM     18  C   UNL     1       5.860  -7.005   0.653  0.00  0.00    +0.000 A 
ATOM     19  C   UNL     1       6.057  -8.364   0.945  0.00  0.00    +0.010 A 
ATOM     20  C   UNL     1       4.688  -6.556   0.017  0.00  0.00    +0.012 A 
ATOM     21  C   UNL     1       4.561  -5.220  -0.236  0.00  0.00    +0.033 A 
ATOM     22  C   UNL     1       5.586  -4.339   0.138  0.00  0.00    +0.126 A 
ATOM     23  N   UNL     1       6.681  -4.769   0.734  0.00  0.00    -0.242 NA
ENDBRANCH   1  22
BRANCH  13  24
ATOM     24  C   UNL     1       8.685   1.394   0.919  0.00  0.00    +0.108 C 
BRANCH  24  25
ATOM     25  C   UNL     1       9.591   2.449   0.281  0.00  0.00    +0.022 C 
BRANCH  25  26
ATOM     26  C   UNL     1       9.207   3.834   0.803  0.00  0.00    -0.009 C 
ATOM     27  C   UNL     1       7.791   4.181   0.336  0.00  0.00    +0.003 C 
ATOM     28  C   UNL     1       7.407   5.567   0.858  0.00  0.00    +0.000 C 
ATOM     29  C   UNL     1       8.391   6.606   0.318  0.00  0.00    +0.000 C 
ATOM     30  C   UNL     1       9.806   6.260   0.785  0.00  0.00    +0.000 C 
ATOM     31  C   UNL     1      10.191   4.874   0.263  0.00  0.00    +0.003 C 
ENDBRANCH  25  26
ENDBRANCH  24  25
ENDBRANCH  13  24
TORSDOF 4
