REMARK  Name = ZINC39665642
REMARK  12 active torsions:
REMARK  status: ('A' for Active; 'I' for Inactive)
REMARK    1  A    between atoms: C_1  and  C_2
REMARK    2  A    between atoms: C_2  and  C_3
REMARK    3  A    between atoms: C_3  and  C_5
REMARK    4  A    between atoms: C_3  and  C_6
REMARK    5  A    between atoms: C_10  and  C_19
REMARK    6  A    between atoms: N_21  and  C_22
REMARK    7  A    between atoms: C_22  and  C_23
REMARK    8  A    between atoms: C_23  and  C_25
REMARK    9  A    between atoms: C_23  and  O_26
REMARK   10  A    between atoms: O_26  and  C_27
REMARK   11  A    between atoms: C_30  and  O_33
REMARK   12  A    between atoms: O_33  and  C_34
REMARK                            x       y       z     vdW  Elec       q    Type
REMARK                         _______ _______ _______ _____ _____    ______ ____
ROOT
ATOM      1  C   UNL     1      -1.397  -2.053  -0.128  0.00  0.00    +0.218 C 
ATOM      2  O   UNL     1      -0.338  -2.635  -0.229  0.00  0.00    -0.275 OA
ATOM      3  N   UNL     1      -2.552  -2.747  -0.144  0.00  0.00    -0.300 N 
ATOM      4  C   UNL     1      -3.932  -2.217  -0.041  0.00  0.00    +0.121 C 
ATOM      5  C   UNL     1      -4.753  -3.067  -1.036  0.00  0.00    +0.100 C 
ATOM      6  C   UNL     1      -3.960  -4.377  -1.180  0.00  0.00    -0.004 C 
ATOM      7  C   UNL     1      -2.730  -4.213  -0.275  0.00  0.00    +0.115 C 
ATOM      8  C   UNL     1      -4.804  -5.560  -0.716  0.00  0.00    -0.010 C 
ATOM      9  C   UNL     1      -4.016  -6.856  -0.923  0.00  0.00    -0.082 C 
ATOM     10  N   UNL     1      -3.672  -7.001  -2.343  0.00  0.00    +0.379 N 
ATOM     11  C   UNL     1      -2.784  -5.909  -2.757  0.00  0.00    -0.082 C 
ATOM     12  C   UNL     1      -3.520  -4.572  -2.628  0.00  0.00    -0.010 C 
ATOM     13  H   UNL     1      -3.207  -7.885  -2.487  0.00  0.00    -0.086 HD
ATOM     14  H   UNL     1      -4.516  -6.975  -2.896  0.00  0.00    -0.086 HD
ENDROOT
BRANCH   5  15
ATOM     15  C   UNL     1      -4.856  -2.365  -2.365  0.00  0.00    +0.218 C 
ATOM     16  O   UNL     1      -4.009  -1.563  -2.695  0.00  0.00    -0.275 OA
ATOM     17  N   UNL     1      -5.891  -2.628  -3.188  0.00  0.00    -0.312 N 
ATOM     18  H   UNL     1      -6.569  -3.270  -2.924  0.00  0.00    +0.149 HD
BRANCH  17  19
ATOM     19  C   UNL     1      -5.992  -1.946  -4.480  0.00  0.00    +0.148 C 
BRANCH  19  20
ATOM     20  C   UNL     1      -7.249  -2.422  -5.212  0.00  0.00    +0.187 C 
ATOM     21  C   UNL     1      -7.354  -1.709  -6.561  0.00  0.00    +0.053 C 
BRANCH  20  22
ATOM     22  O   UNL     1      -7.171  -3.833  -5.423  0.00  0.00    -0.488 OA
BRANCH  22  23
ATOM     23  C   UNL     1      -8.347  -4.501  -5.565  0.00  0.00    +0.121 A 
ATOM     24  C   UNL     1      -8.351  -5.885  -5.654  0.00  0.00    +0.049 A 
ATOM     25  C   UNL     1      -9.546  -6.564  -5.798  0.00  0.00    +0.049 A 
ATOM     26  C   UNL     1     -10.740  -5.862  -5.854  0.00  0.00    +0.120 A 
ATOM     27  C   UNL     1     -10.736  -4.478  -5.765  0.00  0.00    +0.049 A 
ATOM     28  C   UNL     1      -9.542  -3.799  -5.616  0.00  0.00    +0.049 A 
BRANCH  26  29
ATOM     29  O   UNL     1     -11.916  -6.530  -5.998  0.00  0.00    -0.495 OA
ATOM     30  C   UNL     1     -13.108  -5.743  -6.048  0.00  0.00    +0.277 C 
ENDBRANCH  26  29
ENDBRANCH  22  23
ENDBRANCH  20  22
ENDBRANCH  19  20
ENDBRANCH  17  19
ENDBRANCH   5  15
BRANCH   1  31
ATOM     31  C   UNL     1      -1.421  -0.553   0.015  0.00  0.00    +0.072 C 
ATOM     32  C   UNL     1      -2.096  -0.177   1.335  0.00  0.00    +0.017 C 
BRANCH  31  34
ATOM     33  C   UNL     1      -0.017   1.513   0.023  0.00  0.00    +0.004 C 
ATOM     34  C   UNL     1       0.011  -0.016   0.003  0.00  0.00    +0.009 C 
ENDBRANCH  31  34
ENDBRANCH   1  31
TORSDOF 8
