REMARK  Name = ZINC44164187
REMARK  10 active torsions:
REMARK  status: ('A' for Active; 'I' for Inactive)
REMARK    1  A    between atoms: C_1  and  C_2
REMARK    2  A    between atoms: C_2  and  C_3
REMARK    3  A    between atoms: C_3  and  C_4
REMARK    4  A    between atoms: C_4  and  C_5
REMARK    5  A    between atoms: C_5  and  C_6
REMARK    6  A    between atoms: C_9  and  C_12
REMARK    7  A    between atoms: C_17  and  C_20
REMARK    8  A    between atoms: N_22  and  C_23
REMARK    9  A    between atoms: C_23  and  C_24
REMARK   10  A    between atoms: C_24  and  C_25
REMARK                            x       y       z     vdW  Elec       q    Type
REMARK                         _______ _______ _______ _____ _____    ______ ____
ROOT
ATOM      1  C   UNL     1      -2.736  -8.348  -0.013  0.00  0.00    -0.030 C 
ATOM      2  C   UNL     1      -4.162  -8.855   0.234  0.00  0.00    +0.058 C 
ATOM      3  S   UNL     1      -4.145 -10.673   0.143  0.00  0.00    -0.163 S 
ATOM      4  C   UNL     1      -2.762 -11.113   1.241  0.00  0.00    +0.062 C 
ATOM      5  C   UNL     1      -1.546 -10.268   0.844  0.00  0.00    +0.027 C 
ATOM      6  N   UNL     1      -1.845  -8.848   1.036  0.00  0.00    +0.392 N 
ATOM      7  H   UNL     1      -0.983  -8.323   1.014  0.00  0.00    -0.084 HD
ATOM      8  H   UNL     1      -2.286  -8.719   1.934  0.00  0.00    -0.084 HD
ENDROOT
BRANCH   1  12
ATOM      9  C   UNL     1      -2.724  -4.077   0.027  0.00  0.00    -0.047 A 
ATOM     10  C   UNL     1      -2.728  -4.757  -1.177  0.00  0.00    +0.004 A 
ATOM     11  C   UNL     1      -2.732  -6.139  -1.190  0.00  0.00    +0.002 A 
ATOM     12  C   UNL     1      -2.731  -6.841   0.001  0.00  0.00    -0.061 A 
ATOM     13  C   UNL     1      -2.726  -6.161   1.205  0.00  0.00    +0.002 A 
ATOM     14  C   UNL     1      -2.718  -4.779   1.218  0.00  0.00    +0.004 A 
BRANCH   9  15
ATOM     15  C   UNL     1      -2.719  -2.570   0.041  0.00  0.00    +0.035 C 
BRANCH  15  16
ATOM     16  C   UNL     1      -1.276  -2.064   0.036  0.00  0.00    +0.005 C 
BRANCH  16  17
ATOM     17  C   UNL     1      -1.271  -0.534   0.050  0.00  0.00    +0.000 C 
BRANCH  17  19
ATOM     18  C   UNL     1       0.177   1.502   0.059  0.00  0.00    +0.004 C 
ATOM     19  C   UNL     1       0.173  -0.028   0.045  0.00  0.00    -0.003 C 
ENDBRANCH  17  19
ENDBRANCH  16  17
ENDBRANCH  15  16
ENDBRANCH   9  15
ENDBRANCH   1  12
BRANCH   5  20
ATOM     20  C   UNL     1      -1.213 -10.519  -0.604  0.00  0.00    +0.200 C 
ATOM     21  O   UNL     1      -0.805  -9.613  -1.298  0.00  0.00    -0.278 OA
ATOM     22  N   UNL     1      -1.369 -11.751  -1.128  0.00  0.00    -0.316 N 
ATOM     23  H   UNL     1      -1.696 -12.476  -0.572  0.00  0.00    +0.149 HD
BRANCH  22  24
ATOM     24  C   UNL     1      -1.046 -11.995  -2.536  0.00  0.00    +0.109 C 
BRANCH  24  25
ATOM     25  C   UNL     1      -1.310 -13.464  -2.873  0.00  0.00    +0.054 C 
BRANCH  25  26
ATOM     26  C   UNL     1      -0.978 -13.715  -4.321  0.00  0.00    -0.046 A 
ATOM     27  C   UNL     1      -1.949 -13.551  -5.291  0.00  0.00    +0.005 A 
ATOM     28  C   UNL     1      -1.645 -13.781  -6.620  0.00  0.00    +0.020 A 
ATOM     29  C   UNL     1      -0.367 -14.175  -6.978  0.00  0.00    +0.041 A 
ATOM     30  C   UNL     1       0.604 -14.338  -6.007  0.00  0.00    +0.020 A 
ATOM     31  C   UNL     1       0.300 -14.102  -4.679  0.00  0.00    +0.005 A 
ATOM     32 CL   UNL     1       0.015 -14.464  -8.647  0.00  0.00    -0.084 Cl
ENDBRANCH  25  26
ENDBRANCH  24  25
ENDBRANCH  22  24
ENDBRANCH   5  20
TORSDOF 9
