REMARK  Name = ZINC05881425
REMARK  3 active torsions:
REMARK  status: ('A' for Active; 'I' for Inactive)
REMARK    1  A    between atoms: C_1  and  C_2
REMARK    2  A    between atoms: C_7  and  C_12
REMARK    3  A    between atoms: N_17  and  C_20
REMARK                            x       y       z     vdW  Elec       q    Type
REMARK                         _______ _______ _______ _____ _____    ______ ____
ROOT
ATOM      1  C   UNL     1      -1.551   8.527   0.058  0.00  0.00    +0.026 C 
ATOM      2  C   UNL     1      -0.771   7.420   0.317  0.00  0.00    +0.102 C 
ATOM      3  C   UNL     1       0.702   7.331   0.283  0.00  0.00    +0.266 C 
ATOM      4  O   UNL     1       1.476   8.231   0.017  0.00  0.00    -0.268 OA
ATOM      5  N   UNL     1       1.024   6.063   0.602  0.00  0.00    -0.223 N 
ATOM      6  N   UNL     1      -0.125   5.311   0.844  0.00  0.00    -0.184 N 
ATOM      7  C   UNL     1      -1.228   6.066   0.684  0.00  0.00    +0.272 C 
ATOM      8  O   UNL     1      -2.381   5.702   0.819  0.00  0.00    -0.268 OA
ATOM      9  H   UNL     1       1.930   5.721   0.656  0.00  0.00    +0.174 HD
ENDROOT
BRANCH   1  15
ATOM     10  C   UNL     1      -8.815   9.604   0.859  0.00  0.00    +0.052 C 
ATOM     11  C   UNL     1      -7.531   9.554   0.029  0.00  0.00    +0.175 C 
ATOM     12  C   UNL     1      -6.342  10.145   0.823  0.00  0.00    +0.083 C 
ATOM     13  C   UNL     1      -5.197   9.254   0.380  0.00  0.00    -0.002 A 
ATOM     14  C   UNL     1      -3.846   9.387   0.483  0.00  0.00    +0.015 A 
ATOM     15  C   UNL     1      -3.005   8.392  -0.040  0.00  0.00    -0.024 A 
ATOM     16  C   UNL     1      -3.571   7.263  -0.651  0.00  0.00    +0.011 A 
ATOM     17  C   UNL     1      -4.926   7.139  -0.737  0.00  0.00    +0.046 A 
ATOM     18  C   UNL     1      -5.764   8.132  -0.221  0.00  0.00    +0.124 A 
ATOM     19  O   UNL     1      -7.122   8.194  -0.194  0.00  0.00    -0.488 OA
ENDBRANCH   1  15
BRANCH   6  20
ATOM     20  C   UNL     1      -0.131   3.958   1.198  0.00  0.00    +0.058 A 
ATOM     21  C   UNL     1       1.068   3.268   1.331  0.00  0.00    +0.025 A 
ATOM     22  C   UNL     1       1.060   1.933   1.681  0.00  0.00    +0.003 A 
ATOM     23  C   UNL     1      -0.140   1.280   1.897  0.00  0.00    +0.020 A 
ATOM     24  C   UNL     1      -1.337   1.962   1.760  0.00  0.00    +0.043 A 
ATOM     25  C   UNL     1      -1.334   3.301   1.416  0.00  0.00    +0.045 A 
ATOM     26 CL   UNL     1      -2.841   1.138   2.026  0.00  0.00    -0.083 Cl
ENDBRANCH   6  20
TORSDOF 2
