REMARK  Name = ZINC38604156
REMARK  10 active torsions:
REMARK  status: ('A' for Active; 'I' for Inactive)
REMARK    1  A    between atoms: C_1  and  C_2
REMARK    2  A    between atoms: N_5  and  C_17
REMARK    3  A    between atoms: N_8  and  C_9
REMARK    4  A    between atoms: C_12  and  O_15
REMARK    5  A    between atoms: O_15  and  C_16
REMARK    6  A    between atoms: C_17  and  C_18
REMARK    7  A    between atoms: N_20  and  C_21
REMARK    8  A    between atoms: C_29  and  C_31
REMARK    9  A    between atoms: C_31  and  O_33
REMARK   10  A    between atoms: O_33  and  C_34
REMARK                            x       y       z     vdW  Elec       q    Type
REMARK                         _______ _______ _______ _____ _____    ______ ____
ROOT
ATOM      1  C   UNL     1      -2.302  -5.327   0.329  0.00  0.00    +0.231 C 
ATOM      2  O   UNL     1      -1.438  -4.908  -0.411  0.00  0.00    -0.274 OA
ATOM      3  N   UNL     1      -2.793  -6.570   0.154  0.00  0.00    -0.285 N 
ATOM      4  H   UNL     1      -3.533  -6.880   0.700  0.00  0.00    +0.155 HD
ENDROOT
BRANCH   3   5
ATOM      5  C   UNL     1      -2.249  -7.392  -0.787  0.00  0.00    +0.053 C 
ATOM      6  C   UNL     1      -2.694  -8.650  -1.155  0.00  0.00    +0.019 A 
ATOM      7  C   UNL     1      -3.777  -9.447  -0.713  0.00  0.00    +0.031 A 
ATOM      8  C   UNL     1      -3.980 -10.670  -1.264  0.00  0.00    +0.042 A 
ATOM      9  C   UNL     1      -3.142 -11.171  -2.265  0.00  0.00    +0.022 A 
ATOM     10  C   UNL     1      -2.087 -10.463  -2.736  0.00  0.00    +0.027 A 
ATOM     11  C   UNL     1      -1.810  -9.175  -2.210  0.00  0.00    +0.045 A 
ATOM     12  N   UNL     1      -0.863  -8.303  -2.493  0.00  0.00    -0.367 N 
ATOM     13  C   UNL     1      -1.040  -7.114  -1.652  0.00  0.00    +0.234 C 
ATOM     14 CL   UNL     1      -5.311 -11.637  -0.712  0.00  0.00    -0.084 Cl
ATOM     15  H   UNL     1      -0.164  -8.425  -3.154  0.00  0.00    +0.161 HD
BRANCH  13  16
ATOM     16  C   UNL     1       0.178  -6.907  -0.789  0.00  0.00    +0.335 C 
ATOM     17  O   UNL     1       0.768  -7.860  -0.337  0.00  0.00    -0.248 OA
BRANCH  16  18
ATOM     18  O   UNL     1       0.609  -5.664  -0.522  0.00  0.00    -0.466 OA
ATOM     19  C   UNL     1       1.769  -5.542   0.302  0.00  0.00    +0.280 C 
ENDBRANCH  16  18
ENDBRANCH  13  16
ENDBRANCH   3   5
BRANCH   1  20
ATOM     20  C   UNL     1      -2.827  -4.459   1.443  0.00  0.00    +0.180 C 
BRANCH  20  24
ATOM     21  C   UNL     1      -2.697   0.137   3.204  0.00  0.00    +0.029 C 
ATOM     22  C   UNL     1      -2.147  -0.825   2.148  0.00  0.00    +0.084 C 
ATOM     23  C   UNL     1      -2.779  -2.208   2.334  0.00  0.00    +0.107 C 
ATOM     24  N   UNL     1      -2.136  -3.163   1.421  0.00  0.00    -0.291 NA
ATOM     25  C   UNL     1      -0.710  -3.321   1.734  0.00  0.00    +0.104 C 
ATOM     26  C   UNL     1       0.007  -1.983   1.524  0.00  0.00    +0.121 C 
ATOM     27  N   UNL     1      -0.690  -0.948   2.303  0.00  0.00    -0.325 N 
BRANCH  27  28
ATOM     28  C   UNL     1       0.014  -0.106   3.172  0.00  0.00    +0.030 A 
ATOM     29  C   UNL     1       0.215  -0.484   4.494  0.00  0.00    +0.027 A 
ATOM     30  C   UNL     1       0.910   0.347   5.351  0.00  0.00    +0.047 A 
ATOM     31  C   UNL     1       1.406   1.558   4.892  0.00  0.00    +0.120 A 
ATOM     32  C   UNL     1       1.205   1.936   3.573  0.00  0.00    +0.047 A 
ATOM     33  C   UNL     1       0.515   1.104   2.713  0.00  0.00    +0.027 A 
BRANCH  31  34
ATOM     34  O   UNL     1       2.090   2.376   5.737  0.00  0.00    -0.495 OA
ATOM     35  C   UNL     1       2.573   3.608   5.198  0.00  0.00    +0.277 C 
ENDBRANCH  31  34
ENDBRANCH  27  28
ENDBRANCH  20  24
ENDBRANCH   1  20
TORSDOF 7
