REMARK  Name = ZINC02217278
REMARK  14 active torsions:
REMARK  status: ('A' for Active; 'I' for Inactive)
REMARK    1  A    between atoms: C_1  and  C_2
REMARK    2  A    between atoms: C_2  and  C_3
REMARK    3  A    between atoms: C_2  and  C_4
REMARK    4  A    between atoms: C_4  and  C_6
REMARK    5  A    between atoms: C_4  and  C_18
REMARK    6  A    between atoms: C_6  and  C_7
REMARK    7  A    between atoms: C_7  and  N_62
REMARK    8  A    between atoms: C_8  and  C_9
REMARK    9  A    between atoms: C_8  and  N_62
REMARK   10  A    between atoms: C_12  and  N_15
REMARK   11  A    between atoms: N_15  and  C_16
REMARK   12  A    between atoms: N_15  and  C_17
REMARK   13  A    between atoms: C_23  and  C_25
REMARK   14  A    between atoms: C_23  and  C_26
REMARK                            x       y       z     vdW  Elec       q    Type
REMARK                         _______ _______ _______ _____ _____    ______ ____
ROOT
ATOM      1  C   UNL     1       1.655   5.133   1.868  0.00  0.00    -0.082 C 
ENDROOT
BRANCH   1   2
ATOM      2  N   UNL     1       1.889   3.756   2.342  0.00  0.00    +0.382 N 
ATOM      3  H   UNL     1       1.064   3.431   2.859  0.00  0.00    -0.085 HD
ATOM      4  H   UNL     1       2.707   3.745   2.962  0.00  0.00    -0.085 HD
BRANCH   2   5
ATOM      5  C   UNL     1       2.133   2.856   1.199  0.00  0.00    -0.047 C 
BRANCH   5   6
ATOM      6  C   UNL     1       2.368   1.458   1.712  0.00  0.00    -0.064 A 
ATOM      7  C   UNL     1       1.301   0.594   1.873  0.00  0.00    +0.003 A 
ATOM      8  C   UNL     1       1.513  -0.687   2.343  0.00  0.00    +0.023 A 
ATOM      9  C   UNL     1       2.800  -1.107   2.653  0.00  0.00    +0.029 A 
ATOM     10  C   UNL     1       3.870  -0.236   2.490  0.00  0.00    +0.023 A 
ATOM     11  C   UNL     1       3.651   1.044   2.020  0.00  0.00    +0.003 A 
BRANCH   9  12
ATOM     12  N   UNL     1       3.018  -2.402   3.129  0.00  0.00    -0.336 N 
ATOM     13  C   UNL     1       1.880  -3.278   3.417  0.00  0.00    +0.129 C 
ATOM     14  C   UNL     1       4.385  -2.885   3.340  0.00  0.00    +0.129 C 
ENDBRANCH   9  12
ENDBRANCH   5   6
ENDBRANCH   2   5
ENDBRANCH   1   2
BRANCH   1  15
ATOM     15  C   UNL     1       1.406   6.042   3.073  0.00  0.00    -0.015 C 
BRANCH  15  16
ATOM     16  C   UNL     1       1.001   7.435   2.586  0.00  0.00    -0.007 C 
BRANCH  16  17
ATOM     17  C   UNL     1       0.622   8.305   3.787  0.00  0.00    -0.003 C 
ATOM     18  C   UNL     1       0.094   9.656   3.294  0.00  0.00    +0.032 C 
ATOM     19  C   UNL     1      -0.356  10.488   4.498  0.00  0.00    +0.161 C 
ATOM     20  O   UNL     1      -1.351   9.769   5.228  0.00  0.00    -0.374 OA
ATOM     21  C   UNL     1      -0.900   8.518   5.753  0.00  0.00    +0.064 C 
ATOM     22  C   UNL     1      -0.471   7.606   4.601  0.00  0.00    +0.038 C 
ATOM     23  C   UNL     1       0.290   8.756   6.684  0.00  0.00    +0.041 C 
ATOM     24  C   UNL     1      -2.036   7.854   6.534  0.00  0.00    +0.041 C 
ENDBRANCH  16  17
BRANCH  16  26
ATOM     25  C   UNL     1       3.490   7.625   2.481  0.00  0.00    +0.007 C 
ATOM     26  C   UNL     1       2.175   8.076   1.843  0.00  0.00    -0.014 C 
ATOM     27  C   UNL     1       2.145   7.644   0.375  0.00  0.00    +0.007 C 
ENDBRANCH  16  26
ENDBRANCH  15  16
ENDBRANCH   1  15
TORSDOF 8
