REMARK  Name = ZINC39323588
REMARK  5 active torsions:
REMARK  status: ('A' for Active; 'I' for Inactive)
REMARK    1  A    between atoms: C_1  and  C_2
REMARK    2  A    between atoms: C_10  and  N_26
REMARK    3  A    between atoms: C_11  and  C_15
REMARK    4  A    between atoms: N_17  and  C_18
REMARK    5  A    between atoms: C_18  and  C_19
REMARK                            x       y       z     vdW  Elec       q    Type
REMARK                         _______ _______ _______ _____ _____    ______ ____
ROOT
ATOM      1  C   UNL     1      -0.019   1.526   0.010  0.00  0.00    +0.008 C 
ATOM      2  C   UNL     1       0.002  -0.004   0.002  0.00  0.00    -0.009 C 
ATOM      3  C   UNL     1       0.730  -0.503  -1.252  0.00  0.00    +0.010 C 
ATOM      4  C   UNL     1       0.523  -2.013  -1.359  0.00  0.00    +0.056 C 
ATOM      5  C   UNL     1       0.880  -2.690  -0.061  0.00  0.00    +0.046 A 
ATOM      6  C   UNL     1       0.978  -2.002   1.134  0.00  0.00    -0.025 A 
ATOM      7  C   UNL     1       1.300  -2.677   2.296  0.00  0.00    +0.017 A 
ATOM      8  C   UNL     1       1.536  -4.071   2.252  0.00  0.00    +0.029 A 
ATOM      9  C   UNL     1       1.886  -4.972   3.339  0.00  0.00    +0.053 A 
ATOM     10  C   UNL     1       2.069  -6.306   3.049  0.00  0.00    +0.097 A 
ATOM     11  S   UNL     1       1.774  -6.390   1.293  0.00  0.00    -0.062 S 
ATOM     12  C   UNL     1       1.417  -4.679   0.982  0.00  0.00    +0.111 A 
ATOM     13  N   UNL     1       1.104  -3.996  -0.094  0.00  0.00    -0.244 NA
ATOM     14  C   UNL     1       0.751  -0.515   1.231  0.00  0.00    +0.040 C 
ENDROOT
BRANCH  10  15
ATOM     15  C   UNL     1       2.411  -7.359   3.934  0.00  0.00    +0.253 C 
ATOM     16  O   UNL     1       2.580  -7.128   5.117  0.00  0.00    -0.270 OA
ATOM     17  N   UNL     1       2.549  -8.615   3.465  0.00  0.00    -0.307 N 
ATOM     18  H   UNL     1       2.415  -8.798   2.522  0.00  0.00    +0.149 HD
BRANCH  17  19
ATOM     19  C   UNL     1       2.903  -9.703   4.380  0.00  0.00    +0.141 C 
BRANCH  19  20
ATOM     20  C   UNL     1       2.994 -10.996   3.611  0.00  0.00    -0.012 A 
ATOM     21  C   UNL     1       1.939 -11.889   3.631  0.00  0.00    +0.006 A 
ATOM     22  C   UNL     1       2.022 -13.074   2.926  0.00  0.00    +0.000 A 
ATOM     23  C   UNL     1       3.162 -13.369   2.200  0.00  0.00    +0.001 A 
ATOM     24  C   UNL     1       4.217 -12.477   2.179  0.00  0.00    +0.020 A 
ATOM     25  C   UNL     1       4.132 -11.287   2.880  0.00  0.00    +0.046 A 
ATOM     26 CL   UNL     1       5.455 -10.164   2.849  0.00  0.00    -0.083 Cl
ENDBRANCH  19  20
ENDBRANCH  17  19
ENDBRANCH  10  15
BRANCH   9  27
ATOM     27  N   UNL     1       2.032  -4.500   4.636  0.00  0.00    -0.356 N 
ATOM     28  H   UNL     1       1.901  -3.558   4.827  0.00  0.00    +0.142 HD
ATOM     29  H   UNL     1       2.266  -5.112   5.351  0.00  0.00    +0.142 HD
ENDBRANCH   9  27
TORSDOF 4
