REMARK  Name = ZINC38976224
REMARK  6 active torsions:
REMARK  status: ('A' for Active; 'I' for Inactive)
REMARK    1  A    between atoms: C_1  and  C_2
REMARK    2  A    between atoms: C_2  and  N_3
REMARK    3  A    between atoms: C_14  and  N_16
REMARK    4  A    between atoms: N_16  and  C_17
REMARK    5  A    between atoms: N_20  and  S_21
REMARK    6  A    between atoms: S_21  and  C_24
REMARK                            x       y       z     vdW  Elec       q    Type
REMARK                         _______ _______ _______ _____ _____    ______ ____
ROOT
ATOM      1  C   UNL     1       7.066  -1.447  -1.447  0.00  0.00    +0.235 C 
ATOM      2  C   UNL     1       8.105  -0.596  -2.140  0.00  0.00    +0.170 C 
ATOM      3  N   UNL     1       7.790   0.570  -2.622  0.00  0.00    -0.111 NA
ATOM      4  N   UNL     1       9.360  -1.062  -2.251  0.00  0.00    -0.338 N 
ATOM      5  C   UNL     1       9.704  -2.238  -1.771  0.00  0.00    +0.064 A 
ATOM      6  C   UNL     1      11.039  -2.699  -1.906  0.00  0.00    +0.028 A 
ATOM      7  C   UNL     1      11.398  -3.905  -1.416  0.00  0.00    +0.002 A 
ATOM      8  C   UNL     1      10.494  -4.758  -0.760  0.00  0.00    +0.002 A 
ATOM      9  C   UNL     1       9.200  -4.417  -0.578  0.00  0.00    +0.027 A 
ATOM     10  C   UNL     1       8.729  -3.119  -1.082  0.00  0.00    +0.061 A 
ATOM     11  N   UNL     1       7.487  -2.756  -0.924  0.00  0.00    -0.359 N 
ATOM     12  H   UNL     1       6.855  -3.336  -0.472  0.00  0.00    +0.162 HD
ATOM     13  H   UNL     1      10.029  -0.518  -2.695  0.00  0.00    +0.167 HD
ENDROOT
BRANCH   3  14
ATOM     14  S   UNL     1       8.938   1.492  -3.379  0.00  0.00    +0.107 S 
ATOM     15  O   UNL     1       9.888   1.854  -2.386  0.00  0.00    -0.146 OA
ATOM     16  O   UNL     1       9.303   0.795  -4.563  0.00  0.00    -0.146 OA
BRANCH  14  17
ATOM     17  C   UNL     1       8.154   2.983  -3.893  0.00  0.00    +0.150 A 
ATOM     18  C   UNL     1       8.026   4.155  -3.224  0.00  0.00    +0.037 A 
ATOM     19  C   UNL     1       7.363   5.205  -3.831  0.00  0.00    +0.010 A 
ATOM     20  C   UNL     1       6.860   5.032  -5.078  0.00  0.00    +0.047 A 
ATOM     21  S   UNL     1       7.328   3.346  -5.434  0.00  0.00    -0.076 S 
ENDBRANCH  14  17
ENDBRANCH   3  14
BRANCH   1  22
ATOM     22  N   UNL     1       5.971  -1.675  -2.394  0.00  0.00    -0.318 N 
ATOM     23  H   UNL     1       6.162  -2.012  -3.283  0.00  0.00    +0.148 HD
BRANCH  22  35
ATOM     24  N   UNL     1       0.820  -0.577  -0.654  0.00  0.00    -0.340 N 
ATOM     25  C   UNL     1       1.034  -0.330   0.691  0.00  0.00    +0.050 A 
ATOM     26  C   UNL     1       0.172   0.003   1.731  0.00  0.00    +0.026 A 
ATOM     27  C   UNL     1       0.667   0.194   3.003  0.00  0.00    +0.002 A 
ATOM     28  C   UNL     1       2.022   0.059   3.260  0.00  0.00    +0.001 A 
ATOM     29  C   UNL     1       2.892  -0.270   2.243  0.00  0.00    +0.010 A 
ATOM     30  C   UNL     1       2.405  -0.467   0.953  0.00  0.00    +0.008 A 
ATOM     31  C   UNL     1       3.044  -0.819  -0.329  0.00  0.00    +0.009 A 
ATOM     32  C   UNL     1       2.018  -0.878  -1.283  0.00  0.00    +0.050 A 
ATOM     33  C   UNL     1       2.327  -1.200  -2.600  0.00  0.00    +0.028 A 
ATOM     34  C   UNL     1       3.631  -1.461  -2.961  0.00  0.00    +0.025 A 
ATOM     35  C   UNL     1       4.651  -1.407  -2.015  0.00  0.00    +0.030 A 
ATOM     36  C   UNL     1       4.361  -1.078  -0.702  0.00  0.00    +0.033 A 
BRANCH  24  38
ATOM     37  C   UNL     1      -1.138  -1.914  -1.252  0.00  0.00    +0.027 C 
ATOM     38  C   UNL     1      -0.486  -0.531  -1.316  0.00  0.00    +0.119 C 
ENDBRANCH  24  38
ENDBRANCH  22  35
ENDBRANCH   1  22
TORSDOF 5
