REMARK  Name = ZINC00694863
REMARK  7 active torsions:
REMARK  status: ('A' for Active; 'I' for Inactive)
REMARK    1  A    between atoms: C_1  and  C_2
REMARK    2  A    between atoms: C_2  and  C_3
REMARK    3  A    between atoms: C_4  and  C_27
REMARK    4  A    between atoms: C_5  and  N_10
REMARK    5  A    between atoms: C_7  and  C_9
REMARK    6  A    between atoms: N_19  and  C_20
REMARK    7  A    between atoms: C_27  and  C_28
REMARK                            x       y       z     vdW  Elec       q    Type
REMARK                         _______ _______ _______ _____ _____    ______ ____
ROOT
ATOM      1  N   UNL     1      -2.096  -0.033  -2.908  0.00  0.00    -0.313 N 
ATOM      2  C   UNL     1      -2.605  -0.978  -3.901  0.00  0.00    +0.108 C 
ATOM      3  C   UNL     1      -1.753  -2.228  -3.876  0.00  0.00    +0.038 C 
ATOM      4  C   UNL     1      -2.371  -3.256  -2.914  0.00  0.00    +0.111 C 
ATOM      5  N   UNL     1      -2.892  -2.605  -1.696  0.00  0.00    -0.284 N 
ATOM      6  C   UNL     1      -2.177  -1.547  -1.012  0.00  0.00    +0.128 C 
ATOM      7  C   UNL     1      -2.596  -0.175  -1.592  0.00  0.00    +0.125 C 
ATOM      8  C   UNL     1      -4.078  -3.011  -1.201  0.00  0.00    +0.307 C 
ATOM      9  O   UNL     1      -4.655  -3.956  -1.703  0.00  0.00    -0.252 OA
ATOM     10  N   UNL     1      -4.625  -2.369  -0.149  0.00  0.00    -0.268 N 
ATOM     11  H   UNL     1      -4.152  -1.457   0.245  0.00  0.00    +0.156 HD
ENDROOT
BRANCH   1  14
ATOM     12  C   UNL     1      -1.312   3.266  -4.285  0.00  0.00    +0.024 A 
ATOM     13  C   UNL     1      -1.127   1.968  -3.850  0.00  0.00    +0.016 A 
ATOM     14  C   UNL     1      -2.230   1.273  -3.352  0.00  0.00    +0.128 A 
ATOM     15  N   UNL     1      -3.409   1.885  -3.304  0.00  0.00    -0.219 NA
ATOM     16  C   UNL     1      -3.541   3.125  -3.731  0.00  0.00    +0.106 A 
ATOM     17  N   UNL     1      -2.520   3.806  -4.212  0.00  0.00    -0.347 N 
ATOM     18  C   UNL     1      -4.895   3.782  -3.667  0.00  0.00    +0.086 C 
ATOM     19  H   UNL     1      -2.683   4.839  -4.555  0.00  0.00    +0.167 HD
BRANCH  12  21
ATOM     20  C   UNL     1      -0.041   3.813  -6.343  0.00  0.00    +0.010 C 
ATOM     21  C   UNL     1      -0.155   4.058  -4.837  0.00  0.00    +0.050 C 
ENDBRANCH  12  21
BRANCH  13  22
ATOM     22  C   UNL     1       0.231   1.318  -3.917  0.00  0.00    +0.075 C 
BRANCH  22  23
ATOM     23  C   UNL     1       0.920   1.454  -2.583  0.00  0.00    -0.043 A 
ATOM     24  C   UNL     1       1.729   2.547  -2.332  0.00  0.00    +0.004 A 
ATOM     25  C   UNL     1       2.357   2.675  -1.107  0.00  0.00    +0.000 A 
ATOM     26  C   UNL     1       2.184   1.705  -0.137  0.00  0.00    +0.000 A 
ATOM     27  C   UNL     1       1.379   0.609  -0.391  0.00  0.00    +0.000 A 
ATOM     28  C   UNL     1       0.747   0.484  -1.614  0.00  0.00    +0.004 A 
ENDBRANCH  22  23
ENDBRANCH  13  22
ENDBRANCH   1  14
BRANCH  10  29
ATOM     29  C   UNL     1      -5.794  -2.862   0.441  0.00  0.00    +0.049 A 
ATOM     30  C   UNL     1      -6.178  -4.179   0.229  0.00  0.00    +0.024 A 
ATOM     31  C   UNL     1      -7.330  -4.665   0.818  0.00  0.00    +0.002 A 
ATOM     32  C   UNL     1      -8.106  -3.837   1.609  0.00  0.00    +0.001 A 
ATOM     33  C   UNL     1      -7.729  -2.523   1.818  0.00  0.00    +0.017 A 
ATOM     34  C   UNL     1      -6.575  -2.033   1.236  0.00  0.00    +0.039 A 
ATOM     35 BR   UNL     1      -6.062  -0.236   1.522  0.00  0.00    -0.048 Br
ENDBRANCH  10  29
TORSDOF 5
