REMARK  Name = ZINC09886414
REMARK  13 active torsions:
REMARK  status: ('A' for Active; 'I' for Inactive)
REMARK    1  A    between atoms: C_1  and  C_2
REMARK    2  A    between atoms: C_5  and  C_8
REMARK    3  A    between atoms: N_10  and  C_11
REMARK    4  A    between atoms: C_11  and  C_13
REMARK    5  A    between atoms: C_11  and  C_16
REMARK    6  A    between atoms: C_13  and  C_14
REMARK    7  A    between atoms: C_13  and  C_15
REMARK    8  A    between atoms: N_18  and  N_19
REMARK    9  A    between atoms: C_20  and  C_21
REMARK   10  A    between atoms: C_22  and  C_39
REMARK   11  A    between atoms: N_23  and  C_30
REMARK   12  A    between atoms: C_30  and  C_31
REMARK   13  A    between atoms: C_36  and  C_37
REMARK                            x       y       z     vdW  Elec       q    Type
REMARK                         _______ _______ _______ _____ _____    ______ ____
ROOT
ATOM      1  N   UNL     1      -0.970  -5.179  -0.533  0.00  0.00    -0.188 NA
ATOM      2  C   UNL     1      -1.914  -6.072  -0.521  0.00  0.00    +0.140 C 
ENDROOT
BRANCH   2   3
ATOM      3  C   UNL     1      -3.313  -5.660  -0.321  0.00  0.00    +0.023 A 
ATOM      4  C   UNL     1      -4.160  -6.104   0.646  0.00  0.00    +0.026 A 
ATOM      5  N   UNL     1      -5.372  -5.495   0.510  0.00  0.00    -0.339 N 
ATOM      6  C   UNL     1      -5.352  -4.626  -0.560  0.00  0.00    +0.050 A 
ATOM      7  C   UNL     1      -4.067  -4.683  -1.125  0.00  0.00    +0.009 A 
ATOM      8  C   UNL     1      -3.760  -3.905  -2.239  0.00  0.00    +0.010 A 
ATOM      9  C   UNL     1      -4.718  -3.072  -2.775  0.00  0.00    +0.001 A 
ATOM     10  C   UNL     1      -5.985  -3.011  -2.214  0.00  0.00    +0.002 A 
ATOM     11  C   UNL     1      -6.305  -3.779  -1.116  0.00  0.00    +0.026 A 
ATOM     12  C   UNL     1      -3.812  -7.116   1.707  0.00  0.00    +0.064 C 
BRANCH   5  13
ATOM     13  C   UNL     1      -6.529  -5.730   1.377  0.00  0.00    +0.158 C 
BRANCH  13  14
ATOM     14  C   UNL     1      -6.425  -4.857   2.602  0.00  0.00    -0.010 A 
ATOM     15  C   UNL     1      -5.537  -5.181   3.607  0.00  0.00    +0.006 A 
ATOM     16  C   UNL     1      -5.440  -4.382   4.732  0.00  0.00    +0.000 A 
ATOM     17  C   UNL     1      -6.231  -3.253   4.858  0.00  0.00    +0.001 A 
ATOM     18  C   UNL     1      -7.123  -2.918   3.860  0.00  0.00    +0.019 A 
ATOM     19  C   UNL     1      -7.222  -3.718   2.719  0.00  0.00    +0.057 A 
BRANCH  19  20
ATOM     20  C   UNL     1      -8.142  -3.373   1.677  0.00  0.00    +0.099 C 
ATOM     21  N   UNL     1      -8.871  -3.099   0.851  0.00  0.00    -0.191 NA
ENDBRANCH  19  20
ENDBRANCH  13  14
ENDBRANCH   5  13
ENDBRANCH   2   3
BRANCH   1  24
ATOM     22  C   UNL     1      -0.273  -2.932  -0.169  0.00  0.00    +0.253 C 
ATOM     23  O   UNL     1       0.859  -3.247  -0.472  0.00  0.00    -0.272 OA
ATOM     24  N   UNL     1      -1.263  -3.845  -0.219  0.00  0.00    -0.205 N 
ATOM     25  H   UNL     1      -2.178  -3.579  -0.039  0.00  0.00    +0.177 HD
BRANCH  22  26
ATOM     26  C   UNL     1      -0.572  -1.520   0.264  0.00  0.00    +0.163 C 
BRANCH  26  29
ATOM     27  C   UNL     1       0.195   0.683  -0.440  0.00  0.00    +0.245 C 
ATOM     28  O   UNL     1      -0.915   1.115  -0.196  0.00  0.00    -0.270 OA
ATOM     29  N   UNL     1       0.467  -0.622  -0.246  0.00  0.00    -0.300 N 
ATOM     30  H   UNL     1       1.352  -0.968  -0.444  0.00  0.00    +0.150 HD
BRANCH  27  35
ATOM     31  C   UNL     1       4.279   4.210  -2.440  0.00  0.00    +0.044 C 
ATOM     32  C   UNL     1       3.209   3.286  -1.917  0.00  0.00    -0.050 A 
ATOM     33  C   UNL     1       1.948   3.782  -1.636  0.00  0.00    +0.004 A 
ATOM     34  C   UNL     1       0.965   2.942  -1.156  0.00  0.00    +0.013 A 
ATOM     35  C   UNL     1       1.244   1.589  -0.955  0.00  0.00    +0.037 A 
ATOM     36  C   UNL     1       2.519   1.097  -1.235  0.00  0.00    +0.013 A 
ATOM     37  C   UNL     1       3.492   1.946  -1.720  0.00  0.00    +0.004 A 
ENDBRANCH  27  35
ENDBRANCH  26  29
BRANCH  26  38
ATOM     38  C   UNL     1      -0.602  -1.450   1.792  0.00  0.00    +0.012 C 
ATOM     39  C   UNL     1      -0.967  -0.031   2.231  0.00  0.00    +0.009 C 
ATOM     40  C   UNL     1      -1.644  -2.434   2.327  0.00  0.00    +0.009 C 
ENDBRANCH  26  38
ENDBRANCH  22  26
ENDBRANCH   1  24
TORSDOF 9
