REMARK  Name = ZINC08846809
REMARK  9 active torsions:
REMARK  status: ('A' for Active; 'I' for Inactive)
REMARK    1  A    between atoms: C_1  and  C_2
REMARK    2  A    between atoms: C_3  and  C_17
REMARK    3  A    between atoms: C_6  and  O_12
REMARK    4  A    between atoms: O_12  and  C_13
REMARK    5  A    between atoms: C_17  and  C_18
REMARK    6  A    between atoms: C_18  and  N_19
REMARK    7  A    between atoms: N_19  and  C_20
REMARK    8  A    between atoms: C_23  and  C_29
REMARK    9  A    between atoms: C_25  and  N_26
REMARK                            x       y       z     vdW  Elec       q    Type
REMARK                         _______ _______ _______ _____ _____    ______ ____
ROOT
ATOM      1  C   UNL     1       3.484  -1.253   0.168  0.00  0.00    +0.056 C 
ENDROOT
BRANCH   1   4
ATOM      2  C   UNL     1       3.451  -2.846   2.831  0.00  0.00    +0.063 C 
ATOM      3  C   UNL     1       3.327  -3.444   1.454  0.00  0.00    +0.017 A 
ATOM      4  C   UNL     1       3.343  -2.747   0.307  0.00  0.00    -0.018 A 
ATOM      5  C   UNL     1       3.202  -3.714  -0.785  0.00  0.00    +0.007 A 
ATOM      6  C   UNL     1       3.156  -3.604  -2.177  0.00  0.00    +0.056 A 
ATOM      7  C   UNL     1       3.013  -4.741  -2.946  0.00  0.00    +0.131 A 
ATOM      8  C   UNL     1       2.915  -5.991  -2.339  0.00  0.00    +0.048 A 
ATOM      9  C   UNL     1       2.959  -6.111  -0.969  0.00  0.00    +0.030 A 
ATOM     10  C   UNL     1       3.103  -4.977  -0.176  0.00  0.00    +0.047 A 
ATOM     11  N   UNL     1       3.179  -4.778   1.187  0.00  0.00    -0.358 N 
ATOM     12  H   UNL     1       3.138  -5.479   1.856  0.00  0.00    +0.166 HD
BRANCH   7  13
ATOM     13  O   UNL     1       2.967  -4.641  -4.301  0.00  0.00    -0.406 OA
BRANCH  13  14
ATOM     14  C   UNL     1       2.817  -5.856  -5.037  0.00  0.00    +0.575 C 
ATOM     15  F   UNL     1       1.623  -6.482  -4.666  0.00  0.00    -0.133 F 
ATOM     16  F   UNL     1       2.789  -5.572  -6.407  0.00  0.00    -0.133 F 
ATOM     17  F   UNL     1       3.894  -6.705  -4.760  0.00  0.00    -0.133 F 
ENDBRANCH  13  14
ENDBRANCH   7  13
ENDBRANCH   1   4
BRANCH   1  18
ATOM     18  C   UNL     1       2.098  -0.606   0.180  0.00  0.00    +0.106 C 
BRANCH  18  19
ATOM     19  N   UNL     1       2.235   0.846   0.045  0.00  0.00    -0.342 N 
ATOM     20  H   UNL     1       3.116   1.245  -0.034  0.00  0.00    +0.146 HD
BRANCH  19  21
ATOM     21  C   UNL     1       1.098   1.657   0.031  0.00  0.00    +0.058 A 
ATOM     22  C   UNL     1      -0.167   1.082   0.023  0.00  0.00    +0.026 A 
ATOM     23  C   UNL     1      -1.289   1.887   0.002  0.00  0.00    +0.014 A 
ATOM     24  C   UNL     1      -1.155   3.263   0.001  0.00  0.00    +0.057 A 
ATOM     25  C   UNL     1       0.102   3.839   0.009  0.00  0.00    +0.047 A 
ATOM     26  C   UNL     1       1.229   3.040   0.024  0.00  0.00    +0.147 A 
BRANCH  24  27
ATOM     27  C   UNL     1      -2.382   4.138  -0.016  0.00  0.00    +0.417 C 
ATOM     28  F   UNL     1      -2.749   4.401  -1.340  0.00  0.00    -0.166 F 
ATOM     29  F   UNL     1      -3.430   3.483   0.638  0.00  0.00    -0.166 F 
ATOM     30  F   UNL     1      -2.104   5.343   0.639  0.00  0.00    -0.166 F 
ENDBRANCH  24  27
BRANCH  26  31
ATOM     31  N   UNL     1       2.575   3.656   0.032  0.00  0.00    +0.058 N 
ATOM     32  O   UNL     1       2.690   4.864   0.139  0.00  0.00    -0.126 OA
ATOM     33  O   UNL     1       3.566   2.956  -0.067  0.00  0.00    -0.126 OA
ENDBRANCH  26  31
ENDBRANCH  19  21
ENDBRANCH  18  19
ENDBRANCH   1  18
TORSDOF 8
