REMARK  Name = ZINC58867000
REMARK  6 active torsions:
REMARK  status: ('A' for Active; 'I' for Inactive)
REMARK    1  A    between atoms: C_3  and  N_16
REMARK    2  A    between atoms: C_6  and  C_7
REMARK    3  A    between atoms: N_8  and  C_9
REMARK    4  A    between atoms: C_12  and  O_15
REMARK    5  A    between atoms: C_17  and  C_18
REMARK    6  A    between atoms: C_21  and  O_24
REMARK                            x       y       z     vdW  Elec       q    Type
REMARK                         _______ _______ _______ _____ _____    ______ ____
ROOT
ATOM      1  C   UNL     1      -0.017   1.396   0.010  0.00  0.00    +0.011 A 
ATOM      2  C   UNL     1       1.156   2.094   0.002  0.00  0.00    +0.028 A 
ATOM      3  C   UNL     1       2.377   1.411  -0.013  0.00  0.00    +0.064 A 
ATOM      4  C   UNL     1       2.397   0.012  -0.021  0.00  0.00    +0.028 A 
ATOM      5  C   UNL     1       1.224  -0.687  -0.013  0.00  0.00    +0.011 A 
ATOM      6  C   UNL     1       0.002  -0.004   0.002  0.00  0.00    -0.007 A 
ENDROOT
BRANCH   6   7
ATOM      7  C   UNL     1      -1.261  -0.757   0.010  0.00  0.00    +0.119 C 
ATOM      8  N   UNL     1      -1.243  -2.060   0.003  0.00  0.00    -0.255 NA
BRANCH   8   9
ATOM      9  C   UNL     1      -2.418  -2.761   0.010  0.00  0.00    +0.064 A 
ATOM     10  C   UNL     1      -3.451  -2.386   0.873  0.00  0.00    +0.031 A 
ATOM     11  C   UNL     1      -4.633  -3.095   0.877  0.00  0.00    +0.047 A 
ATOM     12  C   UNL     1      -4.798  -4.180   0.026  0.00  0.00    +0.117 A 
ATOM     13  C   UNL     1      -3.774  -4.556  -0.833  0.00  0.00    +0.047 A 
ATOM     14  C   UNL     1      -2.590  -3.849  -0.849  0.00  0.00    +0.031 A 
BRANCH  12  15
ATOM     15  O   UNL     1      -5.965  -4.876   0.034  0.00  0.00    -0.507 OA
ATOM     16  H   UNL     1      -6.628  -4.540  -0.585  0.00  0.00    +0.292 HD
ENDBRANCH  12  15
ENDBRANCH   8   9
ENDBRANCH   6   7
BRANCH   3  17
ATOM     17  N   UNL     1       3.550   2.110  -0.021  0.00  0.00    -0.255 NA
ATOM     18  C   UNL     1       4.527   1.754   0.767  0.00  0.00    +0.119 C 
BRANCH  18  19
ATOM     19  C   UNL     1       5.790   2.506   0.758  0.00  0.00    -0.007 A 
ATOM     20  C   UNL     1       5.945   3.609  -0.090  0.00  0.00    +0.013 A 
ATOM     21  C   UNL     1       7.129   4.311  -0.094  0.00  0.00    +0.046 A 
ATOM     22  C   UNL     1       8.171   3.925   0.742  0.00  0.00    +0.117 A 
ATOM     23  C   UNL     1       8.023   2.831   1.587  0.00  0.00    +0.046 A 
ATOM     24  C   UNL     1       6.840   2.126   1.603  0.00  0.00    +0.013 A 
BRANCH  22  25
ATOM     25  O   UNL     1       9.337   4.620   0.734  0.00  0.00    -0.507 OA
ATOM     26  H   UNL     1       9.363   5.352   1.365  0.00  0.00    +0.292 HD
ENDBRANCH  22  25
ENDBRANCH  18  19
ENDBRANCH   3  17
TORSDOF 6
