REMARK  Name = ZINC21247338
REMARK  7 active torsions:
REMARK  status: ('A' for Active; 'I' for Inactive)
REMARK    1  A    between atoms: C_1  and  C_2
REMARK    2  A    between atoms: C_2  and  O_3
REMARK    3  A    between atoms: O_3  and  C_4
REMARK    4  A    between atoms: C_7  and  C_10
REMARK    5  A    between atoms: C_15  and  C_21
REMARK    6  A    between atoms: C_24  and  C_30
REMARK    7  A    between atoms: C_25  and  N_27
REMARK                            x       y       z     vdW  Elec       q    Type
REMARK                         _______ _______ _______ _____ _____    ______ ____
ROOT
ATOM      1  C   UNL     1       2.476   3.915  -0.853  0.00  0.00    +0.032 C 
ATOM      2  C   UNL     1       2.652   5.032  -1.884  0.00  0.00    +0.059 C 
ATOM      3  C   UNL     1       3.900   5.819  -1.570  0.00  0.00    +0.018 C 
ATOM      4  C   UNL     1       4.329   5.957  -0.298  0.00  0.00    +0.020 C 
ATOM      5  C   UNL     1       5.575   6.761  -0.006  0.00  0.00    +0.063 C 
ATOM      6  C   UNL     1       5.665   7.931  -0.987  0.00  0.00    +0.109 C 
ATOM      7  C   UNL     1       5.439   7.420  -2.387  0.00  0.00    +0.218 C 
ATOM      8  O   UNL     1       6.022   7.931  -3.319  0.00  0.00    -0.275 OA
ATOM      9  N   UNL     1       4.593   6.398  -2.603  0.00  0.00    -0.289 N 
ATOM     10  C   UNL     1       3.640   5.367   0.774  0.00  0.00    +0.162 C 
ATOM     11  O   UNL     1       4.051   5.522   1.907  0.00  0.00    -0.292 OA
ATOM     12  C   UNL     1       2.400   4.545   0.541  0.00  0.00    +0.088 C 
ATOM     13  H   UNL     1       4.460   6.027  -3.630  0.00  0.00    +0.155 HD
ENDROOT
BRANCH   5  14
ATOM     14  C   UNL     1       6.788   5.881  -0.160  0.00  0.00    -0.037 A 
ATOM     15  C   UNL     1       7.054   5.274  -1.374  0.00  0.00    +0.004 A 
ATOM     16  C   UNL     1       8.169   4.471  -1.516  0.00  0.00    +0.006 A 
ATOM     17  C   UNL     1       9.015   4.266  -0.442  0.00  0.00    -0.020 A 
ATOM     18  C   UNL     1       8.747   4.867   0.774  0.00  0.00    +0.129 A 
ATOM     19  C   UNL     1       7.633   5.675   0.914  0.00  0.00    +0.037 A 
ATOM     20  C   UNL     1      10.229   3.386  -0.595  0.00  0.00    +0.046 C 
BRANCH  18  21
ATOM     21  N   UNL     1       9.652   4.647   1.924  0.00  0.00    +0.057 N 
ATOM     22  O   UNL     1       9.483   5.267   2.959  0.00  0.00    -0.126 OA
ATOM     23  O   UNL     1      10.565   3.846   1.836  0.00  0.00    -0.126 OA
ENDBRANCH  18  21
ENDBRANCH   5  14
BRANCH   1  27
ATOM     24  C   UNL     1      -1.135   1.779  -1.665  0.00  0.00    +0.121 A 
ATOM     25  C   UNL     1       0.081   1.111  -1.658  0.00  0.00    +0.046 A 
ATOM     26  C   UNL     1       1.247   1.804  -1.396  0.00  0.00    +0.007 A 
ATOM     27  C   UNL     1       1.202   3.162  -1.137  0.00  0.00    -0.043 A 
ATOM     28  C   UNL     1      -0.009   3.829  -1.139  0.00  0.00    +0.007 A 
ATOM     29  C   UNL     1      -1.178   3.140  -1.400  0.00  0.00    +0.046 A 
BRANCH  24  30
ATOM     30  O   UNL     1      -2.283   1.100  -1.927  0.00  0.00    -0.492 OA
BRANCH  30  32
ATOM     31  C   UNL     1      -4.674   0.925  -2.231  0.00  0.00    +0.048 C 
ATOM     32  C   UNL     1      -3.498   1.852  -1.917  0.00  0.00    +0.225 C 
ENDBRANCH  30  32
ENDBRANCH  24  30
ENDBRANCH   1  27
TORSDOF 5
