REMARK  Name = ZINC08703004
REMARK  7 active torsions:
REMARK  status: ('A' for Active; 'I' for Inactive)
REMARK    1  A    between atoms: C_1  and  C_2
REMARK    2  A    between atoms: C_8  and  C_12
REMARK    3  A    between atoms: C_12  and  C_13
REMARK    4  A    between atoms: C_13  and  N_14
REMARK    5  A    between atoms: N_14  and  C_15
REMARK    6  A    between atoms: C_18  and  N_23
REMARK    7  A    between atoms: C_20  and  C_21
REMARK                            x       y       z     vdW  Elec       q    Type
REMARK                         _______ _______ _______ _____ _____    ______ ____
ROOT
ATOM      1  C   UNL     1       1.242   2.136   0.002  0.00  0.00    +0.106 C 
ENDROOT
BRANCH   1   2
ATOM      2  N   UNL     1      -0.017   1.386   0.010  0.00  0.00    -0.343 N 
ATOM      3  H   UNL     1      -0.863   1.860   0.016  0.00  0.00    +0.146 HD
BRANCH   2   4
ATOM      4  C   UNL     1       0.002  -0.004   0.002  0.00  0.00    +0.045 A 
ATOM      5  C   UNL     1       1.212  -0.686  -0.013  0.00  0.00    +0.026 A 
ATOM      6  C   UNL     1       1.228  -2.066  -0.020  0.00  0.00    +0.034 A 
ATOM      7  C   UNL     1       0.042  -2.781  -0.011  0.00  0.00    +0.128 A 
ATOM      8  C   UNL     1      -1.168  -2.123   0.003  0.00  0.00    +0.053 A 
ATOM      9  C   UNL     1      -1.202  -0.726   0.015  0.00  0.00    +0.075 A 
BRANCH   7  10
ATOM     10  N   UNL     1       0.075  -4.261  -0.018  0.00  0.00    +0.056 N 
ATOM     11  O   UNL     1       1.143  -4.847  -0.030  0.00  0.00    -0.126 OA
ATOM     12  O   UNL     1      -0.966  -4.894  -0.010  0.00  0.00    -0.126 OA
ENDBRANCH   7  10
BRANCH   9  13
ATOM     13  C   UNL     1      -2.456  -0.035   0.037  0.00  0.00    +0.101 C 
ATOM     14  N   UNL     1      -3.451   0.513   0.053  0.00  0.00    -0.191 NA
ENDBRANCH   9  13
ENDBRANCH   2   4
ENDBRANCH   1   2
BRANCH   1  15
ATOM     15  C   UNL     1       0.942   3.636   0.013  0.00  0.00    +0.056 C 
BRANCH  15  23
ATOM     16  C   UNL     1       3.655   4.809  -4.894  0.00  0.00    +0.044 C 
ATOM     17  C   UNL     1       3.817   5.040  -3.413  0.00  0.00    -0.050 A 
ATOM     18  C   UNL     1       4.919   5.740  -2.942  0.00  0.00    +0.005 A 
ATOM     19  C   UNL     1       5.086   5.962  -1.592  0.00  0.00    +0.026 A 
ATOM     20  C   UNL     1       4.141   5.480  -0.691  0.00  0.00    +0.047 A 
ATOM     21  C   UNL     1       3.030   4.766  -1.174  0.00  0.00    +0.003 A 
ATOM     22  C   UNL     1       2.877   4.559  -2.546  0.00  0.00    +0.013 A 
ATOM     23  C   UNL     1       2.237   4.407   0.004  0.00  0.00    -0.021 A 
ATOM     24  C   UNL     1       2.885   4.891   1.076  0.00  0.00    +0.087 A 
ATOM     25  N   UNL     1       4.025   5.535   0.680  0.00  0.00    -0.360 N 
ATOM     26  H   UNL     1       4.658   5.965   1.276  0.00  0.00    +0.165 HD
ENDBRANCH  15  23
ENDBRANCH   1  15
TORSDOF 6
