REMARK  Name = ZINC05890698
REMARK  5 active torsions:
REMARK  status: ('A' for Active; 'I' for Inactive)
REMARK    1  A    between atoms: C_1  and  C_2
REMARK    2  A    between atoms: N_4  and  C_5
REMARK    3  A    between atoms: C_8  and  C_11
REMARK    4  A    between atoms: C_14  and  C_24
REMARK    5  A    between atoms: C_27  and  N_30
REMARK                            x       y       z     vdW  Elec       q    Type
REMARK                         _______ _______ _______ _____ _____    ______ ____
ROOT
ATOM      1  C   UNL     1      -2.898   3.275   7.048  0.00  0.00    +0.119 C 
ATOM      2  C   UNL     1      -3.567   4.594   6.783  0.00  0.00    +0.077 C 
ATOM      3  C   UNL     1      -4.095   5.225   8.022  0.00  0.00    +0.051 C 
ATOM      4  N   UNL     1      -4.628   4.685   9.004  0.00  0.00    -0.250 NA
ATOM      5  C   UNL     1      -4.892   3.511   9.581  0.00  0.00    +0.080 A 
ATOM      6  C   UNL     1      -5.426   3.601  10.888  0.00  0.00    +0.029 A 
ATOM      7  C   UNL     1      -5.715   2.481  11.624  0.00  0.00    +0.002 A 
ATOM      8  C   UNL     1      -5.484   1.228  11.083  0.00  0.00    +0.001 A 
ATOM      9  C   UNL     1      -4.973   1.123   9.810  0.00  0.00    +0.019 A 
ATOM     10  C   UNL     1      -4.676   2.248   9.044  0.00  0.00    +0.065 A 
ATOM     11  S   UNL     1      -4.045   1.960   7.438  0.00  0.00    +0.064 S 
ATOM     12  O   UNL     1      -5.186   2.061   6.598  0.00  0.00    -0.251 OA
ENDROOT
BRANCH   1  16
ATOM     13  C   UNL     1      -0.658   2.154   3.586  0.00  0.00    +0.033 A 
ATOM     14  C   UNL     1      -2.040   2.267   3.514  0.00  0.00    +0.023 A 
ATOM     15  C   UNL     1      -2.762   2.624   4.636  0.00  0.00    +0.006 A 
ATOM     16  C   UNL     1      -2.108   2.880   5.827  0.00  0.00    -0.031 A 
ATOM     17  C   UNL     1      -0.732   2.774   5.901  0.00  0.00    +0.006 A 
ATOM     18  C   UNL     1      -0.005   2.412   4.784  0.00  0.00    +0.023 A 
BRANCH  13  22
ATOM     19  C   UNL     1       1.915   0.551   1.353  0.00  0.00    +0.109 C 
ATOM     20  C   UNL     1       1.178   1.024   2.580  0.00  0.00    +0.214 C 
ATOM     21  O   UNL     1       1.578   0.716   3.684  0.00  0.00    -0.276 OA
ATOM     22  N   UNL     1       0.076   1.788   2.452  0.00  0.00    -0.286 N 
ATOM     23  H   UNL     1      -0.209   2.084   1.573  0.00  0.00    +0.155 HD
ENDBRANCH  13  22
ENDBRANCH   1  16
BRANCH   3  24
ATOM     24  C   UNL     1      -3.968   6.691   8.094  0.00  0.00    -0.004 A 
ATOM     25  C   UNL     1      -4.323   7.371   9.262  0.00  0.00    +0.012 A 
ATOM     26  C   UNL     1      -4.197   8.743   9.323  0.00  0.00    +0.033 A 
ATOM     27  C   UNL     1      -3.731   9.447   8.227  0.00  0.00    +0.126 A 
ATOM     28  C   UNL     1      -3.382   8.782   7.065  0.00  0.00    +0.033 A 
ATOM     29  C   UNL     1      -3.498   7.410   6.990  0.00  0.00    +0.012 A 
BRANCH  27  30
ATOM     30  N   UNL     1      -3.603  10.920   8.299  0.00  0.00    +0.056 N 
ATOM     31  O   UNL     1      -3.193  11.543   7.336  0.00  0.00    -0.126 OA
ATOM     32  O   UNL     1      -3.909  11.509   9.320  0.00  0.00    -0.126 OA
ENDBRANCH  27  30
ENDBRANCH   3  24
TORSDOF 4
