REMARK  Name = ZINC40035818
REMARK  12 active torsions:
REMARK  status: ('A' for Active; 'I' for Inactive)
REMARK    1  A    between atoms: C_1  and  C_2
REMARK    2  A    between atoms: C_2  and  C_3
REMARK    3  A    between atoms: C_3  and  C_4
REMARK    4  A    between atoms: C_4  and  C_5
REMARK    5  A    between atoms: C_5  and  O_6
REMARK    6  A    between atoms: O_6  and  C_7
REMARK    7  A    between atoms: C_11  and  C_13
REMARK    8  A    between atoms: N_14  and  N_15
REMARK    9  A    between atoms: N_22  and  C_23
REMARK   10  A    between atoms: C_29  and  C_37
REMARK   11  A    between atoms: C_29  and  C_38
REMARK   12  A    between atoms: C_38  and  C_39
REMARK                            x       y       z     vdW  Elec       q    Type
REMARK                         _______ _______ _______ _____ _____    ______ ____
ROOT
ATOM      1  N   UNL     1       4.120  -9.805   5.754  0.00  0.00    -0.206 N 
ATOM      2  C   UNL     1       4.875 -10.453   6.697  0.00  0.00    +0.223 A 
ATOM      3  N   UNL     1       5.215  -9.815   7.799  0.00  0.00    -0.214 NA
ATOM      4  C   UNL     1       5.950 -10.416   8.741  0.00  0.00    +0.084 A 
ATOM      5  C   UNL     1       6.361 -11.730   8.567  0.00  0.00    +0.050 A 
ATOM      6  C   UNL     1       5.997 -12.401   7.393  0.00  0.00    +0.264 A 
ATOM      7  O   UNL     1       6.343 -13.556   7.203  0.00  0.00    -0.267 OA
ATOM      8  N   UNL     1       5.253 -11.745   6.477  0.00  0.00    -0.248 N 
ATOM      9  C   UNL     1       7.174 -12.416   9.628  0.00  0.00    +0.004 C 
ATOM     10  C   UNL     1       8.137 -11.432  10.287  0.00  0.00    +0.047 C 
ATOM     11  C   UNL     1       7.407 -10.194  10.734  0.00  0.00    -0.037 A 
ATOM     12  C   UNL     1       6.344  -9.700   9.975  0.00  0.00    +0.004 A 
ATOM     13  C   UNL     1       5.671  -8.553  10.382  0.00  0.00    +0.010 A 
ATOM     14  C   UNL     1       6.057  -7.908  11.541  0.00  0.00    +0.001 A 
ATOM     15  C   UNL     1       7.107  -8.402  12.293  0.00  0.00    +0.000 A 
ATOM     16  C   UNL     1       7.781  -9.542  11.890  0.00  0.00    +0.004 A 
ATOM     17  C   UNL     1       7.973 -13.555   8.993  0.00  0.00    +0.016 C 
ATOM     18  H   UNL     1       3.926 -10.237   4.907  0.00  0.00    +0.177 HD
ENDROOT
BRANCH   8  19
ATOM     19  C   UNL     1       4.873 -12.391   5.294  0.00  0.00    +0.053 A 
ATOM     20  C   UNL     1       5.688 -12.326   4.172  0.00  0.00    +0.026 A 
ATOM     21  C   UNL     1       5.310 -12.964   3.007  0.00  0.00    +0.002 A 
ATOM     22  C   UNL     1       4.121 -13.668   2.957  0.00  0.00    +0.000 A 
ATOM     23  C   UNL     1       3.306 -13.735   4.073  0.00  0.00    +0.002 A 
ATOM     24  C   UNL     1       3.682 -13.103   5.243  0.00  0.00    +0.026 A 
ENDBRANCH   8  19
BRANCH   1  26
ATOM     25  C   UNL     1       2.912  -7.906   5.120  0.00  0.00    +0.138 C 
ATOM     26  N   UNL     1       3.627  -8.519   6.013  0.00  0.00    -0.188 NA
BRANCH  25  31
ATOM     27  C   UNL     1       1.141  -4.620   4.697  0.00  0.00    +0.121 A 
ATOM     28  C   UNL     1       1.422  -4.008   5.912  0.00  0.00    +0.045 A 
ATOM     29  C   UNL     1       2.183  -4.662   6.863  0.00  0.00    +0.004 A 
ATOM     30  C   UNL     1       2.670  -5.928   6.611  0.00  0.00    +0.010 A 
ATOM     31  C   UNL     1       2.393  -6.553   5.393  0.00  0.00    -0.002 A 
ATOM     32  C   UNL     1       1.619  -5.893   4.436  0.00  0.00    +0.055 A 
BRANCH  27  33
ATOM     33  O   UNL     1       0.392  -3.973   3.767  0.00  0.00    -0.492 OA
BRANCH  33  34
ATOM     34  C   UNL     1      -0.069  -2.662   4.103  0.00  0.00    +0.229 C 
BRANCH  34  35
ATOM     35  C   UNL     1      -0.889  -2.097   2.942  0.00  0.00    +0.041 C 
BRANCH  35  36
ATOM     36  C   UNL     1      -1.383  -0.694   3.302  0.00  0.00    +0.003 C 
BRANCH  36  38
ATOM     37  C   UNL     1      -2.696   1.275   2.501  0.00  0.00    +0.004 C 
ATOM     38  C   UNL     1      -2.203  -0.128   2.141  0.00  0.00    -0.003 C 
ENDBRANCH  36  38
ENDBRANCH  35  36
ENDBRANCH  34  35
ENDBRANCH  33  34
ENDBRANCH  27  33
ENDBRANCH  25  31
ENDBRANCH   1  26
BRANCH   9  39
ATOM     39  C   UNL     1       6.235 -12.990  10.691  0.00  0.00    +0.008 C 
ATOM     40  C   UNL     1       5.285 -13.998  10.040  0.00  0.00    +0.005 C 
ENDBRANCH   9  39
TORSDOF 9
