REMARK  Name = ZINC01433749
REMARK  8 active torsions:
REMARK  status: ('A' for Active; 'I' for Inactive)
REMARK    1  A    between atoms: C_1  and  O_2
REMARK    2  A    between atoms: O_2  and  C_3
REMARK    3  A    between atoms: C_8  and  O_9
REMARK    4  A    between atoms: O_9  and  C_10
REMARK    5  A    between atoms: C_10  and  C_11
REMARK    6  A    between atoms: N_13  and  N_14
REMARK    7  A    between atoms: C_15  and  C_16
REMARK    8  A    between atoms: C_21  and  O_22
REMARK                            x       y       z     vdW  Elec       q    Type
REMARK                         _______ _______ _______ _____ _____    ______ ____
ROOT
ATOM      1  C   UNL     1       3.439   6.306   0.003  0.00  0.00    +0.270 C 
ATOM      2  O   UNL     1       4.495   5.709  -0.010  0.00  0.00    -0.270 OA
ATOM      3  N   UNL     1       2.278   5.622   0.011  0.00  0.00    -0.204 N 
ATOM      4  H   UNL     1       1.434   6.099   0.021  0.00  0.00    +0.177 HD
ENDROOT
BRANCH   3   5
ATOM      5  N   UNL     1       2.290   4.221   0.003  0.00  0.00    -0.188 NA
ATOM      6  C   UNL     1       1.172   3.562   0.010  0.00  0.00    +0.142 C 
BRANCH   6   7
ATOM      7  C   UNL     1       1.185   2.088   0.002  0.00  0.00    +0.038 A 
ATOM      8  C   UNL     1      -0.017   1.376   0.010  0.00  0.00    +0.033 A 
ATOM      9  C   UNL     1       0.002  -0.004   0.002  0.00  0.00    +0.043 A 
ATOM     10  C   UNL     1       1.208  -0.686  -0.013  0.00  0.00    +0.039 A 
ATOM     11  C   UNL     1       2.404   0.009  -0.021  0.00  0.00    +0.061 A 
ATOM     12  C   UNL     1       2.402   1.395  -0.013  0.00  0.00    +0.139 A 
ATOM     13 BR   UNL     1       4.043  -0.933  -0.043  0.00  0.00    -0.046 Br
ATOM     14 CL   UNL     1      -1.491  -0.889   0.012  0.00  0.00    -0.083 Cl
BRANCH  12  15
ATOM     15  O   UNL     1       3.576   2.078  -0.021  0.00  0.00    -0.505 OA
ATOM     16  H   UNL     1       3.908   2.281  -0.906  0.00  0.00    +0.292 HD
ENDBRANCH  12  15
ENDBRANCH   6   7
ENDBRANCH   3   5
BRANCH   1  17
ATOM     17  C   UNL     1       3.426   7.813   0.011  0.00  0.00    +0.326 C 
BRANCH  17  18
ATOM     18  O   UNL     1       4.769   8.301   0.001  0.00  0.00    -0.479 OA
BRANCH  18  24
ATOM     19  C   UNL     1       6.216  10.195   0.003  0.00  0.00    +0.163 A 
ATOM     20  C   UNL     1       6.381  11.571   0.003  0.00  0.00    +0.064 A 
ATOM     21  C   UNL     1       5.274  12.400   0.019  0.00  0.00    +0.022 A 
ATOM     22  C   UNL     1       4.001  11.858   0.028  0.00  0.00    +0.019 A 
ATOM     23  C   UNL     1       3.830  10.486   0.022  0.00  0.00    +0.050 A 
ATOM     24  C   UNL     1       4.936   9.651   0.007  0.00  0.00    +0.163 A 
ATOM     25 BR   UNL     1       5.500  14.277   0.028  0.00  0.00    -0.050 Br
BRANCH  19  27
ATOM     26  C   UNL     1       8.587  10.008  -0.009  0.00  0.00    +0.277 C 
ATOM     27  O   UNL     1       7.304   9.379  -0.006  0.00  0.00    -0.491 OA
ENDBRANCH  19  27
ENDBRANCH  18  24
ENDBRANCH  17  18
ENDBRANCH   1  17
TORSDOF 7
