REMARK  Name = ZINC12401845
REMARK  11 active torsions:
REMARK  status: ('A' for Active; 'I' for Inactive)
REMARK    1  A    between atoms: C_1  and  C_2
REMARK    2  A    between atoms: C_2  and  C_4
REMARK    3  A    between atoms: C_2  and  N_37
REMARK    4  A    between atoms: C_15  and  O_33
REMARK    5  A    between atoms: C_19  and  C_32
REMARK    6  A    between atoms: C_24  and  C_31
REMARK    7  A    between atoms: C_25  and  C_27
REMARK    8  A    between atoms: C_27  and  C_30
REMARK    9  A    between atoms: N_28  and  O_29
REMARK   10  A    between atoms: O_33  and  C_34
REMARK   11  A    between atoms: C_34  and  C_36
REMARK                            x       y       z     vdW  Elec       q    Type
REMARK                         _______ _______ _______ _____ _____    ______ ____
ROOT
ATOM      1  C   UNL     1       1.704   0.317  -1.328  0.00  0.00    +0.028 C 
ATOM      2  C   UNL     1       0.180   0.526  -1.320  0.00  0.00    +0.010 C 
ATOM      3  C   UNL     1      -0.102   1.798  -0.482  0.00  0.00    -0.000 C 
ATOM      4  C   UNL     1      -0.530   2.913  -1.429  0.00  0.00    +0.000 C 
ATOM      5  C   UNL     1       0.336   2.949  -2.686  0.00  0.00    +0.031 C 
ATOM      6  C   UNL     1      -0.102   4.095  -3.556  0.00  0.00    -0.027 C 
ATOM      7  C   UNL     1      -0.681   5.161  -3.088  0.00  0.00    -0.064 C 
ATOM      8  C   UNL     1      -1.045   6.263  -4.069  0.00  0.00    +0.075 C 
ATOM      9  C   UNL     1      -0.433   7.572  -3.561  0.00  0.00    +0.180 C 
ATOM     10  C   UNL     1      -0.920   7.843  -2.137  0.00  0.00    +0.046 C 
ATOM     11  C   UNL     1      -0.448   6.735  -1.197  0.00  0.00    +0.015 C 
ATOM     12  C   UNL     1      -0.996   5.376  -1.638  0.00  0.00    -0.008 C 
ATOM     13  C   UNL     1      -0.463   4.274  -0.738  0.00  0.00    +0.003 C 
ATOM     14  C   UNL     1       0.990   4.543  -0.343  0.00  0.00    +0.005 C 
ATOM     15  C   UNL     1       1.412   3.510   0.695  0.00  0.00    +0.008 C 
ATOM     16  C   UNL     1       1.207   2.084   0.258  0.00  0.00    -0.021 C 
ATOM     17  C   UNL     1       2.325   1.556  -0.652  0.00  0.00    +0.048 C 
ATOM     18  C   UNL     1       1.215   1.215   1.534  0.00  0.00    +0.012 C 
ATOM     19  C   UNL     1      -2.521   5.400  -1.476  0.00  0.00    +0.016 C 
ENDROOT
BRANCH  17  20
ATOM     20  C   UNL     1       3.518   1.145   0.174  0.00  0.00    +0.058 C 
ATOM     21  N   UNL     1       3.370   0.852   1.411  0.00  0.00    -0.097 NA
ATOM     22  C   UNL     1       4.885   1.080  -0.457  0.00  0.00    +0.064 C 
BRANCH  21  23
ATOM     23  O   UNL     1       4.490   0.467   2.186  0.00  0.00    -0.409 OA
ATOM     24  H   UNL     1       4.279   0.265   3.108  0.00  0.00    +0.328 HD
ENDBRANCH  21  23
ENDBRANCH  17  20
BRANCH   1  26
ATOM     25  C   UNL     1       3.715  -0.208  -2.712  0.00  0.00    +0.038 C 
ATOM     26  C   UNL     1       2.232   0.164  -2.755  0.00  0.00    +0.170 C 
BRANCH  26  27
ATOM     27  N   UNL     1       1.482  -0.891  -3.441  0.00  0.00    +0.025 N 
ATOM     28  O   UNL     1       0.927  -0.654  -4.499  0.00  0.00    -0.131 OA
ATOM     29  O   UNL     1       1.415  -2.006  -2.955  0.00  0.00    -0.131 OA
ENDBRANCH  26  27
ENDBRANCH   1  26
BRANCH   9  30
ATOM     30  O   UNL     1      -0.835   8.664  -4.428  0.00  0.00    -0.461 OA
BRANCH  30  31
ATOM     31  C   UNL     1      -0.038   8.936  -5.474  0.00  0.00    +0.304 C 
ATOM     32  O   UNL     1       0.962   8.283  -5.657  0.00  0.00    -0.251 OA
ATOM     33  C   UNL     1      -0.390  10.057  -6.418  0.00  0.00    +0.136 C 
ENDBRANCH  30  31
ENDBRANCH   9  30
TORSDOF 6
