REMARK  Name = ZINC41257353
REMARK  4 active torsions:
REMARK  status: ('A' for Active; 'I' for Inactive)
REMARK    1  A    between atoms: C_3  and  C_6
REMARK    2  A    between atoms: C_6  and  C_8
REMARK    3  A    between atoms: C_6  and  N_10
REMARK    4  A    between atoms: N_18  and  C_19
REMARK                            x       y       z     vdW  Elec       q    Type
REMARK                         _______ _______ _______ _____ _____    ______ ____
ROOT
ATOM      1  N   UNL     1       4.888   1.557   0.638  0.00  0.00    -0.280 NA
ATOM      2  C   UNL     1       4.420   2.090   1.925  0.00  0.00    +0.105 C 
ATOM      3  C   UNL     1       4.788   1.109   3.044  0.00  0.00    +0.124 C 
ATOM      4  N   UNL     1       6.231   0.837   2.971  0.00  0.00    -0.283 N 
ATOM      5  C   UNL     1       6.798   0.430   1.677  0.00  0.00    +0.124 C 
ATOM      6  C   UNL     1       6.352   1.437   0.612  0.00  0.00    +0.105 C 
ATOM      7  C   UNL     1       7.013   0.957   4.062  0.00  0.00    +0.307 C 
ATOM      8  O   UNL     1       6.547   1.385   5.101  0.00  0.00    -0.252 OA
ATOM      9  N   UNL     1       8.312   0.602   4.003  0.00  0.00    -0.269 N 
ATOM     10  H   UNL     1       8.703   0.334   3.157  0.00  0.00    +0.156 HD
ENDROOT
BRANCH   9  11
ATOM     11  C   UNL     1       9.097   0.621   5.162  0.00  0.00    +0.035 A 
ATOM     12  C   UNL     1       8.529   0.316   6.392  0.00  0.00    +0.025 A 
ATOM     13  C   UNL     1       9.305   0.336   7.534  0.00  0.00    +0.022 A 
ATOM     14  C   UNL     1      10.648   0.659   7.453  0.00  0.00    +0.041 A 
ATOM     15  C   UNL     1      11.217   0.964   6.229  0.00  0.00    +0.022 A 
ATOM     16  C   UNL     1      10.446   0.940   5.083  0.00  0.00    +0.025 A 
ATOM     17 CL   UNL     1      11.622   0.683   8.891  0.00  0.00    -0.084 Cl
ENDBRANCH   9  11
BRANCH   1  18
ATOM     18  C   UNL     1       4.407   2.380  -0.479  0.00  0.00    +0.198 C 
BRANCH  18  21
ATOM     19  C   UNL     1       0.740   3.409  -0.544  0.00  0.00    +0.008 A 
ATOM     20  C   UNL     1       2.110   3.551  -0.661  0.00  0.00    +0.014 A 
ATOM     21  C   UNL     1       2.905   2.480  -0.419  0.00  0.00    +0.021 A 
ATOM     22  S   UNL     1       1.710   1.218  -0.010  0.00  0.00    -0.099 S 
ATOM     23  C   UNL     1       0.232   2.203  -0.190  0.00  0.00    +0.045 A 
ENDBRANCH  18  21
BRANCH  18  24
ATOM     24  C   UNL     1       4.807   1.760  -1.753  0.00  0.00    +0.087 C 
ATOM     25  N   UNL     1       5.115   1.282  -2.736  0.00  0.00    -0.195 NA
ENDBRANCH  18  24
ENDBRANCH   1  18
TORSDOF 4
