REMARK  Name = ZINC38479583
REMARK  6 active torsions:
REMARK  status: ('A' for Active; 'I' for Inactive)
REMARK    1  A    between atoms: C_4  and  C_7
REMARK    2  A    between atoms: C_8  and  C_9
REMARK    3  A    between atoms: C_9  and  S_10
REMARK    4  A    between atoms: S_10  and  C_11
REMARK    5  A    between atoms: N_14  and  C_18
REMARK    6  A    between atoms: C_18  and  C_19
REMARK                            x       y       z     vdW  Elec       q    Type
REMARK                         _______ _______ _______ _____ _____    ______ ____
ROOT
ATOM      1  C   UNL     1       6.792  -4.466   1.307  0.00  0.00    +0.107 A 
ATOM      2  C   UNL     1       7.282  -5.302   2.341  0.00  0.00    +0.004 A 
ATOM      3  C   UNL     1       8.477  -5.899   2.181  0.00  0.00    +0.029 A 
ATOM      4  N   UNL     1       9.186  -5.669   1.032  0.00  0.00    -0.293 N 
ATOM      5  C   UNL     1       8.696  -4.870   0.070  0.00  0.00    +0.350 A 
ATOM      6  O   UNL     1       9.345  -4.684  -0.946  0.00  0.00    -0.244 OA
ATOM      7  N   UNL     1       7.509  -4.282   0.208  0.00  0.00    -0.186 NA
ATOM      8  C   UNL     1       9.075  -6.822   3.208  0.00  0.00    +0.054 C 
ATOM      9  C   UNL     1       8.398  -6.629   4.564  0.00  0.00    +0.006 C 
ATOM     10  C   UNL     1       6.880  -6.707   4.360  0.00  0.00    +0.005 C 
ATOM     11  C   UNL     1       6.437  -5.475   3.574  0.00  0.00    +0.039 C 
ENDROOT
BRANCH   1  12
ATOM     12  S   UNL     1       5.226  -3.676   1.480  0.00  0.00    -0.101 S 
BRANCH  12  13
ATOM     13  C   UNL     1       5.033  -2.743  -0.063  0.00  0.00    +0.103 C 
BRANCH  13  15
ATOM     14  C   UNL     1       3.695  -0.685  -0.038  0.00  0.00    +0.004 C 
ATOM     15  C   UNL     1       3.716  -2.010  -0.046  0.00  0.00    -0.015 C 
BRANCH  14  19
ATOM     16  C   UNL     1      -0.017   1.379   0.010  0.00  0.00    +0.000 A 
ATOM     17  C   UNL     1       1.168   2.093   0.002  0.00  0.00    +0.001 A 
ATOM     18  C   UNL     1       2.377   1.429  -0.013  0.00  0.00    +0.008 A 
ATOM     19  C   UNL     1       2.403   0.034  -0.021  0.00  0.00    -0.025 A 
ATOM     20  C   UNL     1       1.204  -0.681  -0.013  0.00  0.00    +0.008 A 
ATOM     21  C   UNL     1       0.002  -0.004   0.002  0.00  0.00    +0.001 A 
ENDBRANCH  14  19
ENDBRANCH  13  15
ENDBRANCH  12  13
ENDBRANCH   1  12
BRANCH   4  22
ATOM     22  C   UNL     1      10.495  -6.302   0.850  0.00  0.00    +0.158 C 
BRANCH  22  23
ATOM     23  C   UNL     1      10.314  -7.659   0.167  0.00  0.00    +0.138 C 
ATOM     24  C   UNL     1      11.684  -8.362  -0.004  0.00  0.00    +0.035 C 
ATOM     25  C   UNL     1      11.246  -9.851  -0.072  0.00  0.00    +0.031 C 
ATOM     26  C   UNL     1      10.034  -9.879   0.885  0.00  0.00    +0.160 C 
ATOM     27  O   UNL     1       9.540  -8.538   1.000  0.00  0.00    -0.375 OA
ENDBRANCH  22  23
ENDBRANCH   4  22
TORSDOF 6
