REMARK  Name = ZINC32841114
REMARK  7 active torsions:
REMARK  status: ('A' for Active; 'I' for Inactive)
REMARK    1  A    between atoms: C_1  and  C_2
REMARK    2  A    between atoms: C_5  and  C_8
REMARK    3  A    between atoms: C_8  and  C_10
REMARK    4  A    between atoms: C_8  and  N_15
REMARK    5  A    between atoms: C_16  and  C_18
REMARK    6  A    between atoms: C_18  and  S_19
REMARK    7  A    between atoms: S_19  and  C_20
REMARK                            x       y       z     vdW  Elec       q    Type
REMARK                         _______ _______ _______ _____ _____    ______ ____
ROOT
ATOM      1  N   UNL     1       1.929  -2.490   0.859  0.00  0.00    -0.303 N 
ATOM      2  C   UNL     1       2.209  -2.483   2.177  0.00  0.00    +0.224 C 
ATOM      3  O   UNL     1       2.986  -1.669   2.628  0.00  0.00    -0.275 OA
ATOM      4  H   UNL     1       1.224  -3.229   0.450  0.00  0.00    +0.150 HD
ENDROOT
BRANCH   1   5
ATOM      5  C   UNL     1       2.565  -1.514  -0.030  0.00  0.00    +0.140 C 
BRANCH   5  10
ATOM      6  C   UNL     1       2.723  -3.623  -5.408  0.00  0.00    +0.044 C 
ATOM      7  C   UNL     1       2.682  -3.073  -4.005  0.00  0.00    -0.050 A 
ATOM      8  C   UNL     1       3.762  -2.370  -3.507  0.00  0.00    +0.004 A 
ATOM      9  C   UNL     1       3.724  -1.865  -2.220  0.00  0.00    +0.006 A 
ATOM     10  C   UNL     1       2.606  -2.064  -1.433  0.00  0.00    -0.022 A 
ATOM     11  C   UNL     1       1.527  -2.771  -1.930  0.00  0.00    +0.006 A 
ATOM     12  C   UNL     1       1.563  -3.271  -3.218  0.00  0.00    +0.004 A 
ENDBRANCH   5  10
BRANCH   5  13
ATOM     13  C   UNL     1       1.773  -0.232  -0.016  0.00  0.00    +0.014 A 
ATOM     14  C   UNL     1       2.220   1.048  -0.013  0.00  0.00    +0.013 A 
ATOM     15  C   UNL     1       1.300   2.079   0.001  0.00  0.00    +0.008 A 
ATOM     16  C   UNL     1      -0.022   1.781   0.012  0.00  0.00    +0.045 A 
ATOM     17  S   UNL     1       0.002  -0.004   0.002  0.00  0.00    -0.099 S 
ENDBRANCH   5  13
ENDBRANCH   1   5
BRANCH   2  18
ATOM     18  C   UNL     1       1.555  -3.487   3.091  0.00  0.00    +0.173 C 
BRANCH  18  19
ATOM     19  S   UNL     1       2.129  -3.223   4.787  0.00  0.00    -0.077 S 
BRANCH  19  20
ATOM     20  C   UNL     1       1.234  -4.494   5.615  0.00  0.00    +0.191 A 
ATOM     21  N   UNL     1       1.379  -4.645   6.927  0.00  0.00    -0.207 NA
ATOM     22  C   UNL     1       0.733  -5.580   7.602  0.00  0.00    +0.129 A 
ATOM     23  C   UNL     1      -0.148  -6.457   6.909  0.00  0.00    +0.047 A 
ATOM     24  C   UNL     1      -0.960  -7.550   7.419  0.00  0.00    +0.021 A 
ATOM     25  C   UNL     1      -1.724  -8.249   6.568  0.00  0.00    +0.048 A 
ATOM     26  S   UNL     1      -1.405  -7.480   4.992  0.00  0.00    -0.077 S 
ATOM     27  C   UNL     1      -0.253  -6.239   5.518  0.00  0.00    +0.114 A 
ATOM     28  N   UNL     1       0.423  -5.278   4.918  0.00  0.00    -0.215 NA
ATOM     29  N   UNL     1       0.911  -5.705   8.967  0.00  0.00    -0.343 N 
ATOM     30  H   UNL     1       0.371  -6.485   9.524  0.00  0.00    +0.144 HD
ATOM     31  H   UNL     1       1.593  -5.024   9.498  0.00  0.00    +0.144 HD
ENDBRANCH  19  20
ENDBRANCH  18  19
ENDBRANCH   2  18
TORSDOF 6
