REMARK  Name = ZINC63725965
REMARK  6 active torsions:
REMARK  status: ('A' for Active; 'I' for Inactive)
REMARK    1  A    between atoms: C_1  and  O_2
REMARK    2  A    between atoms: O_2  and  C_3
REMARK    3  A    between atoms: C_8  and  S_13
REMARK    4  A    between atoms: S_13  and  C_14
REMARK    5  A    between atoms: C_14  and  C_15
REMARK    6  A    between atoms: N_17  and  C_18
REMARK                            x       y       z     vdW  Elec       q    Type
REMARK                         _______ _______ _______ _____ _____    ______ ____
ROOT
ATOM      1  S   UNL     1      -5.920  -1.880   2.408  0.00  0.00    -0.106 S 
ENDROOT
BRANCH   1   7
ATOM      2  C   UNL     1      -0.830  -2.000  -0.430  0.00  0.00    +0.122 A 
ATOM      3  C   UNL     1      -0.599  -0.766   0.309  0.00  0.00    +0.048 A 
ATOM      4  C   UNL     1      -1.600  -0.105   0.920  0.00  0.00    +0.031 A 
ATOM      5  C   UNL     1      -2.972  -0.630   0.850  0.00  0.00    +0.061 A 
ATOM      6  N   UNL     1      -4.099  -0.201   1.340  0.00  0.00    -0.355 N 
ATOM      7  C   UNL     1      -5.145  -1.149   0.939  0.00  0.00    +0.236 C 
ATOM      8  N   UNL     1      -4.479  -2.191   0.149  0.00  0.00    -0.355 N 
ATOM      9  C   UNL     1      -3.209  -1.890   0.096  0.00  0.00    +0.064 A 
ATOM     10  C   UNL     1      -2.067  -2.544  -0.545  0.00  0.00    +0.073 A 
ATOM     11  H   UNL     1      -4.225   0.600   1.873  0.00  0.00    +0.162 HD
ATOM     12  H   UNL     1      -4.903  -2.962  -0.260  0.00  0.00    +0.162 HD
BRANCH   2  14
ATOM     13  C   UNL     1       1.503  -2.008  -0.875  0.00  0.00    +0.277 C 
ATOM     14  O   UNL     1       0.220  -2.619  -1.024  0.00  0.00    -0.495 OA
ENDBRANCH   2  14
ENDBRANCH   1   7
BRANCH   1  15
ATOM     15  C   UNL     1      -4.541  -2.668   3.284  0.00  0.00    +0.169 C 
BRANCH  15  16
ATOM     16  C   UNL     1      -5.054  -3.322   4.542  0.00  0.00    +0.227 C 
ATOM     17  O   UNL     1      -6.234  -3.262   4.819  0.00  0.00    -0.275 OA
ATOM     18  N   UNL     1      -4.202  -3.974   5.358  0.00  0.00    -0.280 N 
ATOM     19  H   UNL     1      -3.274  -4.085   5.101  0.00  0.00    +0.155 HD
BRANCH  18  20
ATOM     20  C   UNL     1      -4.658  -4.490   6.579  0.00  0.00    +0.105 A 
ATOM     21  C   UNL     1      -4.631  -3.702   7.723  0.00  0.00    +0.147 A 
ATOM     22  C   UNL     1      -5.082  -4.215   8.925  0.00  0.00    +0.040 A 
ATOM     23  C   UNL     1      -5.559  -5.511   8.990  0.00  0.00    +0.006 A 
ATOM     24  C   UNL     1      -5.588  -6.299   7.854  0.00  0.00    +0.040 A 
ATOM     25  C   UNL     1      -5.145  -5.790   6.647  0.00  0.00    +0.147 A 
ATOM     26  F   UNL     1      -5.179  -6.559   5.536  0.00  0.00    -0.203 F 
ATOM     27  F   UNL     1      -4.164  -2.436   7.660  0.00  0.00    -0.203 F 
ENDBRANCH  18  20
ENDBRANCH  15  16
ENDBRANCH   1  15
TORSDOF 5
