REMARK  Name = ZINC34702761
REMARK  4 active torsions:
REMARK  status: ('A' for Active; 'I' for Inactive)
REMARK    1  A    between atoms: C_4  and  C_7
REMARK    2  A    between atoms: C_9  and  C_25
REMARK    3  A    between atoms: C_14  and  C_16
REMARK    4  A    between atoms: C_19  and  N_22
REMARK                            x       y       z     vdW  Elec       q    Type
REMARK                         _______ _______ _______ _____ _____    ______ ____
ROOT
ATOM      1  C   UNL     1       3.694  -0.683  -0.037  0.00  0.00    +0.064 C 
ATOM      2  N   UNL     1       4.851  -0.123  -0.040  0.00  0.00    -0.262 NA
ATOM      3  C   UNL     1       5.924  -1.116  -0.048  0.00  0.00    +0.210 C 
ATOM      4  N   UNL     1       5.302  -2.448   0.028  0.00  0.00    -0.258 NA
ATOM      5  C   UNL     1       3.852  -2.185  -0.047  0.00  0.00    +0.130 C 
ATOM      6  C   UNL     1       4.626  -2.807  -1.222  0.00  0.00    +0.113 C 
ENDROOT
BRANCH   3   7
ATOM      7  C   UNL     1       6.723  -0.995  -1.320  0.00  0.00    +0.027 A 
ATOM      8  C   UNL     1       7.218  -2.129  -1.935  0.00  0.00    +0.010 A 
ATOM      9  C   UNL     1       7.951  -2.018  -3.102  0.00  0.00    +0.001 A 
ATOM     10  C   UNL     1       8.190  -0.774  -3.655  0.00  0.00    +0.003 A 
ATOM     11  C   UNL     1       7.695   0.361  -3.041  0.00  0.00    +0.039 A 
ATOM     12  C   UNL     1       6.956   0.252  -1.875  0.00  0.00    +0.130 A 
ATOM     13  F   UNL     1       6.468   1.360  -1.277  0.00  0.00    -0.205 F 
ENDBRANCH   3   7
BRANCH   1  17
ATOM     14  C   UNL     1      -0.017   1.379   0.010  0.00  0.00    +0.000 A 
ATOM     15  C   UNL     1       1.168   2.094   0.002  0.00  0.00    +0.001 A 
ATOM     16  C   UNL     1       2.377   1.430  -0.013  0.00  0.00    +0.010 A 
ATOM     17  C   UNL     1       2.404   0.034  -0.021  0.00  0.00    -0.002 A 
ATOM     18  C   UNL     1       1.204  -0.681  -0.013  0.00  0.00    +0.010 A 
ATOM     19  C   UNL     1       0.002  -0.004   0.002  0.00  0.00    +0.001 A 
ENDBRANCH   1  17
BRANCH   6  20
ATOM     20  C   UNL     1       4.409  -4.272  -1.502  0.00  0.00    -0.028 A 
ATOM     21  C   UNL     1       5.036  -5.226  -0.722  0.00  0.00    +0.007 A 
ATOM     22  C   UNL     1       4.837  -6.569  -0.979  0.00  0.00    +0.033 A 
ATOM     23  C   UNL     1       4.009  -6.959  -2.016  0.00  0.00    +0.126 A 
ATOM     24  C   UNL     1       3.381  -6.006  -2.795  0.00  0.00    +0.033 A 
ATOM     25  C   UNL     1       3.577  -4.662  -2.535  0.00  0.00    +0.007 A 
BRANCH  23  26
ATOM     26  N   UNL     1       3.797  -8.398  -2.291  0.00  0.00    +0.056 N 
ATOM     27  O   UNL     1       4.346  -9.232  -1.610  0.00  0.00    -0.126 OA
ATOM     28  O   UNL     1       3.073  -8.739  -3.198  0.00  0.00    -0.126 OA
ENDBRANCH  23  26
ENDBRANCH   6  20
TORSDOF 4
