REMARK  Name = ZINC49487394
REMARK  7 active torsions:
REMARK  status: ('A' for Active; 'I' for Inactive)
REMARK    1  A    between atoms: C_3  and  S_6
REMARK    2  A    between atoms: S_6  and  N_9
REMARK    3  A    between atoms: C_14  and  C_16
REMARK    4  A    between atoms: C_16  and  C_17
REMARK    5  A    between atoms: C_17  and  N_18
REMARK    6  A    between atoms: C_19  and  C_21
REMARK    7  A    between atoms: N_23  and  C_24
REMARK                            x       y       z     vdW  Elec       q    Type
REMARK                         _______ _______ _______ _____ _____    ______ ____
ROOT
ATOM      1  N   UNL     1       6.223  -1.436  -0.471  0.00  0.00    -0.308 N 
ATOM      2  C   UNL     1       7.039  -1.536  -1.539  0.00  0.00    +0.299 C 
ATOM      3  O   UNL     1       7.813  -0.637  -1.797  0.00  0.00    -0.265 OA
ATOM      4  H   UNL     1       5.604  -2.154  -0.265  0.00  0.00    +0.149 HD
ENDROOT
BRANCH   2   5
ATOM      5  C   UNL     1       6.990  -2.752  -2.405  0.00  0.00    +0.303 C 
ATOM      6  O   UNL     1       6.216  -3.650  -2.147  0.00  0.00    -0.265 OA
ATOM      7  N   UNL     1       7.806  -2.851  -3.473  0.00  0.00    -0.278 N 
ATOM      8  H   UNL     1       8.377  -2.106  -3.719  0.00  0.00    +0.155 HD
BRANCH   7   9
ATOM      9  C   UNL     1       7.831  -4.029  -4.227  0.00  0.00    +0.034 A 
ATOM     10  C   UNL     1       9.042  -4.456  -4.766  0.00  0.00    +0.028 A 
ATOM     11  C   UNL     1       9.111  -5.615  -5.502  0.00  0.00    -0.023 A 
ATOM     12  C   UNL     1       7.923  -6.332  -5.663  0.00  0.00    +0.043 A 
ATOM     13  C   UNL     1       6.708  -5.901  -5.153  0.00  0.00    -0.022 A 
ATOM     14  C   UNL     1       6.640  -4.739  -4.409  0.00  0.00    +0.028 A 
ATOM     15  C   UNL     1       5.660  -6.884  -5.580  0.00  0.00    +0.056 C 
ATOM     16  C   UNL     1       6.430  -7.952  -6.394  0.00  0.00    +0.118 C 
ATOM     17  N   UNL     1       7.831  -7.546  -6.341  0.00  0.00    -0.271 N 
ATOM     18  C   UNL     1       8.947  -8.166  -6.783  0.00  0.00    +0.220 C 
ATOM     19  O   UNL     1       8.877  -9.093  -7.562  0.00  0.00    -0.275 OA
ATOM     20  C   UNL     1      10.284  -7.675  -6.282  0.00  0.00    +0.101 C 
ATOM     21  C   UNL     1      10.345  -6.154  -6.160  0.00  0.00    +0.046 C 
ENDBRANCH   7   9
ENDBRANCH   2   5
BRANCH   1  22
ATOM     22  C   UNL     1       6.270  -0.244   0.378  0.00  0.00    +0.106 C 
BRANCH  22  23
ATOM     23  C   UNL     1       5.251  -0.383   1.511  0.00  0.00    +0.039 C 
BRANCH  23  29
ATOM     24  N   UNL     1       4.298   0.751   3.463  0.00  0.00    -0.173 NA
ATOM     25  C   UNL     1       4.222   1.825   4.463  0.00  0.00    +0.110 C 
ATOM     26  C   UNL     1       5.636   2.136   4.962  0.00  0.00    +0.017 C 
ATOM     27  C   UNL     1       6.536   2.455   3.765  0.00  0.00    +0.003 C 
ATOM     28  C   UNL     1       6.607   1.239   2.840  0.00  0.00    +0.021 C 
ATOM     29  C   UNL     1       5.207   0.914   2.320  0.00  0.00    +0.081 C 
BRANCH  24  30
ATOM     30  S   UNL     1       3.383  -0.619   3.624  0.00  0.00    +0.067 S 
ATOM     31  O   UNL     1       3.051  -1.043   2.309  0.00  0.00    -0.152 OA
ATOM     32  O   UNL     1       2.394  -0.334   4.604  0.00  0.00    -0.152 OA
BRANCH  30  35
ATOM     33  C   UNL     1       5.521  -3.200   5.914  0.00  0.00    +0.010 A 
ATOM     34  C   UNL     1       4.652  -2.169   5.608  0.00  0.00    +0.036 A 
ATOM     35  C   UNL     1       4.425  -1.865   4.307  0.00  0.00    +0.143 A 
ATOM     36  S   UNL     1       5.455  -3.055   3.464  0.00  0.00    -0.077 S 
ATOM     37  C   UNL     1       6.119  -3.877   4.904  0.00  0.00    +0.047 A 
ENDBRANCH  30  35
ENDBRANCH  24  30
ENDBRANCH  23  29
ENDBRANCH  22  23
ENDBRANCH   1  22
TORSDOF 7
