REMARK  Name = ZINC60215065
REMARK  5 active torsions:
REMARK  status: ('A' for Active; 'I' for Inactive)
REMARK    1  A    between atoms: C_1  and  C_2
REMARK    2  A    between atoms: C_7  and  C_9
REMARK    3  A    between atoms: C_7  and  C_10
REMARK    4  A    between atoms: N_13  and  C_17
REMARK    5  A    between atoms: C_17  and  C_18
REMARK                            x       y       z     vdW  Elec       q    Type
REMARK                         _______ _______ _______ _____ _____    ______ ____
ROOT
ATOM      1  C   UNL     1      -0.019   1.528   0.010  0.00  0.00    +0.007 C 
ATOM      2  C   UNL     1       0.002  -0.004   0.002  0.00  0.00    -0.011 C 
ATOM      3  C   UNL     1       0.727  -0.492  -1.254  0.00  0.00    +0.038 C 
ATOM      4  C   UNL     1       0.711  -2.014  -1.298  0.00  0.00    +0.113 C 
ATOM      5  C   UNL     1       1.263  -2.646  -0.036  0.00  0.00    +0.041 C 
ATOM      6  C   UNL     1       0.787  -2.030   1.268  0.00  0.00    -0.032 C 
ATOM      7  C   UNL     1       0.763  -0.507   1.227  0.00  0.00    +0.009 C 
ATOM      8  C   UNL     1       1.769  -2.455   2.382  0.00  0.00    +0.011 C 
ATOM      9  C   UNL     1      -0.596  -2.567   1.648  0.00  0.00    +0.011 C 
ATOM     10  C   UNL     1      -0.666  -2.529  -1.638  0.00  0.00    +0.247 C 
ATOM     11  O   UNL     1      -1.717  -2.280  -1.086  0.00  0.00    -0.273 OA
ATOM     12  N   UNL     1      -0.505  -3.321  -2.720  0.00  0.00    -0.215 N 
ATOM     13  C   UNL     1       0.748  -3.270  -3.183  0.00  0.00    +0.310 C 
ATOM     14  O   UNL     1       1.136  -3.886  -4.157  0.00  0.00    -0.252 OA
ATOM     15  N   UNL     1       1.531  -2.463  -2.446  0.00  0.00    -0.285 N 
ATOM     16  H   UNL     1       2.451  -2.215  -2.619  0.00  0.00    +0.151 HD
ENDROOT
BRANCH  12  17
ATOM     17  C   UNL     1      -1.572  -4.133  -3.310  0.00  0.00    +0.214 C 
BRANCH  17  18
ATOM     18  C   UNL     1      -2.295  -3.328  -4.359  0.00  0.00    +0.237 C 
ATOM     19  O   UNL     1      -1.953  -2.188  -4.591  0.00  0.00    -0.274 OA
ATOM     20  N   UNL     1      -3.321  -3.876  -5.040  0.00  0.00    -0.263 N 
ATOM     21  C   UNL     1      -3.986  -3.135  -6.005  0.00  0.00    +0.165 A 
ATOM     22  N   UNL     1      -3.761  -1.903  -6.396  0.00  0.00    -0.224 NA
ATOM     23  C   UNL     1      -4.495  -1.302  -7.358  0.00  0.00    +0.083 A 
ATOM     24  C   UNL     1      -4.358   0.011  -7.868  0.00  0.00    +0.070 A 
ATOM     25  C   UNL     1      -5.194   0.471  -8.853  0.00  0.00    +0.160 A 
ATOM     26  C   UNL     1      -6.200  -0.329  -9.384  0.00  0.00    +0.160 A 
ATOM     27  C   UNL     1      -6.360  -1.619  -8.907  0.00  0.00    +0.058 A 
ATOM     28  C   UNL     1      -5.527  -2.086  -7.921  0.00  0.00    +0.044 A 
ATOM     29  S   UNL     1      -5.362  -3.618  -7.037  0.00  0.00    -0.052 S 
ATOM     30  F   UNL     1      -7.011   0.146 -10.354  0.00  0.00    -0.202 F 
ATOM     31  F   UNL     1      -5.037   1.730  -9.318  0.00  0.00    -0.202 F 
ATOM     32  H   UNL     1      -3.595  -4.788  -4.855  0.00  0.00    +0.157 HD
ENDBRANCH  17  18
ENDBRANCH  12  17
TORSDOF 2
