REMARK  Name = ZINC01484046
REMARK  5 active torsions:
REMARK  status: ('A' for Active; 'I' for Inactive)
REMARK    1  A    between atoms: C_1  and  C_2
REMARK    2  A    between atoms: C_4  and  C_9
REMARK    3  A    between atoms: C_6  and  C_8
REMARK    4  A    between atoms: N_14  and  N_15
REMARK    5  A    between atoms: N_21  and  C_25
REMARK                            x       y       z     vdW  Elec       q    Type
REMARK                         _______ _______ _______ _____ _____    ______ ____
ROOT
ATOM      1  C   UNL     1       2.554   0.865   3.352  0.00  0.00    +0.055 A 
ATOM      2  C   UNL     1       3.900   1.226   3.229  0.00  0.00    +0.135 A 
ATOM      3  C   UNL     1       4.370   1.752   2.043  0.00  0.00    +0.051 A 
ATOM      4  C   UNL     1       3.500   1.922   0.971  0.00  0.00    +0.031 A 
ATOM      5  C   UNL     1       3.965   2.485  -0.319  0.00  0.00    +0.093 A 
ATOM      6  N   UNL     1       5.243   2.619  -0.589  0.00  0.00    -0.179 NA
ATOM      7  C   UNL     1       2.927   2.889  -1.286  0.00  0.00    +0.047 A 
ATOM      8  C   UNL     1       1.659   2.501  -1.081  0.00  0.00    +0.089 A 
ATOM      9  N   UNL     1       1.300   1.736  -0.001  0.00  0.00    -0.341 N 
ATOM     10  C   UNL     1       2.147   1.565   1.087  0.00  0.00    +0.088 A 
ATOM     11  C   UNL     1       1.680   1.033   2.280  0.00  0.00    +0.158 A 
ATOM     12  F   UNL     1       0.381   0.683   2.403  0.00  0.00    -0.203 F 
ATOM     13  F   UNL     1       4.741   1.060   4.273  0.00  0.00    -0.205 F 
ENDROOT
BRANCH   1  17
ATOM     14  C   UNL     1       1.549   1.324   8.229  0.00  0.00    +0.065 C 
ATOM     15  C   UNL     1       1.569   0.506   6.964  0.00  0.00    +0.039 A 
ATOM     16  C   UNL     1       2.042   1.070   5.797  0.00  0.00    +0.031 A 
ATOM     17  C   UNL     1       2.056   0.301   4.629  0.00  0.00    -0.009 A 
ATOM     18  C   UNL     1       1.581  -1.012   4.697  0.00  0.00    +0.031 A 
ATOM     19  C   UNL     1       1.130  -1.498   5.907  0.00  0.00    +0.039 A 
ATOM     20  N   UNL     1       1.134  -0.739   6.986  0.00  0.00    -0.257 NA
ATOM     21  C   UNL     1       0.620  -2.914   5.996  0.00  0.00    +0.065 C 
ENDBRANCH   1  17
BRANCH   6  22
ATOM     22  N   UNL     1       5.647   3.155  -1.818  0.00  0.00    -0.190 N 
ATOM     23  C   UNL     1       6.959   3.293  -2.094  0.00  0.00    +0.317 C 
ATOM     24  O   UNL     1       7.310   3.759  -3.162  0.00  0.00    -0.251 OA
ATOM     25  N   UNL     1       7.882   2.914  -1.188  0.00  0.00    -0.312 N 
ATOM     26  H   UNL     1       4.983   3.428  -2.470  0.00  0.00    +0.179 HD
ATOM     27  H   UNL     1       7.602   2.542  -0.337  0.00  0.00    +0.147 HD
ATOM     28  H   UNL     1       8.826   3.013  -1.387  0.00  0.00    +0.147 HD
ENDBRANCH   6  22
BRANCH   9  29
ATOM     29  C   UNL     1      -0.013   1.086   0.008  0.00  0.00    +0.088 C 
ATOM     30  C   UNL     1      -1.136   1.773   0.788  0.00  0.00    +0.027 C 
ATOM     31  C   UNL     1      -1.150   1.781  -0.743  0.00  0.00    +0.027 C 
ENDBRANCH   9  29
TORSDOF 3
