REMARK  Name = ZINC35363904
REMARK  7 active torsions:
REMARK  status: ('A' for Active; 'I' for Inactive)
REMARK    1  A    between atoms: C_1  and  C_2
REMARK    2  A    between atoms: C_17  and  C_20
REMARK    3  A    between atoms: C_20  and  C_22
REMARK    4  A    between atoms: C_20  and  O_23
REMARK    5  A    between atoms: N_26  and  C_29
REMARK    6  A    between atoms: C_29  and  C_30
REMARK    7  A    between atoms: C_30  and  C_31
REMARK                            x       y       z     vdW  Elec       q    Type
REMARK                         _______ _______ _______ _____ _____    ______ ____
ROOT
ATOM      1  C   UNL     1      -0.635   1.246   0.350  0.00  0.00    +0.044 C 
ATOM      2  C   UNL     1      -0.480  -0.249   0.249  0.00  0.00    -0.049 A 
ATOM      3  C   UNL     1      -0.374  -0.853  -0.992  0.00  0.00    +0.011 A 
ATOM      4  C   UNL     1      -0.232  -2.220  -1.084  0.00  0.00    +0.005 A 
ATOM      5  C   UNL     1      -0.192  -3.007   0.063  0.00  0.00    +0.057 A 
ATOM      6  C   UNL     1      -0.299  -2.392   1.309  0.00  0.00    +0.063 A 
ATOM      7  C   UNL     1      -0.437  -1.021   1.396  0.00  0.00    +0.025 A 
ATOM      8 CL   UNL     1      -0.253  -3.351   2.755  0.00  0.00    -0.082 Cl
ATOM      9  N   UNL     1      -0.043  -4.353  -0.280  0.00  0.00    -0.282 N 
ATOM     10  C   UNL     1       0.022  -4.533  -1.613  0.00  0.00    +0.243 C 
ATOM     11  O   UNL     1       0.149  -5.589  -2.197  0.00  0.00    -0.273 OA
ATOM     12  C   UNL     1      -0.095  -3.170  -2.239  0.00  0.00    +0.136 C 
ATOM     13  C   UNL     1       1.132  -2.841  -3.098  0.00  0.00    +0.122 C 
ATOM     14  C   UNL     1       0.692  -3.171  -4.551  0.00  0.00    +0.109 C 
ATOM     15  C   UNL     1      -0.755  -3.692  -4.418  0.00  0.00    +0.096 C 
ATOM     16  N   UNL     1      -1.255  -3.092  -3.146  0.00  0.00    -0.293 NA
ATOM     17  C   UNL     1       0.691  -1.822  -5.232  0.00  0.00    +0.227 C 
ATOM     18  O   UNL     1       0.395  -1.621  -6.390  0.00  0.00    -0.275 OA
ATOM     19  N   UNL     1       1.069  -0.883  -4.356  0.00  0.00    -0.241 N 
ATOM     20  C   UNL     1       1.353  -1.345  -3.117  0.00  0.00    +0.228 C 
ATOM     21  O   UNL     1       1.721  -0.679  -2.173  0.00  0.00    -0.275 OA
ATOM     22  H   UNL     1       0.009  -5.074   0.367  0.00  0.00    +0.155 HD
ATOM     23  H   UNL     1      -2.034  -3.621  -2.783  0.00  0.00    +0.124 HD
ENDROOT
BRANCH  15  24
ATOM     24  C   UNL     1      -1.607  -3.204  -5.592  0.00  0.00    +0.129 C 
ATOM     25  C   UNL     1      -1.109  -3.850  -6.886  0.00  0.00    +0.039 C 
BRANCH  24  26
ATOM     26  O   UNL     1      -2.972  -3.566  -5.373  0.00  0.00    -0.390 OA
ATOM     27  H   UNL     1      -3.118  -4.518  -5.291  0.00  0.00    +0.210 HD
ENDBRANCH  24  26
ENDBRANCH  15  24
BRANCH  19  28
ATOM     28  C   UNL     1       1.173   0.535  -4.711  0.00  0.00    +0.121 C 
BRANCH  28  29
ATOM     29  C   UNL     1      -0.167   1.226  -4.453  0.00  0.00    +0.054 C 
BRANCH  29  30
ATOM     30  C   UNL     1      -0.059   2.684  -4.818  0.00  0.00    -0.046 A 
ATOM     31  C   UNL     1       0.342   3.606  -3.869  0.00  0.00    +0.004 A 
ATOM     32  C   UNL     1       0.441   4.944  -4.204  0.00  0.00    +0.000 A 
ATOM     33  C   UNL     1       0.139   5.359  -5.487  0.00  0.00    +0.000 A 
ATOM     34  C   UNL     1      -0.262   4.437  -6.436  0.00  0.00    +0.000 A 
ATOM     35  C   UNL     1      -0.356   3.099  -6.102  0.00  0.00    +0.004 A 
ENDBRANCH  29  30
ENDBRANCH  28  29
ENDBRANCH  19  28
TORSDOF 5
