REMARK  Name = ZINC02108973
REMARK  8 active torsions:
REMARK  status: ('A' for Active; 'I' for Inactive)
REMARK    1  A    between atoms: C_1  and  O_2
REMARK    2  A    between atoms: O_2  and  C_3
REMARK    3  A    between atoms: C_6  and  C_23
REMARK    4  A    between atoms: C_8  and  C_9
REMARK    5  A    between atoms: C_9  and  O_10
REMARK    6  A    between atoms: O_10  and  C_11
REMARK    7  A    between atoms: C_16  and  C_17
REMARK    8  A    between atoms: CA_36  and  C_38
REMARK                            x       y       z     vdW  Elec       q    Type
REMARK                         _______ _______ _______ _____ _____    ______ ____
ROOT
ATOM      1  C   UNL     1      -0.787   2.892   1.346  0.00  0.00    +0.126 A 
ATOM      2  C   UNL     1      -0.227   3.751   0.412  0.00  0.00    +0.046 A 
ATOM      3  C   UNL     1      -0.340   5.117   0.576  0.00  0.00    +0.006 A 
ATOM      4  C   UNL     1      -1.003   5.630   1.677  0.00  0.00    -0.055 A 
ATOM      5  C   UNL     1      -1.557   4.776   2.612  0.00  0.00    +0.013 A 
ATOM      6  C   UNL     1      -1.451   3.408   2.449  0.00  0.00    +0.031 A 
ENDROOT
BRANCH   4   7
ATOM      7  C   UNL     1      -1.120   7.122   1.857  0.00  0.00    +0.008 C 
ATOM      8  C   UNL     1      -0.959   7.808   0.521  0.00  0.00    +0.010 A 
ATOM      9  C   UNL     1      -2.002   8.303  -0.184  0.00  0.00    -0.021 A 
ATOM     10  C   UNL     1      -1.463   8.883  -1.393  0.00  0.00    +0.003 A 
ATOM     11  C   UNL     1      -2.054   9.531  -2.483  0.00  0.00    +0.010 A 
ATOM     12  C   UNL     1      -1.214   9.963  -3.479  0.00  0.00    +0.001 A 
ATOM     13  C   UNL     1       0.157   9.771  -3.421  0.00  0.00    +0.002 A 
ATOM     14  C   UNL     1       0.768   9.132  -2.356  0.00  0.00    +0.026 A 
ATOM     15  C   UNL     1      -0.059   8.684  -1.329  0.00  0.00    +0.047 A 
ATOM     16  N   UNL     1       0.207   8.031  -0.159  0.00  0.00    -0.359 N 
ATOM     17  H   UNL     1       1.089   7.766   0.143  0.00  0.00    +0.166 HD
ATOM     18  C   UNL     1      -3.434   8.221   0.282  0.00  0.00    +0.033 C 
ATOM     19  CA  UNL     1      -3.508   7.182   1.409  0.00  0.00    +0.049 C 
ATOM     20  N   UNL     1      -2.453   7.457   2.406  0.00  0.00    +0.396 N 
ATOM     21  H1  UNL     1      -2.474   8.452   2.655  0.00  0.00    -0.083 HD
ATOM     22  H2  UNL     1      -2.624   6.890   3.245  0.00  0.00    -0.083 HD
BRANCH  19  23
ATOM     23  C   UNL     1      -4.854   7.265   2.082  0.00  0.00    +0.343 C 
ATOM     24  O   UNL     1      -4.970   7.858   3.128  0.00  0.00    -0.248 OA
ATOM     25  OXT UNL     1      -5.923   6.681   1.519  0.00  0.00    -0.248 OA
ENDBRANCH  19  23
ENDBRANCH   4   7
BRANCH   1  27
ATOM     26  C   UNL     1       0.015   1.086   0.024  0.00  0.00    +0.277 C 
ATOM     27  O   UNL     1      -0.682   1.547   1.184  0.00  0.00    -0.495 OA
ENDBRANCH   1  27
BRANCH   6  28
ATOM     28  C   UNL     1      -2.055   2.478   3.470  0.00  0.00    +0.268 C 
BRANCH  28  29
ATOM     29  O   UNL     1      -2.679   3.244   4.502  0.00  0.00    -0.487 OA
BRANCH  29  30
ATOM     30  C   UNL     1      -3.276   2.553   5.508  0.00  0.00    +0.124 A 
ATOM     31  C   UNL     1      -3.262   1.165   5.502  0.00  0.00    +0.046 A 
ATOM     32  C   UNL     1      -3.870   0.465   6.525  0.00  0.00    +0.004 A 
ATOM     33  C   UNL     1      -4.491   1.145   7.556  0.00  0.00    +0.001 A 
ATOM     34  C   UNL     1      -4.507   2.527   7.565  0.00  0.00    +0.007 A 
ATOM     35  C   UNL     1      -3.895   3.233   6.547  0.00  0.00    -0.003 A 
BRANCH  35  36
ATOM     36  C   UNL     1      -3.906   4.740   6.560  0.00  0.00    +0.023 C 
ATOM     37  C   UNL     1      -3.205   5.244   7.824  0.00  0.00    +0.008 C 
ATOM     38  C   UNL     1      -3.217   6.773   7.838  0.00  0.00    +0.001 C 
ATOM     39  C   UNL     1      -4.663   7.273   7.823  0.00  0.00    +0.000 C 
ATOM     40  C   UNL     1      -5.364   6.769   6.560  0.00  0.00    +0.001 C 
ATOM     41  C   UNL     1      -5.352   5.239   6.546  0.00  0.00    +0.008 C 
ENDBRANCH  35  36
ENDBRANCH  29  30
ENDBRANCH  28  29
ENDBRANCH   6  28
TORSDOF 7
