REMARK  Name = ZINC30755281
REMARK  6 active torsions:
REMARK  status: ('A' for Active; 'I' for Inactive)
REMARK    1  A    between atoms: C_1  and  C_2
REMARK    2  A    between atoms: C_6  and  O_9
REMARK    3  A    between atoms: C_7  and  C_8
REMARK    4  A    between atoms: O_9  and  C_10
REMARK    5  A    between atoms: C_10  and  C_12
REMARK    6  A    between atoms: C_10  and  C_13
REMARK                            x       y       z     vdW  Elec       q    Type
REMARK                         _______ _______ _______ _____ _____    ______ ____
ROOT
ATOM      1  C   UNL     1       3.411   2.498   3.277  0.00  0.00    +0.260 C 
ATOM      2  O   UNL     1       3.725   2.644   2.115  0.00  0.00    -0.271 OA
ATOM      3  N   UNL     1       4.279   2.823   4.256  0.00  0.00    -0.268 N 
ATOM      4  C   UNL     1       3.946   2.568   5.664  0.00  0.00    +0.114 C 
ATOM      5  C   UNL     1       4.330   3.809   6.473  0.00  0.00    +0.024 C 
ATOM      6  C   UNL     1       5.842   4.016   6.377  0.00  0.00    +0.038 C 
ATOM      7  C   UNL     1       6.286   3.998   4.938  0.00  0.00    -0.026 A 
ATOM      8  C   UNL     1       5.512   3.414   3.948  0.00  0.00    +0.040 A 
ATOM      9  C   UNL     1       5.954   3.411   2.631  0.00  0.00    +0.024 A 
ATOM     10  C   UNL     1       7.164   3.991   2.306  0.00  0.00    +0.002 A 
ATOM     11  C   UNL     1       7.935   4.576   3.294  0.00  0.00    +0.000 A 
ATOM     12  C   UNL     1       7.498   4.580   4.604  0.00  0.00    +0.005 A 
ENDROOT
BRANCH   1  13
ATOM     13  C   UNL     1       2.050   1.953   3.627  0.00  0.00    +0.256 C 
ATOM     14  C   UNL     1       2.203   0.575   4.273  0.00  0.00    +0.062 C 
BRANCH  13  15
ATOM     15  O   UNL     1       1.264   1.838   2.439  0.00  0.00    -0.480 OA
BRANCH  15  21
ATOM     16  C   UNL     1      -3.119   2.288   0.340  0.00  0.00    +0.044 C 
ATOM     17  C   UNL     1      -2.242   2.262   1.565  0.00  0.00    -0.044 A 
ATOM     18  C   UNL     1      -2.800   2.443   2.818  0.00  0.00    +0.004 A 
ATOM     19  C   UNL     1      -1.997   2.426   3.943  0.00  0.00    +0.004 A 
ATOM     20  C   UNL     1      -0.636   2.223   3.819  0.00  0.00    +0.046 A 
ATOM     21  C   UNL     1      -0.075   2.037   2.564  0.00  0.00    +0.125 A 
ATOM     22  C   UNL     1      -0.883   2.054   1.436  0.00  0.00    -0.006 A 
ATOM     23  C   UNL     1      -0.277   1.853   0.071  0.00  0.00    +0.048 C 
ENDBRANCH  15  21
ENDBRANCH  13  15
ENDBRANCH   1  13
TORSDOF 3
