REMARK  Name = ZINC40799886
REMARK  7 active torsions:
REMARK  status: ('A' for Active; 'I' for Inactive)
REMARK    1  A    between atoms: C_9  and  S_11
REMARK    2  A    between atoms: S_11  and  C_12
REMARK    3  A    between atoms: C_13  and  N_30
REMARK    4  A    between atoms: C_14  and  N_18
REMARK    5  A    between atoms: N_18  and  C_19
REMARK    6  A    between atoms: C_22  and  O_25
REMARK    7  A    between atoms: O_25  and  C_26
REMARK                            x       y       z     vdW  Elec       q    Type
REMARK                         _______ _______ _______ _____ _____    ______ ____
ROOT
ATOM      1  C   UNL     1      -0.499  -2.862   0.466  0.00  0.00    +0.127 A 
ATOM      2  C   UNL     1      -0.881  -4.205   0.439  0.00  0.00    +0.098 A 
ATOM      3  C   UNL     1      -2.238  -4.507   0.568  0.00  0.00    +0.148 A 
ATOM      4  N   UNL     1      -3.110  -3.511   0.710  0.00  0.00    -0.219 NA
ATOM      5  C   UNL     1      -2.708  -2.256   0.730  0.00  0.00    +0.224 A 
ATOM      6  N   UNL     1      -1.437  -1.928   0.617  0.00  0.00    -0.227 NA
ENDROOT
BRANCH   2   7
ATOM      7  N   UNL     1       0.073  -5.223   0.287  0.00  0.00    -0.353 N 
ATOM      8  H   UNL     1       1.012  -4.998   0.199  0.00  0.00    +0.142 HD
ATOM      9  H   UNL     1      -0.207  -6.152   0.271  0.00  0.00    +0.142 HD
ENDBRANCH   2   7
BRANCH   3  10
ATOM     10  N   UNL     1      -2.672  -5.827   0.547  0.00  0.00    -0.298 N 
ATOM     11  H   UNL     1      -2.026  -6.550   0.520  0.00  0.00    +0.154 HD
BRANCH  10  12
ATOM     12  C   UNL     1      -4.042  -6.114   0.567  0.00  0.00    +0.033 A 
ATOM     13  C   UNL     1      -4.504  -7.257   1.206  0.00  0.00    +0.027 A 
ATOM     14  C   UNL     1      -5.856  -7.539   1.225  0.00  0.00    +0.048 A 
ATOM     15  C   UNL     1      -6.752  -6.681   0.604  0.00  0.00    +0.130 A 
ATOM     16  C   UNL     1      -6.292  -5.540  -0.035  0.00  0.00    +0.048 A 
ATOM     17  C   UNL     1      -4.941  -5.253  -0.049  0.00  0.00    +0.027 A 
BRANCH  15  18
ATOM     18  O   UNL     1      -8.083  -6.960   0.622  0.00  0.00    -0.406 OA
BRANCH  18  19
ATOM     19  C   UNL     1      -8.949  -6.034  -0.036  0.00  0.00    +0.575 C 
ATOM     20  F   UNL     1      -8.601  -5.951  -1.389  0.00  0.00    -0.133 F 
ATOM     21  F   UNL     1     -10.273  -6.471   0.078  0.00  0.00    -0.133 F 
ATOM     22  F   UNL     1      -8.821  -4.774   0.557  0.00  0.00    -0.133 F 
ENDBRANCH  18  19
ENDBRANCH  15  18
ENDBRANCH  10  12
ENDBRANCH   3  10
BRANCH   1  23
ATOM     23  S   UNL     1       1.196  -2.410   0.309  0.00  0.00    -0.066 S 
BRANCH  23  32
ATOM     24  C   UNL     1       1.639   1.257   1.926  0.00  0.00    +0.002 A 
ATOM     25  C   UNL     1       1.210   2.105   0.950  0.00  0.00    +0.010 A 
ATOM     26  C   UNL     1       0.756   1.591  -0.275  0.00  0.00    +0.001 A 
ATOM     27  C   UNL     1       0.307   2.442  -1.304  0.00  0.00    +0.011 A 
ATOM     28  C   UNL     1      -0.120   1.873  -2.469  0.00  0.00    +0.020 A 
ATOM     29  C   UNL     1      -0.104   0.488  -2.614  0.00  0.00    +0.111 A 
ATOM     30  N   UNL     1       0.314  -0.301  -1.653  0.00  0.00    -0.254 NA
ATOM     31  C   UNL     1       0.746   0.192  -0.489  0.00  0.00    +0.085 A 
ATOM     32  C   UNL     1       1.196  -0.663   0.541  0.00  0.00    +0.040 A 
ATOM     33  C   UNL     1       1.635  -0.120   1.730  0.00  0.00    +0.017 A 
ENDBRANCH  23  32
ENDBRANCH   1  23
TORSDOF 7
