REMARK  Name = ZINC20882221
REMARK  9 active torsions:
REMARK  status: ('A' for Active; 'I' for Inactive)
REMARK    1  A    between atoms: C_1  and  O_2
REMARK    2  A    between atoms: O_2  and  C_3
REMARK    3  A    between atoms: C_8  and  C_9
REMARK    4  A    between atoms: C_14  and  C_24
REMARK    5  A    between atoms: C_26  and  O_33
REMARK    6  A    between atoms: C_27  and  O_32
REMARK    7  A    between atoms: C_28  and  O_30
REMARK    8  A    between atoms: O_30  and  C_31
REMARK    9  A    between atoms: O_33  and  C_34
REMARK                            x       y       z     vdW  Elec       q    Type
REMARK                         _______ _______ _______ _____ _____    ______ ____
ROOT
ATOM      1  C   UNL     1      -2.528  -1.469   4.638  0.00  0.00    +0.035 C 
ATOM      2  C   UNL     1      -1.536  -2.487   4.077  0.00  0.00    +0.060 C 
ATOM      3  C   UNL     1      -1.365  -2.273   2.582  0.00  0.00    +0.017 C 
ATOM      4  C   UNL     1      -1.453  -1.040   2.056  0.00  0.00    +0.036 C 
ATOM      5  C   UNL     1      -1.280  -0.684   0.598  0.00  0.00    +0.136 C 
ATOM      6  N   UNL     1      -1.259  -1.822  -0.295  0.00  0.00    -0.331 N 
ATOM      7  C   UNL     1      -0.241  -2.770  -0.236  0.00  0.00    +0.049 A 
ATOM      8  C   UNL     1       0.682  -2.907  -1.260  0.00  0.00    +0.025 A 
ATOM      9  C   UNL     1       1.739  -3.787  -1.109  0.00  0.00    +0.002 A 
ATOM     10  C   UNL     1       1.875  -4.526   0.052  0.00  0.00    +0.002 A 
ATOM     11  C   UNL     1       0.942  -4.406   1.069  0.00  0.00    +0.025 A 
ATOM     12  C   UNL     1      -0.125  -3.539   0.912  0.00  0.00    +0.052 A 
ATOM     13  N   UNL     1      -1.121  -3.404   1.873  0.00  0.00    -0.316 N 
ATOM     14  C   UNL     1      -1.736   0.070   2.886  0.00  0.00    +0.163 C 
ATOM     15  O   UNL     1      -1.796   1.176   2.385  0.00  0.00    -0.292 OA
ATOM     16  C   UNL     1      -1.967  -0.069   4.361  0.00  0.00    +0.088 C 
ATOM     17  H   UNL     1      -2.058  -1.952  -1.040  0.00  0.00    +0.147 HD
ATOM     18  H   UNL     1      -1.734  -4.302   2.041  0.00  0.00    +0.152 HD
ENDROOT
BRANCH   1  24
ATOM     19  C   UNL     1      -3.935  -1.942   6.659  0.00  0.00    +0.124 A 
ATOM     20  C   UNL     1      -4.075  -2.129   8.026  0.00  0.00    +0.046 A 
ATOM     21  C   UNL     1      -2.970  -2.047   8.850  0.00  0.00    +0.004 A 
ATOM     22  C   UNL     1      -1.724  -1.779   8.313  0.00  0.00    +0.001 A 
ATOM     23  C   UNL     1      -1.581  -1.597   6.950  0.00  0.00    +0.007 A 
ATOM     24  C   UNL     1      -2.684  -1.673   6.122  0.00  0.00    -0.002 A 
BRANCH  19  26
ATOM     25  C   UNL     1      -6.277  -2.302   6.467  0.00  0.00    +0.277 C 
ATOM     26  O   UNL     1      -5.021  -2.022   5.846  0.00  0.00    -0.495 OA
ENDBRANCH  19  26
ENDBRANCH   1  24
BRANCH   5  27
ATOM     27  C   UNL     1       0.015   0.071   0.442  0.00  0.00    -0.016 A 
ATOM     28  C   UNL     1       1.210  -0.532   0.786  0.00  0.00    +0.055 A 
ATOM     29  C   UNL     1       2.404   0.158   0.643  0.00  0.00    +0.165 A 
ATOM     30  C   UNL     1       2.398   1.459   0.153  0.00  0.00    +0.201 A 
ATOM     31  C   UNL     1       1.194   2.062  -0.192  0.00  0.00    +0.165 A 
ATOM     32  C   UNL     1       0.005   1.364  -0.046  0.00  0.00    +0.055 A 
BRANCH  31  33
ATOM     33  O   UNL     1       1.183   3.334  -0.672  0.00  0.00    -0.491 OA
ATOM     34  C   UNL     1      -0.096   3.933  -0.892  0.00  0.00    +0.277 C 
ENDBRANCH  31  33
BRANCH  30  35
ATOM     35  O   UNL     1       3.567   2.140   0.012  0.00  0.00    -0.501 OA
ATOM     36  H   UNL     1       3.561   3.170  -0.376  0.00  0.00    +0.292 HD
ENDBRANCH  30  35
BRANCH  29  37
ATOM     37  O   UNL     1       3.579  -0.436   0.982  0.00  0.00    -0.491 OA
ATOM     38  C   UNL     1       3.510  -1.774   1.478  0.00  0.00    +0.277 C 
ENDBRANCH  29  37
ENDBRANCH   5  27
TORSDOF 6
