REMARK  Name = ZINC03221576
REMARK  6 active torsions:
REMARK  status: ('A' for Active; 'I' for Inactive)
REMARK    1  A    between atoms: C_1  and  C_2
REMARK    2  A    between atoms: C_5  and  S_8
REMARK    3  A    between atoms: S_8  and  N_11
REMARK    4  A    between atoms: C_20  and  C_22
REMARK    5  A    between atoms: N_24  and  C_25
REMARK    6  A    between atoms: C_28  and  C_31
REMARK                            x       y       z     vdW  Elec       q    Type
REMARK                         _______ _______ _______ _____ _____    ______ ____
ROOT
ATOM      1  N   UNL     1       3.520   2.505  -0.459  0.00  0.00    -0.160 NA
ATOM      2  C   UNL     1       2.505   3.563  -0.413  0.00  0.00    +0.145 C 
ATOM      3  C   UNL     1       1.169   2.970  -0.040  0.00  0.00    -0.028 A 
ATOM      4  C   UNL     1       0.044   3.772  -0.175  0.00  0.00    +0.005 A 
ATOM      5  C   UNL     1      -1.203   3.291   0.165  0.00  0.00    +0.000 A 
ATOM      6  C   UNL     1      -1.334   1.998   0.638  0.00  0.00    +0.000 A 
ATOM      7  C   UNL     1      -0.217   1.201   0.772  0.00  0.00    +0.004 A 
ATOM      8  C   UNL     1       1.041   1.682   0.429  0.00  0.00    -0.041 A 
ATOM      9  C   UNL     1       2.212   0.748   0.584  0.00  0.00    +0.065 C 
ATOM     10  C   UNL     1       3.525   1.526   0.641  0.00  0.00    +0.170 C 
ENDROOT
BRANCH  10  11
ATOM     11  C   UNL     1       4.686   0.580   0.476  0.00  0.00    +0.236 C 
ATOM     12  O   UNL     1       4.656  -0.273  -0.386  0.00  0.00    -0.274 OA
ATOM     13  N   UNL     1       5.758   0.681   1.286  0.00  0.00    -0.284 N 
ATOM     14  H   UNL     1       5.756   1.320   2.016  0.00  0.00    +0.155 HD
BRANCH  13  15
ATOM     15  C   UNL     1       6.872  -0.134   1.075  0.00  0.00    +0.034 A 
ATOM     16  C   UNL     1       6.701  -1.442   0.636  0.00  0.00    +0.024 A 
ATOM     17  C   UNL     1       7.797  -2.247   0.422  0.00  0.00    +0.020 A 
ATOM     18  C   UNL     1       9.083  -1.751   0.656  0.00  0.00    +0.052 A 
ATOM     19  C   UNL     1       9.251  -0.437   1.103  0.00  0.00    +0.020 A 
ATOM     20  C   UNL     1       8.150   0.364   1.309  0.00  0.00    +0.024 A 
BRANCH  18  21
ATOM     21  C   UNL     1      10.225  -2.587   0.440  0.00  0.00    +0.099 C 
ATOM     22  N   UNL     1      11.132  -3.250   0.268  0.00  0.00    -0.191 NA
ENDBRANCH  18  21
ENDBRANCH  13  15
ENDBRANCH  10  11
BRANCH   1  23
ATOM     23  S   UNL     1       4.615   2.415  -1.697  0.00  0.00    +0.062 S 
ATOM     24  O   UNL     1       4.804   3.741  -2.170  0.00  0.00    -0.153 OA
ATOM     25  O   UNL     1       5.691   1.612  -1.230  0.00  0.00    -0.153 OA
BRANCH  23  30
ATOM     26  C   UNL     1       1.991  -0.655  -6.180  0.00  0.00    +0.044 C 
ATOM     27  C   UNL     1       2.647   0.112  -5.061  0.00  0.00    -0.050 A 
ATOM     28  C   UNL     1       2.521   1.487  -4.998  0.00  0.00    +0.005 A 
ATOM     29  C   UNL     1       3.122   2.190  -3.971  0.00  0.00    +0.029 A 
ATOM     30  C   UNL     1       3.849   1.518  -3.006  0.00  0.00    +0.106 A 
ATOM     31  C   UNL     1       3.979   0.143  -3.071  0.00  0.00    +0.029 A 
ATOM     32  C   UNL     1       3.375  -0.560  -4.096  0.00  0.00    +0.005 A 
ENDBRANCH  23  30
ENDBRANCH   1  23
TORSDOF 5
