REMARK  Name = ZINC16401403
REMARK  10 active torsions:
REMARK  status: ('A' for Active; 'I' for Inactive)
REMARK    1  A    between atoms: C_3  and  S_27
REMARK    2  A    between atoms: C_6  and  C_7
REMARK    3  A    between atoms: C_7  and  C_8
REMARK    4  A    between atoms: C_8  and  N_9
REMARK    5  A    between atoms: N_9  and  C_10
REMARK    6  A    between atoms: C_10  and  C_11
REMARK    7  A    between atoms: C_16  and  O_17
REMARK    8  A    between atoms: O_17  and  C_18
REMARK    9  A    between atoms: C_18  and  C_19
REMARK   10  A    between atoms: S_27  and  N_30
REMARK                            x       y       z     vdW  Elec       q    Type
REMARK                         _______ _______ _______ _____ _____    ______ ____
ROOT
ATOM      1  C   UNL     1      -2.574   2.783   4.032  0.00  0.00    +0.120 C 
ENDROOT
BRANCH   1   2
ATOM      2  C   UNL     1      -3.377   3.242   2.842  0.00  0.00    +0.009 A 
ATOM      3  C   UNL     1      -4.569   3.915   3.031  0.00  0.00    +0.028 A 
ATOM      4  C   UNL     1      -5.310   4.331   1.939  0.00  0.00    +0.041 A 
ATOM      5  C   UNL     1      -4.855   4.081   0.656  0.00  0.00    +0.023 A 
ATOM      6  C   UNL     1      -3.660   3.414   0.464  0.00  0.00    +0.047 A 
ATOM      7  C   UNL     1      -2.917   2.995   1.558  0.00  0.00    +0.125 A 
ATOM      8 CL   UNL     1      -6.811   5.169   2.178  0.00  0.00    -0.084 Cl
BRANCH   7   9
ATOM      9  O   UNL     1      -1.741   2.339   1.370  0.00  0.00    -0.487 OA
BRANCH   9  10
ATOM     10  C   UNL     1      -1.332   2.114   0.020  0.00  0.00    +0.264 C 
BRANCH  10  11
ATOM     11  C   UNL     1      -0.017   1.378   0.010  0.00  0.00    -0.010 A 
ATOM     12  C   UNL     1       1.171   2.086   0.002  0.00  0.00    +0.008 A 
ATOM     13  C   UNL     1       2.377   1.412  -0.013  0.00  0.00    +0.020 A 
ATOM     14  C   UNL     1       2.397   0.029  -0.021  0.00  0.00    +0.041 A 
ATOM     15  C   UNL     1       1.208  -0.679  -0.013  0.00  0.00    +0.020 A 
ATOM     16  C   UNL     1       0.002  -0.004   0.002  0.00  0.00    +0.008 A 
ATOM     17 CL   UNL     1       3.912  -0.818  -0.039  0.00  0.00    -0.084 Cl
ENDBRANCH  10  11
ENDBRANCH   9  10
ENDBRANCH   7   9
ENDBRANCH   1   2
BRANCH   1  18
ATOM     18  N   UNL     1      -1.481   3.732   4.281  0.00  0.00    -0.312 NA
ATOM     19  H   UNL     1      -1.913   4.725   4.474  0.00  0.00    +0.122 HD
BRANCH  18  20
ATOM     20  C   UNL     1      -0.675   3.316   5.437  0.00  0.00    +0.086 C 
BRANCH  20  21
ATOM     21  C   UNL     1       0.451   4.326   5.664  0.00  0.00    +0.050 C 
BRANCH  21  27
ATOM     22  C   UNL     1       0.947   4.339   8.117  0.00  0.00    +0.005 A 
ATOM     23  C   UNL     1       1.702   3.943   9.205  0.00  0.00    +0.029 A 
ATOM     24  C   UNL     1       2.794   3.115   9.024  0.00  0.00    +0.105 A 
ATOM     25  C   UNL     1       3.128   2.679   7.756  0.00  0.00    +0.029 A 
ATOM     26  C   UNL     1       2.370   3.071   6.668  0.00  0.00    +0.005 A 
ATOM     27  C   UNL     1       1.278   3.899   6.849  0.00  0.00    -0.046 A 
BRANCH  24  28
ATOM     28  S   UNL     1       3.760   2.615  10.410  0.00  0.00    +0.056 S 
ATOM     29  O   UNL     1       2.917   2.716  11.550  0.00  0.00    -0.153 OA
ATOM     30  O   UNL     1       4.400   1.401  10.042  0.00  0.00    -0.153 OA
BRANCH  28  31
ATOM     31  N   UNL     1       4.958   3.741  10.605  0.00  0.00    -0.204 NA
ATOM     32  H   UNL     1       5.586   3.464  11.465  0.00  0.00    +0.144 HD
ATOM     33  H   UNL     1       4.507   4.729  10.784  0.00  0.00    +0.144 HD
ENDBRANCH  28  31
ENDBRANCH  24  28
ENDBRANCH  21  27
ENDBRANCH  20  21
ENDBRANCH  18  20
ENDBRANCH   1  18
TORSDOF 10
