REMARK  Name = ZINC52627335
REMARK  5 active torsions:
REMARK  status: ('A' for Active; 'I' for Inactive)
REMARK    1  A    between atoms: C_1  and  O_2
REMARK    2  A    between atoms: O_2  and  C_3
REMARK    3  A    between atoms: C_5  and  C_10
REMARK    4  A    between atoms: C_8  and  O_9
REMARK    5  A    between atoms: C_20  and  C_21
REMARK                            x       y       z     vdW  Elec       q    Type
REMARK                         _______ _______ _______ _____ _____    ______ ____
ROOT
ATOM      1  C   UNL     1       2.215   0.313   4.337  0.00  0.00    -0.016 A 
ATOM      2  C   UNL     1       2.149   1.708   4.292  0.00  0.00    +0.009 A 
ATOM      3  C   UNL     1       2.782   2.455   5.243  0.00  0.00    +0.011 A 
ATOM      4  C   UNL     1       3.497   1.825   6.264  0.00  0.00    +0.008 A 
ATOM      5  C   UNL     1       3.572   0.422   6.322  0.00  0.00    +0.042 A 
ATOM      6  C   UNL     1       2.921  -0.328   5.354  0.00  0.00    +0.032 A 
ATOM      7  N   UNL     1       4.335   0.047   7.422  0.00  0.00    -0.281 N 
ATOM      8  C   UNL     1       4.774   1.120   8.101  0.00  0.00    +0.249 C 
ATOM      9  O   UNL     1       5.462   1.101   9.103  0.00  0.00    -0.270 OA
ATOM     10  C   UNL     1       4.271   2.331   7.411  0.00  0.00    +0.046 C 
ATOM     11  C   UNL     1       4.482   3.652   7.767  0.00  0.00    +0.019 C 
ATOM     12  H   UNL     1       4.526  -0.872   7.668  0.00  0.00    +0.155 HD
ENDROOT
BRANCH  11  13
ATOM     13  C   UNL     1       5.077   3.959   8.995  0.00  0.00    -0.017 C 
ATOM     14  C   UNL     1       5.247   5.221   9.557  0.00  0.00    +0.022 A 
ATOM     15  C   UNL     1       4.905   6.521   9.119  0.00  0.00    +0.013 A 
ATOM     16  C   UNL     1       5.217   7.576   9.923  0.00  0.00    +0.020 A 
ATOM     17  C   UNL     1       5.858   7.371  11.148  0.00  0.00    +0.113 A 
ATOM     18  N   UNL     1       6.188   6.183  11.582  0.00  0.00    -0.238 NA
ATOM     19  C   UNL     1       5.922   5.071  10.861  0.00  0.00    +0.135 A 
ATOM     20  N   UNL     1       6.163   3.804  11.107  0.00  0.00    -0.365 N 
ATOM     21  C   UNL     1       5.666   2.989   9.995  0.00  0.00    +0.150 C 
ATOM     22  H   UNL     1       6.599   3.461  11.902  0.00  0.00    +0.161 HD
ENDBRANCH  11  13
BRANCH   1  25
ATOM     23  C   UNL     1       0.175  -0.609   1.316  0.00  0.00    +0.162 A 
ATOM     24  C   UNL     1       0.817   0.144   2.281  0.00  0.00    +0.058 A 
ATOM     25  C   UNL     1       1.525  -0.491   3.301  0.00  0.00    -0.014 A 
ATOM     26  C   UNL     1       1.583  -1.884   3.344  0.00  0.00    +0.012 A 
ATOM     27  C   UNL     1       0.941  -2.631   2.379  0.00  0.00    +0.050 A 
ATOM     28  C   UNL     1       0.232  -2.000   1.367  0.00  0.00    +0.158 A 
BRANCH  23  30
ATOM     29  C   UNL     1      -0.533   1.436   0.329  0.00  0.00    +0.277 C 
ATOM     30  O   UNL     1      -0.517   0.007   0.320  0.00  0.00    -0.491 OA
ENDBRANCH  23  30
BRANCH  28  31
ATOM     31  O   UNL     1      -0.404  -2.741   0.421  0.00  0.00    -0.503 OA
ATOM     32  H   UNL     1       0.141  -2.943  -0.352  0.00  0.00    +0.292 HD
ENDBRANCH  28  31
ENDBRANCH   1  25
TORSDOF 4
