REMARK  Name = ZINC16853462
REMARK  5 active torsions:
REMARK  status: ('A' for Active; 'I' for Inactive)
REMARK    1  A    between atoms: C_1  and  C_2
REMARK    2  A    between atoms: C_5  and  C_23
REMARK    3  A    between atoms: C_6  and  C_8
REMARK    4  A    between atoms: C_8  and  C_9
REMARK    5  A    between atoms: C_10  and  C_17
REMARK                            x       y       z     vdW  Elec       q    Type
REMARK                         _______ _______ _______ _____ _____    ______ ____
ROOT
ATOM      1  C   UNL     1      -0.605   0.864   0.543  0.00  0.00    +0.047 A 
ATOM      2  C   UNL     1       0.681   0.685   0.062  0.00  0.00    +0.081 A 
ATOM      3  N   UNL     1       1.106  -0.551  -0.250  0.00  0.00    -0.237 NA
ATOM      4  C   UNL     1       0.331  -1.590  -0.108  0.00  0.00    +0.199 A 
ATOM      5  N   UNL     1      -0.930  -1.477   0.356  0.00  0.00    -0.313 N 
ATOM      6  H   UNL     1      -1.483  -2.269   0.450  0.00  0.00    +0.170 HD
ATOM      7  C   UNL     1      -1.427  -0.268   0.690  0.00  0.00    +0.255 A 
ATOM      8  O   UNL     1      -2.567  -0.158   1.110  0.00  0.00    -0.267 OA
ENDROOT
BRANCH   2   9
ATOM      9  C   UNL     1       1.582   1.849  -0.109  0.00  0.00    +0.001 A 
ATOM     10  C   UNL     1       1.190   2.928  -0.900  0.00  0.00    +0.010 A 
ATOM     11  C   UNL     1       2.032   4.011  -1.050  0.00  0.00    +0.001 A 
ATOM     12  C   UNL     1       3.267   4.023  -0.427  0.00  0.00    +0.000 A 
ATOM     13  C   UNL     1       3.664   2.953   0.354  0.00  0.00    +0.001 A 
ATOM     14  C   UNL     1       2.829   1.866   0.517  0.00  0.00    +0.010 A 
ENDBRANCH   2   9
BRANCH   1  15
ATOM     15  C   UNL     1      -1.109   2.237   0.906  0.00  0.00    +0.078 C 
BRANCH  15  21
ATOM     16  C   UNL     1      -1.774   0.776   5.647  0.00  0.00    +0.044 C 
ATOM     17  C   UNL     1      -1.233   1.769   4.651  0.00  0.00    -0.050 A 
ATOM     18  C   UNL     1      -0.559   2.893   5.091  0.00  0.00    +0.003 A 
ATOM     19  C   UNL     1      -0.063   3.804   4.178  0.00  0.00    +0.004 A 
ATOM     20  C   UNL     1      -0.236   3.589   2.823  0.00  0.00    -0.047 A 
ATOM     21  C   UNL     1      -0.915   2.468   2.383  0.00  0.00    -0.040 A 
ATOM     22  C   UNL     1      -1.411   1.557   3.297  0.00  0.00    +0.007 A 
ATOM     23  C   UNL     1       0.310   4.579   1.827  0.00  0.00    +0.044 C 
ENDBRANCH  15  21
ENDBRANCH   1  15
TORSDOF 3
