REMARK  Name = ZINC04536376
REMARK  8 active torsions:
REMARK  status: ('A' for Active; 'I' for Inactive)
REMARK    1  A    between atoms: C_1  and  O_2
REMARK    2  A    between atoms: O_2  and  C_3
REMARK    3  A    between atoms: C_6  and  N_9
REMARK    4  A    between atoms: C_10  and  C_12
REMARK    5  A    between atoms: C_12  and  C_13
REMARK    6  A    between atoms: N_19  and  N_20
REMARK    7  A    between atoms: C_21  and  C_22
REMARK    8  A    between atoms: C_27  and  O_28
REMARK                            x       y       z     vdW  Elec       q    Type
REMARK                         _______ _______ _______ _____ _____    ______ ____
ROOT
ATOM      1  C   UNL     1      -0.727   1.581   1.267  0.00  0.00    +0.149 C 
ATOM      2  C   UNL     1      -0.035   1.082   2.525  0.00  0.00    +0.233 C 
ATOM      3  O   UNL     1       0.061  -0.099   2.781  0.00  0.00    -0.274 OA
ATOM      4  N   UNL     1       0.454   2.018   3.322  0.00  0.00    -0.263 N 
ATOM      5  C   UNL     1       0.346   3.362   3.035  0.00  0.00    +0.183 C 
ATOM      6  N   UNL     1       0.787   4.382   3.741  0.00  0.00    -0.127 NA
ATOM      7  S   UNL     1      -0.533   3.395   1.480  0.00  0.00    -0.075 S 
ATOM      8  H   UNL     1       0.905   1.748   4.137  0.00  0.00    +0.157 HD
ENDROOT
BRANCH   6   9
ATOM      9  N   UNL     1       1.408   4.176   4.853  0.00  0.00    -0.155 NA
ATOM     10  C   UNL     1       1.845   5.188   5.553  0.00  0.00    +0.146 C 
BRANCH  10  11
ATOM     11  C   UNL     1       2.554   4.953   6.821  0.00  0.00    +0.036 A 
ATOM     12  C   UNL     1       3.028   6.033   7.571  0.00  0.00    +0.013 A 
ATOM     13  C   UNL     1       3.687   5.806   8.761  0.00  0.00    +0.001 A 
ATOM     14  C   UNL     1       3.890   4.512   9.211  0.00  0.00    +0.004 A 
ATOM     15  C   UNL     1       3.430   3.435   8.476  0.00  0.00    +0.046 A 
ATOM     16  C   UNL     1       2.762   3.644   7.281  0.00  0.00    +0.125 A 
BRANCH  16  17
ATOM     17  O   UNL     1       2.309   2.587   6.559  0.00  0.00    -0.506 OA
ATOM     18  H   UNL     1       2.946   2.250   5.914  0.00  0.00    +0.292 HD
ENDBRANCH  16  17
ENDBRANCH  10  11
ENDBRANCH   6   9
BRANCH   1  19
ATOM     19  C   UNL     1      -0.009   1.091   0.008  0.00  0.00    +0.120 C 
BRANCH  19  21
ATOM     20  N   UNL     1      -0.288   1.272  -2.443  0.00  0.00    -0.285 N 
ATOM     21  C   UNL     1      -0.743   1.583  -1.213  0.00  0.00    +0.219 C 
ATOM     22  O   UNL     1      -1.742   2.260  -1.088  0.00  0.00    -0.275 OA
ATOM     23  H   UNL     1       0.546   0.789  -2.544  0.00  0.00    +0.155 HD
BRANCH  20  27
ATOM     24  C   UNL     1      -2.473   2.387  -5.815  0.00  0.00    +0.120 A 
ATOM     25  C   UNL     1      -2.446   3.214  -4.702  0.00  0.00    +0.047 A 
ATOM     26  C   UNL     1      -1.723   2.846  -3.585  0.00  0.00    +0.027 A 
ATOM     27  C   UNL     1      -1.022   1.647  -3.576  0.00  0.00    +0.034 A 
ATOM     28  C   UNL     1      -1.045   0.822  -4.693  0.00  0.00    +0.027 A 
ATOM     29  C   UNL     1      -1.774   1.189  -5.807  0.00  0.00    +0.047 A 
BRANCH  24  31
ATOM     30  C   UNL     1      -3.169   1.851  -8.025  0.00  0.00    +0.277 C 
ATOM     31  O   UNL     1      -3.185   2.751  -6.915  0.00  0.00    -0.495 OA
ENDBRANCH  24  31
ENDBRANCH  20  27
ENDBRANCH  19  21
ENDBRANCH   1  19
TORSDOF 7
