REMARK  Name = ZINC35938433
REMARK  5 active torsions:
REMARK  status: ('A' for Active; 'I' for Inactive)
REMARK    1  A    between atoms: C_1  and  C_2
REMARK    2  A    between atoms: C_13  and  C_17
REMARK    3  A    between atoms: N_22  and  S_25
REMARK    4  A    between atoms: S_25  and  C_28
REMARK    5  A    between atoms: C_33  and  C_34
REMARK                            x       y       z     vdW  Elec       q    Type
REMARK                         _______ _______ _______ _____ _____    ______ ____
ROOT
ATOM      1  C   UNL     1      -2.032   2.975   1.690  0.00  0.00    +0.044 C 
ATOM      2  C   UNL     1      -1.563   1.566   1.431  0.00  0.00    -0.050 A 
ATOM      3  C   UNL     1      -1.348   1.140   0.131  0.00  0.00    +0.007 A 
ATOM      4  C   UNL     1      -0.942  -0.157  -0.124  0.00  0.00    +0.047 A 
ATOM      5  C   UNL     1      -0.736  -1.032   0.928  0.00  0.00    +0.139 A 
ATOM      6  C   UNL     1      -0.911  -0.590   2.243  0.00  0.00    +0.055 A 
ATOM      7  C   UNL     1      -1.344   0.708   2.491  0.00  0.00    +0.018 A 
ATOM      8  C   UNL     1      -0.556  -1.505   3.350  0.00  0.00    +0.110 C 
ATOM      9  N   UNL     1       0.737  -1.974   3.417  0.00  0.00    -0.298 N 
ATOM     10  C   UNL     1       1.319  -2.717   2.377  0.00  0.00    +0.075 A 
ATOM     11  C   UNL     1       2.539  -3.330   2.670  0.00  0.00    +0.027 A 
ATOM     12  C   UNL     1       3.194  -4.084   1.720  0.00  0.00    +0.005 A 
ATOM     13  C   UNL     1       2.639  -4.236   0.463  0.00  0.00    -0.047 A 
ATOM     14  C   UNL     1       1.436  -3.634   0.166  0.00  0.00    +0.051 A 
ATOM     15  C   UNL     1       0.762  -2.868   1.121  0.00  0.00    +0.150 A 
ATOM     16  O   UNL     1      -0.410  -2.324   0.723  0.00  0.00    -0.453 OA
ATOM     17  C   UNL     1       3.349  -5.058  -0.582  0.00  0.00    +0.044 C 
ATOM     18  N   UNL     1      -1.442  -1.857   4.238  0.00  0.00    -0.357 N 
ATOM     19  C   UNL     1      -1.050  -2.742   5.297  0.00  0.00    +0.119 C 
ATOM     20  C   UNL     1      -1.204  -4.186   4.790  0.00  0.00    +0.038 C 
ATOM     21  C   UNL     1      -2.607  -4.628   4.813  0.00  0.00    +0.111 C 
ATOM     22  N   UNL     1      -3.443  -3.729   3.982  0.00  0.00    -0.175 NA
ATOM     23  C   UNL     1      -3.838  -2.444   4.487  0.00  0.00    +0.130 C 
ATOM     24  C   UNL     1      -2.827  -1.323   4.124  0.00  0.00    +0.134 C 
ATOM     25  H   UNL     1       1.264  -1.785   4.209  0.00  0.00    +0.154 HD
ENDROOT
BRANCH  22  26
ATOM     26  S   UNL     1      -3.923  -4.208   2.471  0.00  0.00    +0.061 S 
ATOM     27  O   UNL     1      -4.007  -3.031   1.680  0.00  0.00    -0.153 OA
ATOM     28  O   UNL     1      -3.099  -5.309   2.114  0.00  0.00    -0.153 OA
BRANCH  26  29
ATOM     29  C   UNL     1      -5.564  -4.833   2.619  0.00  0.00    +0.108 A 
ATOM     30  C   UNL     1      -6.605  -4.206   1.961  0.00  0.00    +0.029 A 
ATOM     31  C   UNL     1      -7.892  -4.696   2.077  0.00  0.00    +0.002 A 
ATOM     32  C   UNL     1      -8.138  -5.815   2.851  0.00  0.00    +0.000 A 
ATOM     33  C   UNL     1      -7.097  -6.443   3.509  0.00  0.00    +0.005 A 
ATOM     34  C   UNL     1      -5.809  -5.955   3.389  0.00  0.00    -0.024 A 
ATOM     35  C   UNL     1      -4.673  -6.643   4.102  0.00  0.00    +0.046 C 
ENDBRANCH  26  29
ENDBRANCH  22  26
TORSDOF 2
