REMARK  Name = ZINC11398611
REMARK  8 active torsions:
REMARK  status: ('A' for Active; 'I' for Inactive)
REMARK    1  A    between atoms: C_1  and  C_2
REMARK    2  A    between atoms: C_3  and  C_34
REMARK    3  A    between atoms: C_11  and  C_13
REMARK    4  A    between atoms: C_13  and  C_15
REMARK    5  A    between atoms: C_13  and  O_16
REMARK    6  A    between atoms: O_16  and  C_17
REMARK    7  A    between atoms: C_17  and  C_19
REMARK    8  A    between atoms: C_21  and  C_29
REMARK                            x       y       z     vdW  Elec       q    Type
REMARK                         _______ _______ _______ _____ _____    ______ ____
ROOT
ATOM      1  C   UNL     1      -2.559  -0.127   0.027  0.00  0.00    +0.341 C 
ATOM      2  O   UNL     1      -2.636   1.081   0.126  0.00  0.00    -0.245 OA
ENDROOT
BRANCH   1   3
ATOM      3  C   UNL     1      -1.236  -0.785   0.010  0.00  0.00    +0.070 A 
ATOM      4  C   UNL     1      -1.118  -2.167   0.015  0.00  0.00    +0.047 A 
ATOM      5  C   UNL     1       0.161  -2.750  -0.001  0.00  0.00    +0.107 A 
ATOM      6  N   UNL     1       1.264  -2.026  -0.021  0.00  0.00    -0.244 NA
ATOM      7  C   UNL     1       1.241  -0.692  -0.027  0.00  0.00    +0.073 A 
ATOM      8  C   UNL     1       0.002  -0.004  -0.012  0.00  0.00    +0.014 A 
ATOM      9  C   UNL     1      -0.017   1.394  -0.018  0.00  0.00    +0.011 A 
ATOM     10  C   UNL     1       1.159   2.084  -0.039  0.00  0.00    +0.001 A 
ATOM     11  C   UNL     1       2.380   1.414  -0.054  0.00  0.00    +0.002 A 
ATOM     12  C   UNL     1       2.434   0.054  -0.048  0.00  0.00    +0.028 A 
BRANCH   5  13
ATOM     13  C   UNL     1       0.275  -4.221   0.005  0.00  0.00    +0.153 A 
ATOM     14  C   UNL     1       1.434  -4.933  -0.015  0.00  0.00    +0.051 A 
ATOM     15  C   UNL     1       1.075  -6.294   0.002  0.00  0.00    +0.042 A 
ATOM     16  C   UNL     1      -0.273  -6.346   0.022  0.00  0.00    +0.196 A 
ATOM     17  O   UNL     1      -0.752  -5.093   0.023  0.00  0.00    -0.461 OA
ENDBRANCH   5  13
ENDBRANCH   1   3
BRANCH   1  18
ATOM     18  O   UNL     1      -3.681  -0.868  -0.068  0.00  0.00    -0.450 OA
BRANCH  18  19
ATOM     19  C   UNL     1      -4.945  -0.154  -0.045  0.00  0.00    +0.239 C 
ATOM     20  C   UNL     1      -5.431  -0.024   1.400  0.00  0.00    +0.060 C 
BRANCH  19  31
ATOM     21  C   UNL     1      -9.020  -3.211  -4.404  0.00  0.00    +0.045 C 
ATOM     22  C   UNL     1      -8.893  -3.094  -2.907  0.00  0.00    -0.026 A 
ATOM     23  C   UNL     1      -9.765  -3.720  -2.100  0.00  0.00    -0.008 A 
ATOM     24  S   UNL     1      -9.204  -3.282  -0.466  0.00  0.00    -0.073 S 
ATOM     25  C   UNL     1      -7.815  -2.272  -0.914  0.00  0.00    +0.116 A 
ATOM     26  C   UNL     1      -7.828  -2.303  -2.320  0.00  0.00    +0.075 A 
ATOM     27  C   UNL     1      -6.790  -1.554  -2.965  0.00  0.00    +0.260 A 
ATOM     28  O   UNL     1      -6.716  -1.520  -4.181  0.00  0.00    -0.267 OA
ATOM     29  N   UNL     1      -5.903  -0.884  -2.207  0.00  0.00    -0.307 N 
ATOM     30  H   UNL     1      -5.201  -0.372  -2.638  0.00  0.00    +0.170 HD
ATOM     31  C   UNL     1      -5.966  -0.915  -0.851  0.00  0.00    +0.152 A 
ATOM     32  N   UNL     1      -6.899  -1.589  -0.234  0.00  0.00    -0.223 NA
ATOM     33  C   UNL     1     -10.938  -4.585  -2.484  0.00  0.00    +0.052 C 
ENDBRANCH  19  31
ENDBRANCH  18  19
ENDBRANCH   1  18
TORSDOF 5
