REMARK  Name = ZINC16737969
REMARK  5 active torsions:
REMARK  status: ('A' for Active; 'I' for Inactive)
REMARK    1  A    between atoms: C_6  and  S_7
REMARK    2  A    between atoms: S_7  and  C_8
REMARK    3  A    between atoms: C_11  and  S_17
REMARK    4  A    between atoms: C_13  and  N_14
REMARK    5  A    between atoms: S_17  and  N_20
REMARK                            x       y       z     vdW  Elec       q    Type
REMARK                         _______ _______ _______ _____ _____    ______ ____
ROOT
ATOM      1  C   UNL     1      -2.474   2.362   3.747  0.00  0.00    +0.043 A 
ATOM      2  C   UNL     1      -1.488   3.035   3.034  0.00  0.00    +0.019 A 
ATOM      3  C   UNL     1      -0.868   2.419   1.966  0.00  0.00    +0.030 A 
ATOM      4  C   UNL     1      -1.234   1.137   1.598  0.00  0.00    +0.107 A 
ATOM      5  C   UNL     1      -2.213   0.464   2.304  0.00  0.00    +0.062 A 
ATOM      6  C   UNL     1      -2.834   1.072   3.378  0.00  0.00    +0.142 A 
ENDROOT
BRANCH   6   7
ATOM      7  N   UNL     1      -3.883   0.350   4.134  0.00  0.00    +0.058 N 
ATOM      8  O   UNL     1      -4.198  -0.781   3.810  0.00  0.00    -0.126 OA
ATOM      9  O   UNL     1      -4.430   0.887   5.080  0.00  0.00    -0.126 OA
ENDBRANCH   6   7
BRANCH   4  10
ATOM     10  S   UNL     1      -0.443   0.356   0.230  0.00  0.00    +0.056 S 
ATOM     11  O   UNL     1      -0.574  -1.045   0.431  0.00  0.00    -0.153 OA
ATOM     12  O   UNL     1       0.820   0.989   0.075  0.00  0.00    -0.153 OA
BRANCH  10  13
ATOM     13  N   UNL     1      -1.326   0.725  -1.121  0.00  0.00    -0.204 NA
ATOM     14  H   UNL     1      -1.726   0.015  -1.649  0.00  0.00    +0.144 HD
ATOM     15  H   UNL     1      -1.444   1.651  -1.386  0.00  0.00    +0.144 HD
ENDBRANCH  10  13
ENDBRANCH   4  10
BRANCH   1  16
ATOM     16  S   UNL     1      -3.263   3.142   5.115  0.00  0.00    -0.087 S 
BRANCH  16  22
ATOM     17  C   UNL     1      -5.109   3.487   3.125  0.00  0.00    +0.018 A 
ATOM     18  C   UNL     1      -6.339   3.872   2.627  0.00  0.00    +0.042 A 
ATOM     19  C   UNL     1      -7.289   4.418   3.472  0.00  0.00    +0.158 A 
ATOM     20  C   UNL     1      -7.011   4.576   4.822  0.00  0.00    +0.159 A 
ATOM     21  C   UNL     1      -5.783   4.187   5.325  0.00  0.00    +0.056 A 
ATOM     22  C   UNL     1      -4.829   3.639   4.477  0.00  0.00    +0.016 A 
ATOM     23  F   UNL     1      -7.940   5.110   5.645  0.00  0.00    -0.202 F 
ATOM     24  F   UNL     1      -8.489   4.799   2.981  0.00  0.00    -0.202 F 
ENDBRANCH  16  22
ENDBRANCH   1  16
TORSDOF 5
