REMARK  Name = ZINC16688657
REMARK  10 active torsions:
REMARK  status: ('A' for Active; 'I' for Inactive)
REMARK    1  A    between atoms: C_1  and  C_2
REMARK    2  A    between atoms: C_2  and  O_3
REMARK    3  A    between atoms: O_3  and  C_4
REMARK    4  A    between atoms: C_6  and  C_20
REMARK    5  A    between atoms: C_9  and  O_10
REMARK    6  A    between atoms: O_10  and  C_11
REMARK    7  A    between atoms: C_11  and  C_12
REMARK    8  A    between atoms: C_20  and  N_51
REMARK    9  A    between atoms: C_21  and  C_22
REMARK   10  A    between atoms: C_21  and  N_51
REMARK                            x       y       z     vdW  Elec       q    Type
REMARK                         _______ _______ _______ _____ _____    ______ ____
ROOT
ATOM      1  C   UNL     1      -0.398   7.654  -2.873  0.00  0.00    +0.163 A 
ATOM      2  C   UNL     1      -0.405   6.269  -2.920  0.00  0.00    +0.051 A 
ATOM      3  C   UNL     1      -1.445   5.562  -2.345  0.00  0.00    -0.060 A 
ATOM      4  C   UNL     1      -2.483   6.234  -1.728  0.00  0.00    +0.021 A 
ATOM      5  C   UNL     1      -2.481   7.617  -1.673  0.00  0.00    +0.063 A 
ATOM      6  C   UNL     1      -1.440   8.331  -2.247  0.00  0.00    +0.176 A 
ATOM      7 BR   UNL     1      -3.899   8.532  -0.821  0.00  0.00    -0.046 Br
ENDROOT
BRANCH   1   8
ATOM      8  O   UNL     1       0.624   8.350  -3.438  0.00  0.00    -0.489 OA
BRANCH   8  10
ATOM      9  C   UNL     1       2.713   8.538  -4.638  0.00  0.00    +0.048 C 
ATOM     10  C   UNL     1       1.659   7.589  -4.064  0.00  0.00    +0.226 C 
ENDBRANCH   8  10
ENDBRANCH   1   8
BRANCH   6  11
ATOM     11  O   UNL     1      -1.439   9.690  -2.200  0.00  0.00    -0.483 OA
BRANCH  11  12
ATOM     12  C   UNL     1      -2.074  10.378  -3.279  0.00  0.00    +0.266 C 
BRANCH  12  13
ATOM     13  C   UNL     1      -1.974  11.865  -3.055  0.00  0.00    +0.008 A 
ATOM     14  C   UNL     1      -1.340  12.353  -1.928  0.00  0.00    +0.008 A 
ATOM     15  C   UNL     1      -1.244  13.717  -1.725  0.00  0.00    +0.000 A 
ATOM     16  C   UNL     1      -1.790  14.594  -2.644  0.00  0.00    +0.001 A 
ATOM     17  C   UNL     1      -2.429  14.107  -3.769  0.00  0.00    +0.020 A 
ATOM     18  C   UNL     1      -2.521  12.741  -3.975  0.00  0.00    +0.047 A 
ATOM     19 CL   UNL     1      -3.323  12.129  -5.387  0.00  0.00    -0.083 Cl
ENDBRANCH  12  13
ENDBRANCH  11  12
ENDBRANCH   6  11
BRANCH   3  20
ATOM     20  C   UNL     1      -1.450   4.056  -2.398  0.00  0.00    -0.047 C 
BRANCH  20  21
ATOM     21  N   UNL     1      -0.755   3.529  -1.208  0.00  0.00    +0.383 N 
ATOM     22  H   UNL     1      -1.240   3.850  -0.362  0.00  0.00    -0.085 HD
ATOM     23  H   UNL     1       0.212   3.874  -1.200  0.00  0.00    -0.085 HD
BRANCH  21  24
ATOM     24  C   UNL     1      -0.745   2.054  -1.233  0.00  0.00    -0.050 C 
BRANCH  24  25
ATOM     25  C   UNL     1      -0.019   1.537   0.011  0.00  0.00    +0.101 C 
ATOM     26  C   UNL     1       0.002  -0.004   0.002  0.00  0.00    +0.032 C 
ATOM     27  C   UNL     1       1.508  -0.363   0.039  0.00  0.00    +0.030 C 
ATOM     28  C   UNL     1       2.138   0.935   0.603  0.00  0.00    +0.160 C 
ATOM     29  O   UNL     1       1.348   1.983  -0.000  0.00  0.00    -0.378 OA
ENDBRANCH  24  25
ENDBRANCH  21  24
ENDBRANCH  20  21
ENDBRANCH   3  20
TORSDOF 9
