REMARK  Name = ZINC39851792
REMARK  13 active torsions:
REMARK  status: ('A' for Active; 'I' for Inactive)
REMARK    1  A    between atoms: C_1  and  C_2
REMARK    2  A    between atoms: C_2  and  C_3
REMARK    3  A    between atoms: C_3  and  C_4
REMARK    4  A    between atoms: C_4  and  N_5
REMARK    5  A    between atoms: C_6  and  N_26
REMARK    6  A    between atoms: C_7  and  C_15
REMARK    7  A    between atoms: C_8  and  C_14
REMARK    8  A    between atoms: C_9  and  C_12
REMARK    9  A    between atoms: N_19  and  C_23
REMARK   10  A    between atoms: C_23  and  C_24
REMARK   11  A    between atoms: C_23  and  C_25
REMARK   12  A    between atoms: N_26  and  C_27
REMARK   13  A    between atoms: C_27  and  C_28
REMARK                            x       y       z     vdW  Elec       q    Type
REMARK                         _______ _______ _______ _____ _____    ______ ____
ROOT
ATOM      1  N   UNL     1       1.774  -2.637  -2.591  0.00  0.00    -0.295 N 
ATOM      2  C   UNL     1       1.012  -2.894  -3.685  0.00  0.00    +0.109 A 
ATOM      3  C   UNL     1       1.452  -3.800  -4.664  0.00  0.00    +0.019 A 
ATOM      4  C   UNL     1       2.692  -4.441  -4.504  0.00  0.00    -0.017 A 
ATOM      5  C   UNL     1       3.455  -4.160  -3.374  0.00  0.00    +0.120 A 
ATOM      6  C   UNL     1       2.967  -3.233  -2.417  0.00  0.00    +0.270 A 
ATOM      7  O   UNL     1       3.632  -2.979  -1.429  0.00  0.00    -0.266 OA
ATOM      8  C   UNL     1       3.188  -5.418  -5.539  0.00  0.00    +0.046 C 
ENDROOT
BRANCH   3   9
ATOM      9  C   UNL     1       0.625  -4.074  -5.840  0.00  0.00    +0.032 C 
ATOM     10  C   UNL     1       1.061  -3.712  -7.078  0.00  0.00    +0.077 C 
ATOM     11  C   UNL     1       2.227  -2.977  -7.451  0.00  0.00    +0.259 C 
ATOM     12  O   UNL     1       3.009  -2.571  -6.609  0.00  0.00    -0.269 OA
ATOM     13  N   UNL     1       2.433  -2.750  -8.737  0.00  0.00    -0.253 N 
ATOM     14  C   UNL     1       1.565  -3.200  -9.670  0.00  0.00    +0.121 C 
ATOM     15  S   UNL     1       1.633  -3.024 -11.371  0.00  0.00    -0.027 S 
ATOM     16  S   UNL     1       0.334  -4.033  -8.679  0.00  0.00    -0.061 S 
BRANCH  13  17
ATOM     17  C   UNL     1       3.619  -1.999  -9.156  0.00  0.00    +0.077 C 
ATOM     18  C   UNL     1       4.475  -2.871 -10.076  0.00  0.00    +0.028 C 
ATOM     19  C   UNL     1       3.185  -0.739  -9.907  0.00  0.00    +0.028 C 
ENDBRANCH  13  17
ENDBRANCH   3   9
BRANCH   5  20
ATOM     20  C   UNL     1       4.723  -4.797  -3.181  0.00  0.00    +0.105 C 
ATOM     21  N   UNL     1       5.728  -5.302  -3.029  0.00  0.00    -0.191 NA
ENDBRANCH   5  20
BRANCH   2  22
ATOM     22  N   UNL     1      -0.191  -2.268  -3.834  0.00  0.00    -0.326 N 
ATOM     23  H   UNL     1      -0.233  -1.387  -4.237  0.00  0.00    +0.148 HD
BRANCH  22  24
ATOM     24  C   UNL     1      -1.420  -2.927  -3.385  0.00  0.00    +0.139 C 
BRANCH  24  25
ATOM     25  C   UNL     1      -2.583  -1.980  -3.538  0.00  0.00    -0.012 A 
ATOM     26  C   UNL     1      -3.057  -1.285  -2.442  0.00  0.00    +0.006 A 
ATOM     27  C   UNL     1      -4.123  -0.417  -2.582  0.00  0.00    +0.000 A 
ATOM     28  C   UNL     1      -4.716  -0.243  -3.819  0.00  0.00    +0.001 A 
ATOM     29  C   UNL     1      -4.242  -0.937  -4.916  0.00  0.00    +0.020 A 
ATOM     30  C   UNL     1      -3.171  -1.803  -4.777  0.00  0.00    +0.046 A 
ATOM     31 CL   UNL     1      -2.572  -2.670  -6.156  0.00  0.00    -0.083 Cl
ENDBRANCH  24  25
ENDBRANCH  22  24
ENDBRANCH   2  22
BRANCH   1  32
ATOM     32  C   UNL     1       1.291  -1.688  -1.585  0.00  0.00    +0.126 C 
BRANCH  32  33
ATOM     33  C   UNL     1       1.692  -0.268  -1.989  0.00  0.00    +0.021 C 
BRANCH  33  35
ATOM     34  C   UNL     1       1.487   2.154  -1.407  0.00  0.00    +0.004 C 
ATOM     35  C   UNL     1       1.086   0.734  -1.003  0.00  0.00    -0.002 C 
ENDBRANCH  33  35
ENDBRANCH  32  33
ENDBRANCH   1  32
TORSDOF 9
