REMARK  Name = ZINC39854944
REMARK  4 active torsions:
REMARK  status: ('A' for Active; 'I' for Inactive)
REMARK    1  A    between atoms: C_1  and  C_2
REMARK    2  A    between atoms: C_2  and  C_32
REMARK    3  A    between atoms: C_7  and  C_20
REMARK    4  A    between atoms: N_22  and  C_23
REMARK                            x       y       z     vdW  Elec       q    Type
REMARK                         _______ _______ _______ _____ _____    ______ ____
ROOT
ATOM      1  C   UNL     1      -0.012   1.548   0.024  0.00  0.00    +0.013 C 
ATOM      2  C   UNL     1      -0.002   0.018   0.014  0.00  0.00    -0.007 C 
ATOM      3  C   UNL     1      -1.397  -0.592   0.406  0.00  0.00    +0.047 C 
ATOM      4  C   UNL     1      -1.573   0.010   1.837  0.00  0.00    +0.012 C 
ATOM      5  C   UNL     1      -0.139   0.028   2.417  0.00  0.00    +0.024 C 
ATOM      6  C   UNL     1       0.747  -0.583   1.260  0.00  0.00    +0.096 C 
ATOM      7  C   UNL     1       0.308  -2.046   1.155  0.00  0.00    +0.079 A 
ATOM      8  C   UNL     1      -0.996  -2.051   0.635  0.00  0.00    +0.068 A 
ATOM      9  N   UNL     1      -1.633  -3.175   0.436  0.00  0.00    -0.248 NA
ATOM     10  C   UNL     1      -1.031  -4.335   0.729  0.00  0.00    +0.091 A 
ATOM     11  C   UNL     1      -1.686  -5.562   0.525  0.00  0.00    +0.051 A 
ATOM     12  C   UNL     1      -1.049  -6.726   0.829  0.00  0.00    +0.061 A 
ATOM     13  C   UNL     1       0.249  -6.721   1.342  0.00  0.00    +0.061 A 
ATOM     14  C   UNL     1       0.914  -5.551   1.553  0.00  0.00    +0.051 A 
ATOM     15  C   UNL     1       0.287  -4.330   1.251  0.00  0.00    +0.091 A 
ATOM     16  N   UNL     1       0.917  -3.164   1.449  0.00  0.00    -0.247 NA
ATOM     17 CL   UNL     1       1.028  -8.226   1.717  0.00  0.00    -0.082 Cl
ATOM     18 CL   UNL     1      -1.863  -8.238   0.576  0.00  0.00    -0.082 Cl
ATOM     19  C   UNL     1       0.528  -0.542  -1.308  0.00  0.00    +0.013 C 
ENDROOT
BRANCH   6  20
ATOM     20  C   UNL     1       2.228  -0.320   1.347  0.00  0.00    +0.230 C 
ATOM     21  O   UNL     1       2.781   0.325   0.482  0.00  0.00    -0.274 OA
ATOM     22  N   UNL     1       2.938  -0.802   2.387  0.00  0.00    -0.283 N 
ATOM     23  H   UNL     1       2.486  -1.262   3.111  0.00  0.00    +0.155 HD
BRANCH  22  24
ATOM     24  C   UNL     1       4.328  -0.639   2.421  0.00  0.00    +0.053 A 
ATOM     25  C   UNL     1       4.906   0.510   1.900  0.00  0.00    +0.046 A 
ATOM     26  C   UNL     1       6.279   0.669   1.935  0.00  0.00    +0.061 A 
ATOM     27  C   UNL     1       7.077  -0.319   2.488  0.00  0.00    +0.061 A 
ATOM     28  C   UNL     1       6.504  -1.465   3.007  0.00  0.00    +0.043 A 
ATOM     29  C   UNL     1       5.131  -1.626   2.980  0.00  0.00    +0.064 A 
ATOM     30 CL   UNL     1       4.411  -3.062   3.638  0.00  0.00    -0.082 Cl
ATOM     31 CL   UNL     1       8.801  -0.117   2.530  0.00  0.00    -0.082 Cl
ATOM     32 CL   UNL     1       7.003   2.106   1.284  0.00  0.00    -0.082 Cl
ENDBRANCH  22  24
ENDBRANCH   6  20
TORSDOF 2
