REMARK  Name = ZINC09518101
REMARK  7 active torsions:
REMARK  status: ('A' for Active; 'I' for Inactive)
REMARK    1  A    between atoms: C_5  and  C_7
REMARK    2  A    between atoms: N_9  and  C_10
REMARK    3  A    between atoms: C_11  and  N_29
REMARK    4  A    between atoms: C_13  and  S_18
REMARK    5  A    between atoms: S_18  and  C_19
REMARK    6  A    between atoms: C_19  and  C_20
REMARK    7  A    between atoms: C_24  and  N_26
REMARK                            x       y       z     vdW  Elec       q    Type
REMARK                         _______ _______ _______ _____ _____    ______ ____
ROOT
ATOM      1  C   UNL     1      -0.151  10.366  -0.913  0.00  0.00    +0.139 A 
ATOM      2  C   UNL     1      -0.138   9.442   0.128  0.00  0.00    +0.146 A 
ATOM      3  N   UNL     1      -0.126   8.133  -0.148  0.00  0.00    -0.207 NA
ATOM      4  C   UNL     1      -0.125   7.697  -1.391  0.00  0.00    +0.171 A 
ATOM      5  N   UNL     1      -0.132   8.559  -2.446  0.00  0.00    -0.300 N 
ATOM      6  H   UNL     1      -0.127   8.214  -3.352  0.00  0.00    +0.171 HD
ATOM      7  C   UNL     1      -0.150   9.892  -2.233  0.00  0.00    +0.275 A 
ATOM      8  O   UNL     1      -0.161  10.671  -3.173  0.00  0.00    -0.266 OA
ENDROOT
BRANCH   1  11
ATOM      9  C   UNL     1       0.831  12.533  -1.103  0.00  0.00    +0.251 C 
ATOM     10  O   UNL     1       1.696  12.063  -1.818  0.00  0.00    -0.270 OA
ATOM     11  N   UNL     1      -0.165  11.748  -0.646  0.00  0.00    -0.274 N 
ATOM     12  H   UNL     1      -0.891  12.136  -0.132  0.00  0.00    +0.155 HD
BRANCH   9  17
ATOM     13  C   UNL     1      -0.075  15.841   0.422  0.00  0.00    +0.001 A 
ATOM     14  C   UNL     1       0.949  16.646  -0.049  0.00  0.00    +0.003 A 
ATOM     15  C   UNL     1       1.935  16.118  -0.861  0.00  0.00    +0.039 A 
ATOM     16  C   UNL     1       1.904  14.780  -1.209  0.00  0.00    +0.135 A 
ATOM     17  C   UNL     1       0.873  13.963  -0.736  0.00  0.00    +0.072 A 
ATOM     18  C   UNL     1      -0.121  14.507   0.080  0.00  0.00    +0.016 A 
ATOM     19  F   UNL     1       2.868  14.264  -2.003  0.00  0.00    -0.205 F 
ENDBRANCH   9  17
ENDBRANCH   1  11
BRANCH   2  20
ATOM     20  N   UNL     1      -0.139   9.875   1.441  0.00  0.00    -0.341 N 
ATOM     21  H   UNL     1      -0.130   9.229   2.165  0.00  0.00    +0.144 HD
ATOM     22  H   UNL     1      -0.148  10.825   1.639  0.00  0.00    +0.144 HD
ENDBRANCH   2  20
BRANCH   4  23
ATOM     23  S   UNL     1      -0.109   5.962  -1.696  0.00  0.00    -0.083 S 
BRANCH  23  24
ATOM     24  C   UNL     1      -0.097   5.344   0.005  0.00  0.00    +0.112 C 
BRANCH  24  25
ATOM     25  C   UNL     1      -0.082   3.837  -0.007  0.00  0.00    -0.035 A 
ATOM     26  C   UNL     1       1.123   3.158  -0.017  0.00  0.00    +0.004 A 
ATOM     27  C   UNL     1       1.137   1.776  -0.030  0.00  0.00    +0.003 A 
ATOM     28  C   UNL     1      -0.054   1.073  -0.032  0.00  0.00    +0.033 A 
ATOM     29  C   UNL     1      -1.258   1.752  -0.028  0.00  0.00    +0.126 A 
ATOM     30  C   UNL     1      -1.272   3.134  -0.010  0.00  0.00    +0.037 A 
BRANCH  29  31
ATOM     31  N   UNL     1      -2.532   0.999  -0.037  0.00  0.00    +0.056 N 
ATOM     32  O   UNL     1      -2.519  -0.219  -0.048  0.00  0.00    -0.126 OA
ATOM     33  O   UNL     1      -3.593   1.597  -0.033  0.00  0.00    -0.126 OA
ENDBRANCH  29  31
ENDBRANCH  24  25
ENDBRANCH  23  24
ENDBRANCH   4  23
TORSDOF 7
