REMARK  Name = ZINC16648150
REMARK  12 active torsions:
REMARK  status: ('A' for Active; 'I' for Inactive)
REMARK    1  A    between atoms: C_1  and  C_2
REMARK    2  A    between atoms: C_2  and  C_3
REMARK    3  A    between atoms: C_2  and  C_4
REMARK    4  A    between atoms: C_4  and  N_5
REMARK    5  A    between atoms: N_5  and  C_6
REMARK    6  A    between atoms: C_6  and  C_7
REMARK    7  A    between atoms: N_9  and  C_10
REMARK    8  A    between atoms: N_9  and  C_22
REMARK    9  A    between atoms: C_10  and  C_11
REMARK   10  A    between atoms: C_11  and  C_12
REMARK   11  A    between atoms: C_22  and  C_23
REMARK   12  A    between atoms: C_31  and  C_33
REMARK                            x       y       z     vdW  Elec       q    Type
REMARK                         _______ _______ _______ _____ _____    ______ ____
ROOT
ATOM      1  C   UNL     1      -2.877  -1.991  -1.774  0.00  0.00    +0.233 C 
ATOM      2  O   UNL     1      -3.076  -0.798  -1.683  0.00  0.00    -0.274 OA
ATOM      3  N   UNL     1      -1.737  -2.523  -1.291  0.00  0.00    -0.296 N 
ENDROOT
BRANCH   1   4
ATOM      4  C   UNL     1      -3.905  -2.878  -2.429  0.00  0.00    +0.203 C 
BRANCH   4   5
ATOM      5  N   UNL     1      -5.048  -2.069  -2.855  0.00  0.00    -0.292 N 
ATOM      6  C   UNL     1      -6.084  -1.870  -2.016  0.00  0.00    +0.219 C 
ATOM      7  O   UNL     1      -6.037  -2.299  -0.882  0.00  0.00    -0.275 OA
BRANCH   6   8
ATOM      8  C   UNL     1      -7.301  -1.116  -2.486  0.00  0.00    +0.075 C 
ATOM      9  C   UNL     1      -7.147   0.412  -2.408  0.00  0.00    +0.013 C 
ATOM     10  C   UNL     1      -8.604   0.456  -1.919  0.00  0.00    +0.001 C 
ATOM     11  C   UNL     1      -8.395  -0.981  -1.413  0.00  0.00    +0.013 C 
ENDBRANCH   6   8
BRANCH   5  12
ATOM     12  C   UNL     1      -5.067  -1.475  -4.194  0.00  0.00    +0.111 C 
BRANCH  12  14
ATOM     13  C   UNL     1      -6.991  -2.901  -4.905  0.00  0.00    +0.009 C 
ATOM     14  C   UNL     1      -5.541  -2.518  -5.208  0.00  0.00    +0.000 C 
ATOM     15  C   UNL     1      -5.452  -1.935  -6.620  0.00  0.00    +0.009 C 
ENDBRANCH  12  14
ENDBRANCH   5  12
ENDBRANCH   4   5
ENDBRANCH   1   4
BRANCH   3  16
ATOM     16  C   UNL     1      -0.685  -1.648  -0.767  0.00  0.00    +0.113 C 
BRANCH  16  17
ATOM     17  C   UNL     1      -0.911  -1.419   0.729  0.00  0.00    +0.056 C 
BRANCH  17  18
ATOM     18  C   UNL     1       0.170  -0.520   1.269  0.00  0.00    -0.021 A 
ATOM     19  C   UNL     1       1.309  -0.908   1.864  0.00  0.00    +0.087 A 
ATOM     20  N   UNL     1       2.046   0.188   2.222  0.00  0.00    -0.360 N 
ATOM     21  H   UNL     1       2.907   0.159   2.668  0.00  0.00    +0.165 HD
ATOM     22  C   UNL     1       1.382   1.338   1.857  0.00  0.00    +0.047 A 
ATOM     23  C   UNL     1       0.178   0.945   1.244  0.00  0.00    +0.003 A 
ATOM     24  C   UNL     1      -0.711   1.912   0.772  0.00  0.00    +0.010 A 
ATOM     25  C   UNL     1      -0.402   3.237   0.900  0.00  0.00    +0.001 A 
ATOM     26  C   UNL     1       0.784   3.630   1.504  0.00  0.00    +0.002 A 
ATOM     27  C   UNL     1       1.674   2.692   1.982  0.00  0.00    +0.026 A 
ENDBRANCH  17  18
ENDBRANCH  16  17
ENDBRANCH   3  16
BRANCH   3  28
ATOM     28  C   UNL     1      -1.549  -3.976  -1.290  0.00  0.00    +0.143 C 
BRANCH  28  29
ATOM     29  C   UNL     1      -0.820  -4.389  -2.542  0.00  0.00    -0.029 A 
ATOM     30  C   UNL     1      -1.530  -4.847  -3.637  0.00  0.00    +0.007 A 
ATOM     31  C   UNL     1      -0.863  -5.221  -4.788  0.00  0.00    +0.022 A 
ATOM     32  C   UNL     1       0.518  -5.148  -4.841  0.00  0.00    +0.059 A 
ATOM     33  C   UNL     1       1.230  -4.694  -3.744  0.00  0.00    +0.060 A 
ATOM     34  C   UNL     1       0.559  -4.315  -2.594  0.00  0.00    +0.026 A 
ATOM     35 CL   UNL     1       2.962  -4.601  -3.810  0.00  0.00    -0.082 Cl
ATOM     36 CL   UNL     1       1.357  -5.623  -6.285  0.00  0.00    -0.082 Cl
ENDBRANCH  28  29
ENDBRANCH   3  28
TORSDOF 10
