REMARK  Name = ZINC35564061
REMARK  12 active torsions:
REMARK  status: ('A' for Active; 'I' for Inactive)
REMARK    1  A    between atoms: C_1  and  N_2
REMARK    2  A    between atoms: N_2  and  C_3
REMARK    3  A    between atoms: N_2  and  C_15
REMARK    4  A    between atoms: C_3  and  C_4
REMARK    5  A    between atoms: C_4  and  C_5
REMARK    6  A    between atoms: C_8  and  O_13
REMARK    7  A    between atoms: C_9  and  O_11
REMARK    8  A    between atoms: O_11  and  C_12
REMARK    9  A    between atoms: O_13  and  C_14
REMARK   10  A    between atoms: C_15  and  C_16
REMARK   11  A    between atoms: C_30  and  C_32
REMARK   12  A    between atoms: C_32  and  C_33
REMARK                            x       y       z     vdW  Elec       q    Type
REMARK                         _______ _______ _______ _____ _____    ______ ____
ROOT
ATOM      1  C   UNL     1      -1.953  -0.190  -1.421  0.00  0.00    +0.064 A 
ATOM      2  C   UNL     1      -2.266  -1.174  -2.313  0.00  0.00    +0.094 A 
ATOM      3  C   UNL     1      -2.836  -0.816  -3.547  0.00  0.00    +0.253 A 
ATOM      4  O   UNL     1      -3.128  -1.670  -4.368  0.00  0.00    -0.268 OA
ATOM      5  N   UNL     1      -3.054   0.491  -3.807  0.00  0.00    -0.295 N 
ATOM      6  H   UNL     1      -3.446   0.760  -4.652  0.00  0.00    +0.172 HD
ATOM      7  C   UNL     1      -2.722   1.428  -2.879  0.00  0.00    +0.199 A 
ATOM      8  N   UNL     1      -2.193   1.084  -1.721  0.00  0.00    -0.219 NA
ATOM      9  N   UNL     1      -2.945   2.751  -3.149  0.00  0.00    -0.298 N 
ATOM     10  C   UNL     1      -3.427   3.173  -4.472  0.00  0.00    +0.127 C 
ATOM     11  C   UNL     1      -4.713   3.989  -4.288  0.00  0.00    +0.127 C 
ATOM     12  N   UNL     1      -4.476   5.013  -3.261  0.00  0.00    -0.298 N 
ATOM     13  C   UNL     1      -3.993   4.592  -1.938  0.00  0.00    +0.127 C 
ATOM     14  C   UNL     1      -2.713   3.775  -2.120  0.00  0.00    +0.127 C 
ATOM     15  C   UNL     1      -4.696   6.316  -3.527  0.00  0.00    +0.220 C 
ATOM     16  O   UNL     1      -5.093   6.652  -4.622  0.00  0.00    -0.275 OA
ENDROOT
BRANCH   1  17
ATOM     17  C   UNL     1      -1.341  -0.547  -0.090  0.00  0.00    +0.139 C 
BRANCH  17  19
ATOM     18  C   UNL     1       0.004   1.464  -0.011  0.00  0.00    +0.105 C 
ATOM     19  N   UNL     1       0.022  -0.005  -0.017  0.00  0.00    -0.299 NA
BRANCH  19  20
ATOM     20  C   UNL     1       0.734  -0.528   1.157  0.00  0.00    +0.089 C 
BRANCH  20  21
ATOM     21  C   UNL     1       2.213  -0.145   1.068  0.00  0.00    +0.050 C 
BRANCH  21  22
ATOM     22  C   UNL     1       2.943  -0.682   2.272  0.00  0.00    -0.042 A 
ATOM     23  C   UNL     1       3.046   0.087   3.416  0.00  0.00    +0.007 A 
ATOM     24  C   UNL     1       3.715  -0.401   4.523  0.00  0.00    +0.049 A 
ATOM     25  C   UNL     1       4.285  -1.663   4.487  0.00  0.00    +0.161 A 
ATOM     26  C   UNL     1       4.181  -2.438   3.336  0.00  0.00    +0.162 A 
ATOM     27  C   UNL     1       3.505  -1.945   2.231  0.00  0.00    +0.053 A 
BRANCH  26  28
ATOM     28  O   UNL     1       4.739  -3.677   3.296  0.00  0.00    -0.491 OA
ATOM     29  C   UNL     1       4.593  -4.415   2.081  0.00  0.00    +0.277 C 
ENDBRANCH  26  28
BRANCH  25  30
ATOM     30  O   UNL     1       4.944  -2.144   5.575  0.00  0.00    -0.491 OA
ATOM     31  C   UNL     1       5.010  -1.294   6.722  0.00  0.00    +0.277 C 
ENDBRANCH  25  30
ENDBRANCH  21  22
ENDBRANCH  20  21
ENDBRANCH  19  20
ENDBRANCH  17  19
ENDBRANCH   1  17
BRANCH  15  32
ATOM     32  C   UNL     1      -4.448   7.355  -2.464  0.00  0.00    +0.138 C 
BRANCH  32  33
ATOM     33  C   UNL     1      -4.768   8.722  -3.013  0.00  0.00    -0.001 A 
ATOM     34  C   UNL     1      -5.943   9.397  -2.988  0.00  0.00    +0.011 A 
ATOM     35  C   UNL     1      -6.005  10.654  -3.560  0.00  0.00    +0.008 A 
ATOM     36  C   UNL     1      -4.890  11.174  -4.128  0.00  0.00    +0.045 A 
ATOM     37  S   UNL     1      -3.697   9.874  -3.856  0.00  0.00    -0.101 S 
ENDBRANCH  32  33
ENDBRANCH  15  32
TORSDOF 9
