REMARK  Name = ZINC10041972
REMARK  9 active torsions:
REMARK  status: ('A' for Active; 'I' for Inactive)
REMARK    1  A    between atoms: C_1  and  C_2
REMARK    2  A    between atoms: C_2  and  C_3
REMARK    3  A    between atoms: C_2  and  C_4
REMARK    4  A    between atoms: C_4  and  C_6
REMARK    5  A    between atoms: C_4  and  N_21
REMARK    6  A    between atoms: N_8  and  N_9
REMARK    7  A    between atoms: C_10  and  C_11
REMARK    8  A    between atoms: C_13  and  N_18
REMARK    9  A    between atoms: C_22  and  C_24
REMARK                            x       y       z     vdW  Elec       q    Type
REMARK                         _______ _______ _______ _____ _____    ______ ____
ROOT
ATOM      1  C   UNL     1       5.062  -2.290  -0.179  0.00  0.00    +0.163 C 
ENDROOT
BRANCH   1   2
ATOM      2  C   UNL     1       3.711  -1.649   0.001  0.00  0.00    +0.253 C 
ATOM      3  O   UNL     1       2.763  -2.319   0.352  0.00  0.00    -0.272 OA
ATOM      4  N   UNL     1       3.555  -0.330  -0.228  0.00  0.00    -0.205 N 
ATOM      5  H   UNL     1       4.326   0.221  -0.438  0.00  0.00    +0.177 HD
BRANCH   4   6
ATOM      6  N   UNL     1       2.280   0.247  -0.163  0.00  0.00    -0.188 NA
ATOM      7  C   UNL     1       2.130   1.517  -0.383  0.00  0.00    +0.139 C 
BRANCH   7   8
ATOM      8  C   UNL     1       0.788   2.124  -0.314  0.00  0.00    +0.015 A 
ATOM      9  C   UNL     1       0.622   3.491  -0.550  0.00  0.00    +0.043 A 
ATOM     10  C   UNL     1      -0.636   4.052  -0.484  0.00  0.00    +0.127 A 
ATOM     11  C   UNL     1      -1.734   3.264  -0.185  0.00  0.00    +0.034 A 
ATOM     12  C   UNL     1      -1.580   1.909   0.045  0.00  0.00    +0.023 A 
ATOM     13  C   UNL     1      -0.325   1.334  -0.012  0.00  0.00    +0.050 A 
ATOM     14 CL   UNL     1      -0.133  -0.366   0.283  0.00  0.00    -0.083 Cl
BRANCH  10  15
ATOM     15  N   UNL     1      -0.812   5.500  -0.734  0.00  0.00    +0.056 N 
ATOM     16  O   UNL     1       0.153   6.194  -0.998  0.00  0.00    -0.126 OA
ATOM     17  O   UNL     1      -1.923   5.997  -0.676  0.00  0.00    -0.126 OA
ENDBRANCH  10  15
ENDBRANCH   7   8
ENDBRANCH   4   6
ENDBRANCH   1   2
BRANCH   1  18
ATOM     18  N   UNL     1       4.897  -3.733  -0.370  0.00  0.00    -0.300 N 
ATOM     19  C   UNL     1       5.836  -4.438  -1.031  0.00  0.00    +0.246 C 
ATOM     20  O   UNL     1       6.822  -3.876  -1.469  0.00  0.00    -0.270 OA
ATOM     21  H   UNL     1       4.110  -4.181  -0.021  0.00  0.00    +0.150 HD
BRANCH  19  22
ATOM     22  C   UNL     1       5.669  -5.893  -1.224  0.00  0.00    +0.055 A 
ATOM     23  C   UNL     1       4.538  -6.541  -0.722  0.00  0.00    +0.016 A 
ATOM     24  C   UNL     1       4.388  -7.899  -0.905  0.00  0.00    +0.021 A 
ATOM     25  C   UNL     1       5.355  -8.622  -1.585  0.00  0.00    +0.042 A 
ATOM     26  C   UNL     1       6.479  -7.986  -2.084  0.00  0.00    +0.040 A 
ATOM     27  C   UNL     1       6.639  -6.625  -1.913  0.00  0.00    +0.054 A 
ATOM     28 CL   UNL     1       8.044  -5.828  -2.547  0.00  0.00    -0.083 Cl
ATOM     29 CL   UNL     1       5.157 -10.332  -1.810  0.00  0.00    -0.083 Cl
ENDBRANCH  19  22
ENDBRANCH   1  18
BRANCH   1  31
ATOM     30  C   UNL     1       5.300  -2.755   2.264  0.00  0.00    +0.009 C 
ATOM     31  C   UNL     1       5.918  -2.035   1.063  0.00  0.00    +0.012 C 
ATOM     32  C   UNL     1       7.334  -2.564   0.825  0.00  0.00    +0.009 C 
ENDBRANCH   1  31
TORSDOF 7
