REMARK  Name = ZINC58614117
REMARK  10 active torsions:
REMARK  status: ('A' for Active; 'I' for Inactive)
REMARK    1  A    between atoms: C_1  and  C_2
REMARK    2  A    between atoms: C_6  and  C_33
REMARK    3  A    between atoms: C_7  and  O_8
REMARK    4  A    between atoms: O_8  and  C_9
REMARK    5  A    between atoms: C_9  and  C_10
REMARK    6  A    between atoms: C_10  and  C_12
REMARK    7  A    between atoms: C_10  and  O_32
REMARK    8  A    between atoms: C_12  and  N_13
REMARK    9  A    between atoms: N_16  and  C_19
REMARK   10  A    between atoms: C_19  and  C_20
REMARK                            x       y       z     vdW  Elec       q    Type
REMARK                         _______ _______ _______ _____ _____    ______ ____
ROOT
ATOM      1  N   UNL     1      -2.200   2.280   6.028  0.00  0.00    -0.303 NA
ATOM      2  C   UNL     1      -1.544   3.551   5.690  0.00  0.00    +0.066 C 
ATOM      3  C   UNL     1      -1.299   4.352   6.971  0.00  0.00    -0.063 C 
ATOM      4  N   UNL     1      -2.581   4.606   7.642  0.00  0.00    +0.386 N 
ATOM      5  C   UNL     1      -3.212   3.328   7.995  0.00  0.00    -0.063 C 
ATOM      6  C   UNL     1      -3.473   2.519   6.723  0.00  0.00    +0.066 C 
ATOM      7  H   UNL     1      -3.188   5.121   7.023  0.00  0.00    -0.081 HD
ENDROOT
BRANCH   1   8
ATOM      8  C   UNL     1      -2.401   1.456   4.828  0.00  0.00    +0.119 C 
BRANCH   8   9
ATOM      9  C   UNL     1      -1.043   1.022   4.274  0.00  0.00    +0.166 C 
BRANCH   9  10
ATOM     10  O   UNL     1      -0.396   0.166   5.217  0.00  0.00    -0.387 OA
ATOM     11  H   UNL     1      -0.891  -0.639   5.421  0.00  0.00    +0.210 HD
ENDBRANCH   9  10
BRANCH   9  12
ATOM     12  C   UNL     1      -1.246   0.270   2.957  0.00  0.00    +0.261 C 
BRANCH  12  13
ATOM     13  O   UNL     1       0.025  -0.033   2.381  0.00  0.00    -0.489 OA
BRANCH  13  20
ATOM     14  C   UNL     1      -0.018   1.503   0.010  0.00  0.00    +0.047 C 
ATOM     15  C   UNL     1       0.002  -0.004   0.002  0.00  0.00    -0.009 A 
ATOM     16  C   UNL     1       0.006  -0.689  -1.198  0.00  0.00    +0.007 A 
ATOM     17  C   UNL     1       0.024  -2.071  -1.206  0.00  0.00    +0.001 A 
ATOM     18  C   UNL     1       0.040  -2.772  -0.014  0.00  0.00    +0.007 A 
ATOM     19  C   UNL     1       0.036  -2.092   1.188  0.00  0.00    -0.009 A 
ATOM     20  C   UNL     1       0.023  -0.705   1.199  0.00  0.00    +0.126 A 
ATOM     21  C   UNL     1       0.052  -2.856   2.487  0.00  0.00    +0.047 C 
ENDBRANCH  13  20
ENDBRANCH  12  13
ENDBRANCH   9  12
ENDBRANCH   8   9
ENDBRANCH   1   8
BRANCH   4  22
ATOM     22  C   UNL     1      -2.347   5.390   8.862  0.00  0.00    -0.003 C 
BRANCH  22  23
ATOM     23  C   UNL     1      -3.670   5.756   9.485  0.00  0.00    +0.094 A 
ATOM     24  N   UNL     1      -3.663   6.491  10.627  0.00  0.00    -0.312 N 
ATOM     25  H   UNL     1      -2.818   6.765  11.018  0.00  0.00    +0.170 HD
ATOM     26  C   UNL     1      -4.824   6.846  11.226  0.00  0.00    +0.259 A 
ATOM     27  O   UNL     1      -4.832   7.505  12.249  0.00  0.00    -0.267 OA
ATOM     28  C   UNL     1      -6.075   6.404  10.591  0.00  0.00    +0.065 A 
ATOM     29  C   UNL     1      -7.323   6.715  11.127  0.00  0.00    +0.015 A 
ATOM     30  C   UNL     1      -8.463   6.275  10.492  0.00  0.00    +0.001 A 
ATOM     31  C   UNL     1      -8.377   5.526   9.325  0.00  0.00    +0.002 A 
ATOM     32  C   UNL     1      -7.154   5.207   8.780  0.00  0.00    +0.028 A 
ATOM     33  C   UNL     1      -5.984   5.642   9.405  0.00  0.00    +0.078 A 
ATOM     34  N   UNL     1      -4.758   5.356   8.900  0.00  0.00    -0.236 NA
ENDBRANCH  22  23
ENDBRANCH   4  22
TORSDOF 8
