REMARK  Name = ZINC64245418
REMARK  3 active torsions:
REMARK  status: ('A' for Active; 'I' for Inactive)
REMARK    1  A    between atoms: C_3  and  S_9
REMARK    2  A    between atoms: C_5  and  N_6
REMARK    3  A    between atoms: S_9  and  N_12
REMARK                            x       y       z     vdW  Elec       q    Type
REMARK                         _______ _______ _______ _____ _____    ______ ____
ROOT
ATOM      1  N   UNL     1       4.477   2.089   1.552  0.00  0.00    -0.202 N 
ATOM      2  C   UNL     1       4.359   3.381   2.242  0.00  0.00    +0.132 C 
ATOM      3  C   UNL     1       5.662   3.620   3.015  0.00  0.00    +0.025 C 
ATOM      4  C   UNL     1       5.813   2.533   4.078  0.00  0.00    +0.039 C 
ATOM      5  C   UNL     1       5.648   1.168   3.463  0.00  0.00    -0.022 A 
ATOM      6  C   UNL     1       4.994   0.992   2.253  0.00  0.00    +0.057 A 
ATOM      7  C   UNL     1       4.848  -0.282   1.716  0.00  0.00    +0.066 A 
ATOM      8  C   UNL     1       5.354  -1.379   2.389  0.00  0.00    +0.160 A 
ATOM      9  C   UNL     1       6.006  -1.204   3.600  0.00  0.00    +0.159 A 
ATOM     10  C   UNL     1       6.159   0.067   4.131  0.00  0.00    +0.046 A 
ATOM     11  F   UNL     1       6.503  -2.274   4.259  0.00  0.00    -0.202 F 
ATOM     12  F   UNL     1       5.213  -2.617   1.868  0.00  0.00    -0.202 F 
ENDROOT
BRANCH   1  13
ATOM     13  S   UNL     1       4.001   1.932  -0.026  0.00  0.00    +0.081 S 
ATOM     14  O   UNL     1       4.838   0.941  -0.606  0.00  0.00    -0.149 OA
ATOM     15  O   UNL     1       3.900   3.247  -0.553  0.00  0.00    -0.149 OA
BRANCH  13  18
ATOM     16  C   UNL     1       0.011   1.184   0.018  0.00  0.00    +0.042 A 
ATOM     17  C   UNL     1       1.181   1.920   0.014  0.00  0.00    +0.039 A 
ATOM     18  C   UNL     1       2.369   1.267  -0.014  0.00  0.00    +0.148 A 
ATOM     19  S   UNL     1       1.850  -0.441  -0.037  0.00  0.00    -0.044 S 
ATOM     20  C   UNL     1       0.086  -0.169  -0.007  0.00  0.00    +0.165 A 
BRANCH  20  21
ATOM     21  N   UNL     1      -1.011  -1.163  -0.009  0.00  0.00    +0.063 N 
ATOM     22  O   UNL     1      -2.162  -0.794   0.014  0.00  0.00    -0.126 OA
ATOM     23  O   UNL     1      -0.755  -2.345  -0.033  0.00  0.00    -0.126 OA
ENDBRANCH  20  21
ENDBRANCH  13  18
ENDBRANCH   1  13
TORSDOF 3
