REMARK  Name = ZINC13640739
REMARK  16 active torsions:
REMARK  status: ('A' for Active; 'I' for Inactive)
REMARK    1  A    between atoms: C_1  and  C_2
REMARK    2  A    between atoms: C_2  and  N_3
REMARK    3  A    between atoms: N_3  and  C_4
REMARK    4  A    between atoms: N_3  and  C_6
REMARK    5  A    between atoms: C_4  and  C_5
REMARK    6  A    between atoms: C_6  and  C_7
REMARK    7  A    between atoms: C_7  and  N_8
REMARK    8  A    between atoms: N_17  and  C_18
REMARK    9  A    between atoms: C_18  and  C_20
REMARK   10  A    between atoms: C_23  and  C_25
REMARK   11  A    between atoms: C_25  and  O_26
REMARK   12  A    between atoms: O_26  and  C_27
REMARK   13  A    between atoms: C_30  and  C_35
REMARK   14  A    between atoms: C_32  and  O_33
REMARK   15  A    between atoms: O_33  and  C_34
REMARK   16  A    between atoms: C_35  and  C_36
REMARK                            x       y       z     vdW  Elec       q    Type
REMARK                         _______ _______ _______ _____ _____    ______ ____
ROOT
ATOM      1  C   UNL     1       4.647  -4.721  -0.251  0.00  0.00    +0.305 C 
ATOM      2  O   UNL     1       4.393  -5.885  -0.513  0.00  0.00    -0.265 OA
ENDROOT
BRANCH   1  12
ATOM      3  N   UNL     1       1.764  -3.953   1.748  0.00  0.00    -0.314 N 
ATOM      4  C   UNL     1       0.834  -4.903   2.159  0.00  0.00    +0.068 A 
ATOM      5  C   UNL     1      -0.350  -4.819   2.878  0.00  0.00    +0.028 A 
ATOM      6  C   UNL     1      -1.078  -5.963   3.140  0.00  0.00    +0.002 A 
ATOM      7  C   UNL     1      -0.632  -7.193   2.688  0.00  0.00    +0.002 A 
ATOM      8  C   UNL     1       0.544  -7.287   1.972  0.00  0.00    +0.028 A 
ATOM      9  C   UNL     1       1.284  -6.144   1.704  0.00  0.00    +0.066 A 
ATOM     10  N   UNL     1       2.478  -5.925   1.025  0.00  0.00    -0.326 N 
ATOM     11  C   UNL     1       2.749  -4.591   1.059  0.00  0.00    +0.201 A 
ATOM     12  N   UNL     1       3.806  -4.007   0.510  0.00  0.00    -0.140 NA
ATOM     13  H   UNL     1       3.023  -6.604   0.598  0.00  0.00    +0.169 HD
BRANCH   3  14
ATOM     14  C   UNL     1       1.692  -2.513   2.008  0.00  0.00    +0.106 C 
BRANCH  14  15
ATOM     15  C   UNL     1       0.929  -1.827   0.873  0.00  0.00    -0.057 C 
BRANCH  15  16
ATOM     16  N   UNL     1       0.748  -0.405   1.194  0.00  0.00    +0.380 N 
ATOM     17  H   UNL     1       0.284  -0.318   2.085  0.00  0.00    -0.082 HD
BRANCH  16  19
ATOM     18  C   UNL     1       1.882   1.702   1.714  0.00  0.00    -0.017 C 
ATOM     19  C   UNL     1       2.060   0.253   1.259  0.00  0.00    -0.082 C 
ENDBRANCH  16  19
BRANCH  16  20
ATOM     20  C   UNL     1      -0.068   0.232   0.152  0.00  0.00    -0.082 C 
ATOM     21  C   UNL     1      -1.473  -0.373   0.165  0.00  0.00    -0.017 C 
ENDBRANCH  16  20
ENDBRANCH  15  16
ENDBRANCH  14  15
ENDBRANCH   3  14
ENDBRANCH   1  12
BRANCH   1  22
ATOM     22  C   UNL     1       5.876  -4.102  -0.770  0.00  0.00    +0.192 A 
ATOM     23  C   UNL     1       6.810  -4.710  -1.555  0.00  0.00    +0.055 A 
ATOM     24  C   UNL     1       7.808  -3.755  -1.812  0.00  0.00    +0.049 A 
ATOM     25  C   UNL     1       7.441  -2.619  -1.178  0.00  0.00    +0.143 A 
ATOM     26  O   UNL     1       6.274  -2.831  -0.556  0.00  0.00    -0.452 OA
BRANCH  25  27
ATOM     27  C   UNL     1       8.215  -1.326  -1.177  0.00  0.00    +0.303 C 
BRANCH  27  28
ATOM     28  O   UNL     1       7.794  -0.518  -2.278  0.00  0.00    -0.481 OA
BRANCH  28  29
ATOM     29  C   UNL     1       8.399   0.692  -2.422  0.00  0.00    +0.163 A 
ATOM     30  C   UNL     1       9.379   1.089  -1.528  0.00  0.00    +0.050 A 
ATOM     31  C   UNL     1       9.993   2.319  -1.676  0.00  0.00    +0.008 A 
ATOM     32  C   UNL     1       9.630   3.155  -2.716  0.00  0.00    -0.040 A 
ATOM     33  C   UNL     1       8.652   2.764  -3.612  0.00  0.00    +0.053 A 
ATOM     34  C   UNL     1       8.037   1.530  -3.472  0.00  0.00    +0.162 A 
BRANCH  34  35
ATOM     35  O   UNL     1       7.079   1.142  -4.356  0.00  0.00    -0.491 OA
ATOM     36  C   UNL     1       6.760   2.055  -5.408  0.00  0.00    +0.277 C 
ENDBRANCH  34  35
BRANCH  32  37
ATOM     37  C   UNL     1      10.302   4.495  -2.873  0.00  0.00    +0.061 C 
BRANCH  37  38
ATOM     38  C   UNL     1      11.519   4.347  -3.750  0.00  0.00    -0.030 C 
ATOM     39  C   UNL     1      11.649   5.091  -4.820  0.00  0.00    +0.004 C 
ENDBRANCH  37  38
ENDBRANCH  32  37
ENDBRANCH  28  29
ENDBRANCH  27  28
ENDBRANCH  25  27
ENDBRANCH   1  22
TORSDOF 13
