REMARK  Name = ZINC20731324
REMARK  11 active torsions:
REMARK  status: ('A' for Active; 'I' for Inactive)
REMARK    1  A    between atoms: C_1  and  O_2
REMARK    2  A    between atoms: O_2  and  C_3
REMARK    3  A    between atoms: C_6  and  C_10
REMARK    4  A    between atoms: N_23  and  C_24
REMARK    5  A    between atoms: C_24  and  C_26
REMARK    6  A    between atoms: C_24  and  C_30
REMARK    7  A    between atoms: C_26  and  C_27
REMARK    8  A    between atoms: C_27  and  S_28
REMARK    9  A    between atoms: S_28  and  C_29
REMARK   10  A    between atoms: C_30  and  O_32
REMARK   11  A    between atoms: O_32  and  C_33
REMARK                            x       y       z     vdW  Elec       q    Type
REMARK                         _______ _______ _______ _____ _____    ______ ____
ROOT
ATOM      1  C   UNL     1      -4.984  -2.623   0.036  0.00  0.00    +0.159 C 
ATOM      2  C   UNL     1      -5.325  -3.065   1.437  0.00  0.00    +0.064 A 
ATOM      3  C   UNL     1      -6.288  -2.501   2.197  0.00  0.00    +0.066 A 
ATOM      4  N   UNL     1      -6.308  -3.138   3.371  0.00  0.00    -0.240 NA
ATOM      5  C   UNL     1      -5.398  -4.077   3.367  0.00  0.00    +0.197 A 
ATOM      6  N   UNL     1      -4.763  -4.062   2.172  0.00  0.00    -0.346 N 
ATOM      7  H   UNL     1      -4.044  -4.650   1.893  0.00  0.00    +0.167 HD
ATOM      8  C   UNL     1      -7.164  -1.357   1.750  0.00  0.00    +0.076 C 
ATOM      9  C   UNL     1      -6.509  -0.672   0.544  0.00  0.00    +0.116 C 
ATOM     10  N   UNL     1      -6.045  -1.699  -0.403  0.00  0.00    -0.273 N 
ATOM     11  C   UNL     1      -6.576  -1.793  -1.639  0.00  0.00    +0.304 C 
ATOM     12  O   UNL     1      -6.250  -2.705  -2.373  0.00  0.00    -0.253 OA
ATOM     13  N   UNL     1      -7.468  -0.875  -2.060  0.00  0.00    -0.286 N 
ATOM     14  H   UNL     1      -7.672  -0.106  -1.504  0.00  0.00    +0.151 HD
ENDROOT
BRANCH   1  18
ATOM     15  C   UNL     1      -1.208  -0.619   0.022  0.00  0.00    +0.123 A 
ATOM     16  C   UNL     1      -1.870  -0.847   1.219  0.00  0.00    +0.046 A 
ATOM     17  C   UNL     1      -3.090  -1.495   1.221  0.00  0.00    +0.012 A 
ATOM     18  C   UNL     1      -3.653  -1.917   0.031  0.00  0.00    +0.014 A 
ATOM     19  C   UNL     1      -2.994  -1.691  -1.167  0.00  0.00    +0.132 A 
ATOM     20  C   UNL     1      -1.774  -1.037  -1.173  0.00  0.00    +0.084 A 
ATOM     21  F   UNL     1      -3.545  -2.104  -2.329  0.00  0.00    -0.205 F 
BRANCH  15  23
ATOM     22  C   UNL     1       0.517   0.420   1.286  0.00  0.00    +0.277 C 
ATOM     23  O   UNL     1      -0.007   0.018   0.019  0.00  0.00    -0.495 OA
ENDBRANCH  15  23
ENDBRANCH   1  18
BRANCH  13  24
ATOM     24  C   UNL     1      -8.130  -1.038  -3.356  0.00  0.00    +0.184 C 
BRANCH  24  25
ATOM     25  C   UNL     1      -7.253  -0.472  -4.443  0.00  0.00    +0.327 C 
ATOM     26  O   UNL     1      -6.184   0.017  -4.163  0.00  0.00    -0.249 OA
BRANCH  25  27
ATOM     27  O   UNL     1      -7.659  -0.512  -5.722  0.00  0.00    -0.467 OA
ATOM     28  C   UNL     1      -6.776   0.043  -6.700  0.00  0.00    +0.280 C 
ENDBRANCH  25  27
ENDBRANCH  24  25
BRANCH  24  29
ATOM     29  C   UNL     1      -9.468  -0.295  -3.343  0.00  0.00    +0.044 C 
BRANCH  29  30
ATOM     30  C   UNL     1     -10.405  -0.950  -2.325  0.00  0.00    +0.071 C 
BRANCH  30  31
ATOM     31  S   UNL     1     -11.991  -0.070  -2.309  0.00  0.00    -0.164 S 
ATOM     32  C   UNL     1     -12.973  -0.958  -1.069  0.00  0.00    +0.084 C 
ENDBRANCH  30  31
ENDBRANCH  29  30
ENDBRANCH  24  29
ENDBRANCH  13  24
TORSDOF 8
