REMARK  Name = ZINC24902135
REMARK  11 active torsions:
REMARK  status: ('A' for Active; 'I' for Inactive)
REMARK    1  A    between atoms: C_1  and  C_2
REMARK    2  A    between atoms: C_5  and  C_30
REMARK    3  A    between atoms: C_6  and  S_8
REMARK    4  A    between atoms: S_8  and  C_9
REMARK    5  A    between atoms: C_12  and  N_15
REMARK    6  A    between atoms: C_16  and  C_18
REMARK    7  A    between atoms: C_18  and  S_19
REMARK    8  A    between atoms: S_19  and  C_20
REMARK    9  A    between atoms: C_22  and  C_29
REMARK   10  A    between atoms: C_23  and  C_25
REMARK   11  A    between atoms: C_25  and  C_26
REMARK                            x       y       z     vdW  Elec       q    Type
REMARK                         _______ _______ _______ _____ _____    ______ ____
ROOT
ATOM      1  N   UNL     1       0.004   7.948   0.545  0.00  0.00    -0.285 N 
ATOM      2  C   UNL     1       1.071   8.420  -0.129  0.00  0.00    +0.227 C 
ATOM      3  O   UNL     1       1.767   7.661  -0.771  0.00  0.00    -0.275 OA
ATOM      4  H   UNL     1      -0.588   8.624   1.180  0.00  0.00    +0.155 HD
ENDROOT
BRANCH   1   8
ATOM      5  C   UNL     1      -1.055   3.927   0.225  0.00  0.00    +0.013 A 
ATOM      6  C   UNL     1       0.285   4.296   0.214  0.00  0.00    +0.017 A 
ATOM      7  C   UNL     1       0.634   5.627   0.314  0.00  0.00    +0.024 A 
ATOM      8  C   UNL     1      -0.352   6.597   0.438  0.00  0.00    +0.033 A 
ATOM      9  C   UNL     1      -1.690   6.228   0.456  0.00  0.00    +0.024 A 
ATOM     10  C   UNL     1      -2.041   4.898   0.349  0.00  0.00    +0.017 A 
BRANCH   5  11
ATOM     11  S   UNL     1      -1.502   2.228   0.089  0.00  0.00    -0.089 S 
BRANCH  11  17
ATOM     12  C   UNL     1       2.168  -0.609   2.510  0.00  0.00    +0.044 C 
ATOM     13  C   UNL     1       1.692   0.082   1.258  0.00  0.00    -0.049 A 
ATOM     14  C   UNL     1       2.471   0.055   0.116  0.00  0.00    +0.004 A 
ATOM     15  C   UNL     1       2.039   0.687  -1.035  0.00  0.00    +0.005 A 
ATOM     16  C   UNL     1       0.827   1.349  -1.048  0.00  0.00    -0.037 A 
ATOM     17  C   UNL     1       0.042   1.379   0.098  0.00  0.00    +0.016 A 
ATOM     18  C   UNL     1       0.479   0.742   1.253  0.00  0.00    +0.018 A 
ATOM     19  C   UNL     1       0.357   2.039  -2.303  0.00  0.00    +0.045 C 
ENDBRANCH  11  17
ENDBRANCH   5  11
ENDBRANCH   1   8
BRANCH   2  20
ATOM     20  C   UNL     1       1.400   9.890  -0.087  0.00  0.00    +0.172 C 
BRANCH  20  21
ATOM     21  S   UNL     1       2.877  10.206  -1.084  0.00  0.00    -0.089 S 
BRANCH  21  22
ATOM     22  C   UNL     1       3.028  11.948  -0.862  0.00  0.00    +0.135 A 
ATOM     23  N   UNL     1       2.261  12.765  -0.166  0.00  0.00    -0.238 NA
ATOM     24  C   UNL     1       2.521  14.057  -0.101  0.00  0.00    +0.050 A 
ATOM     25  C   UNL     1       3.593  14.535  -0.778  0.00  0.00    +0.022 A 
ATOM     26  S   UNL     1       4.221  13.031  -1.511  0.00  0.00    -0.065 S 
ATOM     27  C   UNL     1       1.643  14.981   0.702  0.00  0.00    +0.066 C 
BRANCH  25  28
ATOM     28  C   UNL     1       4.112  15.945  -0.884  0.00  0.00    +0.139 C 
BRANCH  28  29
ATOM     29  C   UNL     1       5.103  16.200   0.224  0.00  0.00    +0.215 C 
ATOM     30  O   UNL     1       5.361  15.323   1.020  0.00  0.00    -0.276 OA
ATOM     31  N   UNL     1       5.701  17.404   0.328  0.00  0.00    -0.329 N 
ATOM     32  H   UNL     1       6.424  17.590   1.137  0.00  0.00    +0.145 HD
ATOM     33  H   UNL     1       5.467  18.199  -0.394  0.00  0.00    +0.145 HD
ENDBRANCH  28  29
ENDBRANCH  25  28
ENDBRANCH  21  22
ENDBRANCH  20  21
ENDBRANCH   2  20
TORSDOF 8
