REMARK  Name = ZINC64337903
REMARK  7 active torsions:
REMARK  status: ('A' for Active; 'I' for Inactive)
REMARK    1  A    between atoms: C_1  and  C_2
REMARK    2  A    between atoms: C_2  and  C_4
REMARK    3  A    between atoms: C_2  and  N_34
REMARK    4  A    between atoms: C_8  and  S_17
REMARK    5  A    between atoms: N_9  and  C_10
REMARK    6  A    between atoms: S_17  and  C_18
REMARK    7  A    between atoms: C_18  and  C_19
REMARK                            x       y       z     vdW  Elec       q    Type
REMARK                         _______ _______ _______ _____ _____    ______ ____
ROOT
ATOM      1  C   UNL     1       0.710  -0.477  -1.244  0.00  0.00    +0.168 C 
ATOM      2  N   UNL     1       2.074   0.075  -1.325  0.00  0.00    -0.248 N 
ATOM      3  N   UNL     1       2.126   0.813  -2.514  0.00  0.00    -0.162 NA
ATOM      4  C   UNL     1       0.999   0.777  -3.142  0.00  0.00    +0.180 C 
ATOM      5  N   UNL     1       0.052   0.017  -2.465  0.00  0.00    -0.260 N 
ATOM      6  H   UNL     1       2.791  -0.047  -0.684  0.00  0.00    +0.170 HD
ENDROOT
BRANCH   5   7
ATOM      7  C   UNL     1      -1.266  -0.232  -2.863  0.00  0.00    +0.038 A 
ATOM      8  C   UNL     1      -2.182   0.810  -2.923  0.00  0.00    +0.026 A 
ATOM      9  C   UNL     1      -3.483   0.563  -3.316  0.00  0.00    +0.040 A 
ATOM     10  C   UNL     1      -3.873  -0.723  -3.651  0.00  0.00    +0.124 A 
ATOM     11  C   UNL     1      -2.962  -1.763  -3.592  0.00  0.00    +0.040 A 
ATOM     12  C   UNL     1      -1.658  -1.519  -3.205  0.00  0.00    +0.026 A 
ATOM     13  F   UNL     1      -5.146  -0.962  -4.035  0.00  0.00    -0.205 F 
ENDBRANCH   5   7
BRANCH   1  15
ATOM     14  C   UNL     1      -0.019   1.577  -0.021  0.00  0.00    -0.010 C 
ATOM     15  C   UNL     1      -0.007   0.047   0.002  0.00  0.00    -0.031 C 
BRANCH  15  16
ATOM     16  N   UNL     1       0.696  -0.420   1.204  0.00  0.00    +0.384 N 
ATOM     17  C   UNL     1       0.713  -1.887   1.220  0.00  0.00    -0.078 C 
ATOM     18  C   UNL     1       1.514  -2.378   2.428  0.00  0.00    -0.019 C 
ATOM     19  C   UNL     1       0.860  -1.860   3.712  0.00  0.00    -0.004 C 
ATOM     20  C   UNL     1       0.779  -0.332   3.652  0.00  0.00    -0.019 C 
ATOM     21  C   UNL     1       0.006   0.083   2.398  0.00  0.00    -0.078 C 
ATOM     22  H   UNL     1       1.643  -0.074   1.194  0.00  0.00    -0.081 HD
ENDBRANCH  15  16
ENDBRANCH   1  15
BRANCH   4  23
ATOM     23  S   UNL     1       0.697   1.593  -4.675  0.00  0.00    -0.081 S 
BRANCH  23  24
ATOM     24  C   UNL     1       2.273   2.406  -5.057  0.00  0.00    +0.150 C 
BRANCH  24  25
ATOM     25  C   UNL     1       2.150   3.150  -6.362  0.00  0.00    +0.134 C 
ATOM     26  N   UNL     1       1.001   3.114  -6.992  0.00  0.00    -0.160 NA
ATOM     27  C   UNL     1       0.793   3.739  -8.156  0.00  0.00    +0.271 C 
ATOM     28  O   UNL     1      -0.290   3.688  -8.713  0.00  0.00    -0.268 OA
ATOM     29  C   UNL     1       1.935   4.503  -8.754  0.00  0.00    +0.071 C 
ATOM     30  C   UNL     1       1.971   5.147  -9.934  0.00  0.00    -0.042 C 
ATOM     31  C   UNL     1       0.863   5.068 -10.982  0.00  0.00    +0.033 C 
ATOM     32  C   UNL     1       1.522   4.605 -12.288  0.00  0.00    +0.004 C 
ATOM     33  C   UNL     1       2.708   5.504 -12.630  0.00  0.00    +0.002 C 
ATOM     34  C   UNL     1       3.797   5.400 -11.559  0.00  0.00    +0.019 C 
ATOM     35  C   UNL     1       3.238   5.939 -10.239  0.00  0.00    +0.079 C 
ATOM     36  S   UNL     1       4.332   5.457  -8.851  0.00  0.00    -0.097 S 
ATOM     37  C   UNL     1       3.168   4.472  -7.941  0.00  0.00    +0.111 C 
ATOM     38  N   UNL     1       3.207   3.810  -6.809  0.00  0.00    -0.227 NA
ENDBRANCH  24  25
ENDBRANCH  23  24
ENDBRANCH   4  23
TORSDOF 6
