REMARK  Name = ZINC14465178
REMARK  6 active torsions:
REMARK  status: ('A' for Active; 'I' for Inactive)
REMARK    1  A    between atoms: C_1  and  C_2
REMARK    2  A    between atoms: C_2  and  C_3
REMARK    3  A    between atoms: C_3  and  N_4
REMARK    4  A    between atoms: N_4  and  S_5
REMARK    5  A    between atoms: S_5  and  C_8
REMARK    6  A    between atoms: C_21  and  C_24
REMARK                            x       y       z     vdW  Elec       q    Type
REMARK                         _______ _______ _______ _____ _____    ______ ____
ROOT
ATOM      1  C   UNL     1      -2.093   2.100  -1.647  0.00  0.00    +0.106 A 
ATOM      2  C   UNL     1      -1.511   3.351  -1.554  0.00  0.00    +0.030 A 
ATOM      3  C   UNL     1      -1.448   4.171  -2.662  0.00  0.00    +0.025 A 
ATOM      4  C   UNL     1      -1.979   3.751  -3.876  0.00  0.00    +0.031 A 
ATOM      5  C   UNL     1      -2.560   2.481  -3.965  0.00  0.00    -0.018 A 
ATOM      6  C   UNL     1      -2.618   1.670  -2.852  0.00  0.00    +0.034 A 
ATOM      7  C   UNL     1      -3.076   2.057  -5.284  0.00  0.00    +0.049 C 
ATOM      8  C   UNL     1      -4.166   1.057  -5.417  0.00  0.00    -0.023 C 
ATOM      9  C   UNL     1      -4.868   1.337  -6.508  0.00  0.00    -0.030 C 
ATOM     10  C   UNL     1      -4.308   2.591  -7.182  0.00  0.00    +0.033 C 
ATOM     11  C   UNL     1      -3.657   3.315  -5.997  0.00  0.00    +0.029 C 
ATOM     12  C   UNL     1      -2.460   4.199  -6.297  0.00  0.00    +0.105 C 
ATOM     13  N   UNL     1      -1.928   4.611  -4.980  0.00  0.00    -0.336 N 
ATOM     14  H   UNL     1      -1.537   5.493  -4.879  0.00  0.00    +0.147 HD
ENDROOT
BRANCH  12  15
ATOM     15  C   UNL     1      -1.418   3.423  -7.060  0.00  0.00    -0.027 A 
ATOM     16  C   UNL     1      -0.429   2.739  -6.378  0.00  0.00    +0.007 A 
ATOM     17  C   UNL     1       0.524   2.022  -7.077  0.00  0.00    +0.020 A 
ATOM     18  C   UNL     1       0.495   1.999  -8.460  0.00  0.00    +0.041 A 
ATOM     19  C   UNL     1      -0.492   2.689  -9.143  0.00  0.00    +0.020 A 
ATOM     20  C   UNL     1      -1.448   3.400  -8.442  0.00  0.00    +0.007 A 
ATOM     21 CL   UNL     1       1.696   1.105  -9.339  0.00  0.00    -0.084 Cl
ENDBRANCH  12  15
BRANCH   1  22
ATOM     22  S   UNL     1      -2.172   1.057  -0.229  0.00  0.00    +0.058 S 
ATOM     23  O   UNL     1      -3.256   0.163  -0.442  0.00  0.00    -0.153 OA
ATOM     24  O   UNL     1      -2.099   1.909   0.906  0.00  0.00    -0.153 OA
BRANCH  22  25
ATOM     25  N   UNL     1      -0.794   0.138  -0.220  0.00  0.00    -0.190 NA
ATOM     26  H   UNL     1      -0.853  -0.824  -0.331  0.00  0.00    +0.148 HD
BRANCH  25  27
ATOM     27  C   UNL     1       0.512   0.778  -0.051  0.00  0.00    +0.105 C 
BRANCH  27  29
ATOM     28  C   UNL     1       2.925   0.384   0.464  0.00  0.00    +0.005 C 
ATOM     29  C   UNL     1       1.560  -0.285   0.287  0.00  0.00    +0.013 C 
ENDBRANCH  27  29
ENDBRANCH  25  27
ENDBRANCH  22  25
ENDBRANCH   1  22
TORSDOF 5
