REMARK  Name = ZINC16254892
REMARK  9 active torsions:
REMARK  status: ('A' for Active; 'I' for Inactive)
REMARK    1  A    between atoms: C_1  and  C_2
REMARK    2  A    between atoms: C_5  and  N_8
REMARK    3  A    between atoms: C_9  and  C_30
REMARK    4  A    between atoms: C_12  and  S_13
REMARK    5  A    between atoms: S_13  and  C_14
REMARK    6  A    between atoms: C_14  and  C_15
REMARK    7  A    between atoms: C_15  and  C_17
REMARK    8  A    between atoms: C_18  and  N_29
REMARK    9  A    between atoms: N_19  and  C_26
REMARK                            x       y       z     vdW  Elec       q    Type
REMARK                         _______ _______ _______ _____ _____    ______ ____
ROOT
ATOM      1  S   UNL     1      -2.602   0.676   0.756  0.00  0.00    -0.078 S 
ENDROOT
BRANCH   1   6
ATOM      2  N   UNL     1      -5.246   1.375   1.356  0.00  0.00    -0.270 N 
ATOM      3  C   UNL     1      -5.925   2.542   1.634  0.00  0.00    +0.169 A 
ATOM      4  N   UNL     1      -5.050   3.519   1.577  0.00  0.00    -0.128 NA
ATOM      5  N   UNL     1      -3.887   3.052   1.292  0.00  0.00    -0.122 NA
ATOM      6  C   UNL     1      -3.946   1.746   1.149  0.00  0.00    +0.197 A 
BRANCH   2  11
ATOM      7  C   UNL     1      -7.395  -3.873   1.129  0.00  0.00    +0.044 C 
ATOM      8  C   UNL     1      -6.824  -2.480   1.189  0.00  0.00    -0.050 A 
ATOM      9  C   UNL     1      -5.898  -2.155   2.163  0.00  0.00    +0.005 A 
ATOM     10  C   UNL     1      -5.373  -0.878   2.221  0.00  0.00    +0.026 A 
ATOM     11  C   UNL     1      -5.776   0.079   1.300  0.00  0.00    +0.051 A 
ATOM     12  C   UNL     1      -6.710  -0.249   0.326  0.00  0.00    +0.026 A 
ATOM     13  C   UNL     1      -7.227  -1.529   0.270  0.00  0.00    +0.005 A 
ENDBRANCH   2  11
BRANCH   3  14
ATOM     14  C   UNL     1      -7.367   2.669   1.933  0.00  0.00    +0.020 A 
ATOM     15  C   UNL     1      -8.117   1.539   2.261  0.00  0.00    +0.011 A 
ATOM     16  C   UNL     1      -9.461   1.666   2.545  0.00  0.00    +0.001 A 
ATOM     17  C   UNL     1     -10.068   2.909   2.493  0.00  0.00    +0.000 A 
ATOM     18  C   UNL     1      -9.331   4.032   2.163  0.00  0.00    +0.001 A 
ATOM     19  C   UNL     1      -7.985   3.920   1.883  0.00  0.00    +0.011 A 
ENDBRANCH   3  14
ENDBRANCH   1   6
BRANCH   1  20
ATOM     20  C   UNL     1      -1.262   1.886   0.635  0.00  0.00    +0.157 C 
BRANCH  20  21
ATOM     21  C   UNL     1       0.025   1.178   0.297  0.00  0.00    +0.182 C 
ATOM     22  O   UNL     1       0.034  -0.028   0.151  0.00  0.00    -0.291 OA
BRANCH  21  23
ATOM     23  C   UNL     1       1.218   1.917   0.143  0.00  0.00    +0.120 A 
ATOM     24  C   UNL     1       2.453   1.270  -0.033  0.00  0.00    +0.116 A 
ATOM     25  N   UNL     1       3.580   2.028  -0.182  0.00  0.00    -0.278 N 
ATOM     26  C   UNL     1       3.527   3.369  -0.153  0.00  0.00    +0.331 A 
ATOM     27  O   UNL     1       4.559   3.998  -0.286  0.00  0.00    -0.246 OA
ATOM     28  N   UNL     1       2.377   4.041   0.016  0.00  0.00    -0.274 N 
ATOM     29  H   UNL     1       2.387   5.041   0.031  0.00  0.00    +0.173 HD
ATOM     30  C   UNL     1       1.208   3.385   0.168  0.00  0.00    +0.266 A 
ATOM     31  O   UNL     1       0.167   3.997   0.321  0.00  0.00    -0.267 OA
BRANCH  25  32
ATOM     32  C   UNL     1       4.872   1.365  -0.372  0.00  0.00    +0.094 C 
ATOM     33  C   UNL     1       5.772   1.879  -1.497  0.00  0.00    +0.027 C 
ATOM     34  C   UNL     1       5.059   0.532  -1.642  0.00  0.00    +0.027 C 
ENDBRANCH  25  32
BRANCH  24  35
ATOM     35  N   UNL     1       2.526  -0.088  -0.059  0.00  0.00    -0.344 N 
ATOM     36  H   UNL     1       1.725  -0.614  -0.213  0.00  0.00    +0.144 HD
ATOM     37  H   UNL     1       3.378  -0.531   0.077  0.00  0.00    +0.144 HD
ENDBRANCH  24  35
ENDBRANCH  21  23
ENDBRANCH  20  21
ENDBRANCH   1  20
TORSDOF 8
