REMARK  Name = ZINC14156006
REMARK  9 active torsions:
REMARK  status: ('A' for Active; 'I' for Inactive)
REMARK    1  A    between atoms: C_1  and  C_2
REMARK    2  A    between atoms: C_6  and  N_9
REMARK    3  A    between atoms: N_9  and  C_10
REMARK    4  A    between atoms: C_10  and  N_12
REMARK    5  A    between atoms: N_14  and  C_15
REMARK    6  A    between atoms: C_15  and  C_16
REMARK    7  A    between atoms: C_16  and  C_17
REMARK    8  A    between atoms: C_27  and  C_32
REMARK    9  A    between atoms: C_29  and  C_31
REMARK                            x       y       z     vdW  Elec       q    Type
REMARK                         _______ _______ _______ _____ _____    ______ ____
ROOT
ATOM      1  N   UNL     1      -0.790   1.861  -3.499  0.00  0.00    -0.159 NA
ATOM      2  C   UNL     1      -0.222   1.310  -2.441  0.00  0.00    +0.195 C 
ATOM      3  N   UNL     1      -0.760   1.500  -1.201  0.00  0.00    -0.357 N 
ATOM      4  N   UNL     1       0.906   0.548  -2.588  0.00  0.00    -0.297 N 
ATOM      5  C   UNL     1       1.513   0.441  -3.832  0.00  0.00    +0.231 A 
ATOM      6  N   UNL     1       1.046   1.157  -4.843  0.00  0.00    -0.217 NA
ATOM      7  C   UNL     1       1.604   1.082  -6.040  0.00  0.00    +0.044 A 
ATOM      8  C   UNL     1       2.684   0.234  -6.231  0.00  0.00    +0.046 A 
ATOM      9  C   UNL     1       3.144  -0.505  -5.152  0.00  0.00    +0.044 A 
ATOM     10  N   UNL     1       2.542  -0.379  -3.980  0.00  0.00    -0.217 NA
ATOM     11  C   UNL     1       4.315  -1.440  -5.311  0.00  0.00    +0.066 C 
ATOM     12  C   UNL     1       1.070   1.905  -7.184  0.00  0.00    +0.066 C 
ATOM     13  H   UNL     1      -1.711   2.041  -1.091  0.00  0.00    +0.162 HD
ATOM     14  H   UNL     1       1.331   0.021  -1.722  0.00  0.00    +0.171 HD
ENDROOT
BRANCH   1  15
ATOM     15  C   UNL     1      -1.948   2.526  -3.369  0.00  0.00    +0.162 C 
ATOM     16  S   UNL     1      -2.009   3.964  -2.443  0.00  0.00    -0.016 S 
BRANCH  15  17
ATOM     17  N   UNL     1      -3.063   2.060  -3.966  0.00  0.00    -0.294 N 
ATOM     18  H   UNL     1      -3.048   1.086  -4.476  0.00  0.00    +0.154 HD
BRANCH  17  24
ATOM     19  C   UNL     1      -7.969   2.251  -3.687  0.00  0.00    +0.045 C 
ATOM     20  C   UNL     1      -6.632   2.935  -3.803  0.00  0.00    -0.030 A 
ATOM     21  C   UNL     1      -6.566   4.315  -3.882  0.00  0.00    +0.005 A 
ATOM     22  C   UNL     1      -5.341   4.947  -3.990  0.00  0.00    +0.002 A 
ATOM     23  C   UNL     1      -4.178   4.202  -4.018  0.00  0.00    +0.025 A 
ATOM     24  C   UNL     1      -4.239   2.817  -3.938  0.00  0.00    +0.051 A 
ATOM     25  C   UNL     1      -5.472   2.184  -3.837  0.00  0.00    +0.065 A 
ATOM     26 CL   UNL     1      -5.556   0.453  -3.744  0.00  0.00    -0.081 Cl
ENDBRANCH  17  24
ENDBRANCH  15  17
ENDBRANCH   1  15
BRANCH   3  27
ATOM     27  C   UNL     1      -0.070   0.983  -0.016  0.00  0.00    +0.120 C 
BRANCH  27  28
ATOM     28  C   UNL     1      -0.811   1.435   1.244  0.00  0.00    +0.056 C 
BRANCH  28  29
ATOM     29  C   UNL     1      -0.036   1.008   2.463  0.00  0.00    -0.046 A 
ATOM     30  C   UNL     1      -0.210  -0.261   2.983  0.00  0.00    +0.006 A 
ATOM     31  C   UNL     1       0.505  -0.655   4.099  0.00  0.00    +0.038 A 
ATOM     32  C   UNL     1       1.387   0.226   4.702  0.00  0.00    +0.123 A 
ATOM     33  C   UNL     1       1.556   1.498   4.184  0.00  0.00    +0.038 A 
ATOM     34  C   UNL     1       0.845   1.888   3.065  0.00  0.00    +0.006 A 
ATOM     35  F   UNL     1       2.082  -0.157   5.795  0.00  0.00    -0.205 F 
ENDBRANCH  28  29
ENDBRANCH  27  28
ENDBRANCH   3  27
TORSDOF 6
