REMARK  Name = ZINC64717682
REMARK  5 active torsions:
REMARK  status: ('A' for Active; 'I' for Inactive)
REMARK    1  A    between atoms: N_4  and  C_6
REMARK    2  A    between atoms: C_12  and  C_16
REMARK    3  A    between atoms: N_18  and  C_19
REMARK    4  A    between atoms: C_19  and  C_20
REMARK    5  A    between atoms: C_20  and  C_21
REMARK                            x       y       z     vdW  Elec       q    Type
REMARK                         _______ _______ _______ _____ _____    ______ ____
ROOT
ATOM      1  C   UNL     1      -1.326  -6.682   2.833  0.00  0.00    +0.244 C 
ATOM      2  O   UNL     1      -0.922  -6.742   3.978  0.00  0.00    -0.270 OA
ATOM      3  N   UNL     1      -2.256  -7.556   2.399  0.00  0.00    -0.311 N 
ATOM      4  H   UNL     1      -2.577  -7.508   1.485  0.00  0.00    +0.149 HD
ENDROOT
BRANCH   1  10
ATOM      5  C   UNL     1       1.760  -1.804  -0.025  0.00  0.00    +0.237 C 
ATOM      6  N   UNL     1       0.755  -2.686  -0.634  0.00  0.00    -0.314 N 
ATOM      7  C   UNL     1       0.206  -3.683   0.160  0.00  0.00    +0.043 A 
ATOM      8  C   UNL     1      -0.766  -4.616  -0.256  0.00  0.00    +0.025 A 
ATOM      9  C   UNL     1      -1.252  -5.570   0.599  0.00  0.00    +0.015 A 
ATOM     10  C   UNL     1      -0.798  -5.652   1.918  0.00  0.00    +0.038 A 
ATOM     11  C   UNL     1       0.168  -4.736   2.354  0.00  0.00    +0.029 A 
ATOM     12  C   UNL     1       0.645  -3.786   1.487  0.00  0.00    +0.033 A 
ATOM     13  S   UNL     1       1.847  -2.487   1.679  0.00  0.00    -0.079 S 
ATOM     14  H   UNL     1       0.484  -2.574  -1.558  0.00  0.00    +0.149 HD
BRANCH   5  18
ATOM     15  C   UNL     1      -0.016   1.344   0.009  0.00  0.00    +0.019 A 
ATOM     16  C   UNL     1       1.322   1.784  -0.001  0.00  0.00    +0.019 A 
ATOM     17  C   UNL     1       2.107   0.688  -0.014  0.00  0.00    +0.088 A 
ATOM     18  N   UNL     1       1.303  -0.413  -0.013  0.00  0.00    -0.326 N 
ATOM     19  C   UNL     1       0.002  -0.004   0.002  0.00  0.00    +0.088 A 
ENDBRANCH   5  18
ENDBRANCH   1  10
BRANCH   3  20
ATOM     20  C   UNL     1      -2.780  -8.579   3.308  0.00  0.00    +0.109 C 
BRANCH  20  21
ATOM     21  C   UNL     1      -3.813  -9.434   2.571  0.00  0.00    +0.052 C 
BRANCH  21  22
ATOM     22  C   UNL     1      -4.352 -10.486   3.506  0.00  0.00    -0.040 C 
ATOM     23  C   UNL     1      -5.481 -10.413   4.247  0.00  0.00    +0.002 A 
ATOM     24  C   UNL     1      -6.505  -9.373   4.400  0.00  0.00    +0.048 A 
ATOM     25  C   UNL     1      -7.545  -9.593   5.237  0.00  0.00    +0.124 A 
ATOM     26  C   UNL     1      -7.668 -10.790   5.962  0.00  0.00    +0.040 A 
ATOM     27  C   UNL     1      -6.767 -11.790   5.873  0.00  0.00    +0.029 A 
ATOM     28  C   UNL     1      -5.634 -11.665   5.022  0.00  0.00    +0.043 A 
ATOM     29  N   UNL     1      -4.639 -12.480   4.769  0.00  0.00    -0.380 N 
ATOM     30  C   UNL     1      -3.744 -11.839   3.800  0.00  0.00    +0.144 C 
ATOM     31  F   UNL     1      -8.489  -8.637   5.381  0.00  0.00    -0.205 F 
ATOM     32  H   UNL     1      -4.516 -13.361   5.156  0.00  0.00    +0.160 HD
ENDBRANCH  21  22
ENDBRANCH  20  21
ENDBRANCH   3  20
TORSDOF 5
