REMARK  Name = ZINC22934832
REMARK  9 active torsions:
REMARK  status: ('A' for Active; 'I' for Inactive)
REMARK    1  A    between atoms: C_1  and  C_2
REMARK    2  A    between atoms: C_2  and  C_3
REMARK    3  A    between atoms: C_3  and  C_4
REMARK    4  A    between atoms: C_4  and  C_30
REMARK    5  A    between atoms: N_7  and  C_11
REMARK    6  A    between atoms: C_11  and  N_12
REMARK    7  A    between atoms: N_15  and  C_18
REMARK    8  A    between atoms: C_18  and  C_20
REMARK    9  A    between atoms: C_18  and  C_21
REMARK                            x       y       z     vdW  Elec       q    Type
REMARK                         _______ _______ _______ _____ _____    ______ ____
ROOT
ATOM      1  C   UNL     1      -0.473  -5.926   2.417  0.00  0.00    +0.205 C 
ENDROOT
BRANCH   1   5
ATOM      2  C   UNL     1       2.980  -7.258   2.101  0.00  0.00    +0.138 C 
ATOM      3  C   UNL     1       1.537  -7.170   1.646  0.00  0.00    +0.252 C 
ATOM      4  O   UNL     1       1.026  -7.754   0.714  0.00  0.00    -0.272 OA
ATOM      5  N   UNL     1       0.939  -6.309   2.492  0.00  0.00    -0.210 N 
ATOM      6  C   UNL     1       1.796  -5.841   3.407  0.00  0.00    +0.311 C 
ATOM      7  O   UNL     1       1.491  -5.047   4.275  0.00  0.00    -0.252 OA
ATOM      8  N   UNL     1       3.033  -6.351   3.261  0.00  0.00    -0.281 N 
ATOM      9  H   UNL     1       3.976  -6.214   3.809  0.00  0.00    +0.152 HD
BRANCH   2  10
ATOM     10  C   UNL     1       3.909  -6.788   1.013  0.00  0.00    -0.015 A 
ATOM     11  C   UNL     1       4.418  -7.692   0.099  0.00  0.00    +0.006 A 
ATOM     12  C   UNL     1       5.267  -7.259  -0.902  0.00  0.00    +0.000 A 
ATOM     13  C   UNL     1       5.615  -5.924  -0.984  0.00  0.00    +0.000 A 
ATOM     14  C   UNL     1       5.111  -5.021  -0.068  0.00  0.00    +0.000 A 
ATOM     15  C   UNL     1       4.258  -5.452   0.931  0.00  0.00    +0.006 A 
ENDBRANCH   2  10
BRANCH   2  16
ATOM     16  C   UNL     1       3.325  -8.688   2.521  0.00  0.00    +0.040 C 
BRANCH  16  18
ATOM     17  C   UNL     1       2.720 -10.561   4.060  0.00  0.00    +0.004 C 
ATOM     18  C   UNL     1       2.453  -9.096   3.710  0.00  0.00    -0.000 C 
ENDBRANCH  16  18
ENDBRANCH   2  16
ENDBRANCH   1   5
BRANCH   1  19
ATOM     19  N   UNL     1      -0.650  -4.912   1.368  0.00  0.00    -0.284 NA
ATOM     20  C   UNL     1      -1.864  -4.118   1.603  0.00  0.00    +0.101 C 
ATOM     21  C   UNL     1      -2.055  -3.130   0.451  0.00  0.00    +0.100 C 
ATOM     22  N   UNL     1      -0.873  -2.263   0.351  0.00  0.00    -0.291 NA
ATOM     23  C   UNL     1       0.341  -3.057   0.116  0.00  0.00    +0.100 C 
ATOM     24  C   UNL     1       0.532  -4.045   1.269  0.00  0.00    +0.101 C 
BRANCH  22  25
ATOM     25  C   UNL     1      -1.050  -1.249  -0.697  0.00  0.00    +0.109 C 
ATOM     26  C   UNL     1      -1.141  -1.937  -2.061  0.00  0.00    +0.031 C 
BRANCH  25  27
ATOM     27  C   UNL     1       0.124  -0.306  -0.688  0.00  0.00    +0.096 A 
ATOM     28  N   UNL     1       1.393  -0.594  -0.605  0.00  0.00    -0.242 NA
ATOM     29  C   UNL     1       2.353   0.353  -0.607  0.00  0.00    +0.079 A 
ATOM     30  C   UNL     1       3.755   0.200  -0.525  0.00  0.00    +0.029 A 
ATOM     31  C   UNL     1       4.575   1.286  -0.542  0.00  0.00    +0.002 A 
ATOM     32  C   UNL     1       4.072   2.576  -0.640  0.00  0.00    +0.001 A 
ATOM     33  C   UNL     1       2.706   2.768  -0.723  0.00  0.00    +0.017 A 
ATOM     34  C   UNL     1       1.870   1.678  -0.707  0.00  0.00    +0.039 A 
ATOM     35  S   UNL     1       0.115   1.428  -0.785  0.00  0.00    -0.071 S 
ENDBRANCH  25  27
ENDBRANCH  22  25
ENDBRANCH   1  19
TORSDOF 7
