REMARK  Name = ZINC63448339
REMARK  8 active torsions:
REMARK  status: ('A' for Active; 'I' for Inactive)
REMARK    1  A    between atoms: C_1  and  C_2
REMARK    2  A    between atoms: C_2  and  O_3
REMARK    3  A    between atoms: O_3  and  C_4
REMARK    4  A    between atoms: C_7  and  N_10
REMARK    5  A    between atoms: C_11  and  C_27
REMARK    6  A    between atoms: C_15  and  S_16
REMARK    7  A    between atoms: S_16  and  C_17
REMARK    8  A    between atoms: C_17  and  C_18
REMARK                            x       y       z     vdW  Elec       q    Type
REMARK                         _______ _______ _______ _____ _____    ______ ____
ROOT
ATOM      1  N   UNL     1       1.113  -5.983   1.751  0.00  0.00    -0.254 N 
ATOM      2  C   UNL     1       1.875  -6.671   2.808  0.00  0.00    +0.213 C 
ATOM      3  N   UNL     1       1.690  -8.100   2.505  0.00  0.00    -0.242 N 
ATOM      4  N   UNL     1       0.882  -8.155   1.362  0.00  0.00    -0.162 NA
ATOM      5  C   UNL     1       0.561  -6.974   0.953  0.00  0.00    +0.180 C 
ATOM      6  H   UNL     1       2.054  -8.852   2.997  0.00  0.00    +0.170 HD
ENDROOT
BRANCH   2   7
ATOM      7  C   UNL     1       1.314  -6.338   4.166  0.00  0.00    -0.008 A 
ATOM      8  C   UNL     1       2.087  -5.651   5.083  0.00  0.00    +0.008 A 
ATOM      9  C   UNL     1       1.573  -5.345   6.329  0.00  0.00    +0.020 A 
ATOM     10  C   UNL     1       0.285  -5.727   6.659  0.00  0.00    +0.041 A 
ATOM     11  C   UNL     1      -0.488  -6.414   5.740  0.00  0.00    +0.020 A 
ATOM     12  C   UNL     1       0.025  -6.715   4.492  0.00  0.00    +0.008 A 
ATOM     13 CL   UNL     1      -0.361  -5.344   8.224  0.00  0.00    -0.084 Cl
ENDBRANCH   2   7
BRANCH   1  17
ATOM     14  C   UNL     1       0.684  -1.865   1.267  0.00  0.00    +0.121 A 
ATOM     15  C   UNL     1      -0.414  -2.642   1.605  0.00  0.00    +0.047 A 
ATOM     16  C   UNL     1      -0.273  -4.006   1.765  0.00  0.00    +0.027 A 
ATOM     17  C   UNL     1       0.969  -4.601   1.588  0.00  0.00    +0.038 A 
ATOM     18  C   UNL     1       2.069  -3.822   1.250  0.00  0.00    +0.027 A 
ATOM     19  C   UNL     1       1.925  -2.459   1.085  0.00  0.00    +0.047 A 
BRANCH  14  20
ATOM     20  O   UNL     1       0.544  -0.522   1.109  0.00  0.00    -0.492 OA
BRANCH  20  22
ATOM     21  C   UNL     1      -0.722   1.536   1.093  0.00  0.00    +0.048 C 
ATOM     22  C   UNL     1      -0.761   0.023   1.312  0.00  0.00    +0.225 C 
ENDBRANCH  20  22
ENDBRANCH  14  20
ENDBRANCH   1  17
BRANCH   5  23
ATOM     23  S   UNL     1      -0.451  -6.659  -0.454  0.00  0.00    -0.085 S 
BRANCH  23  24
ATOM     24  C   UNL     1      -0.864  -8.312  -1.077  0.00  0.00    +0.124 C 
BRANCH  24  25
ATOM     25  C   UNL     1      -1.753  -8.182  -2.316  0.00  0.00    +0.184 C 
ATOM     26  N   UNL     1      -1.078  -7.372  -3.338  0.00  0.00    -0.363 N 
ATOM     27  C   UNL     1      -1.823  -6.329  -3.564  0.00  0.00    +0.060 A 
ATOM     28  C   UNL     1      -1.681  -5.176  -4.464  0.00  0.00    +0.027 A 
ATOM     29  C   UNL     1      -2.637  -4.225  -4.483  0.00  0.00    +0.002 A 
ATOM     30  C   UNL     1      -3.781  -4.285  -3.668  0.00  0.00    +0.002 A 
ATOM     31  C   UNL     1      -4.009  -5.296  -2.807  0.00  0.00    +0.027 A 
ATOM     32  C   UNL     1      -3.034  -6.391  -2.701  0.00  0.00    +0.060 A 
ATOM     33  N   UNL     1      -2.992  -7.471  -1.976  0.00  0.00    -0.363 N 
ATOM     34  H   UNL     1      -0.232  -7.577  -3.766  0.00  0.00    +0.162 HD
ATOM     35  H   UNL     1      -3.657  -7.755  -1.329  0.00  0.00    +0.162 HD
ENDBRANCH  24  25
ENDBRANCH  23  24
ENDBRANCH   5  23
TORSDOF 7
