REMARK  Name = ZINC03094397
REMARK  13 active torsions:
REMARK  status: ('A' for Active; 'I' for Inactive)
REMARK    1  A    between atoms: C_1  and  C_2
REMARK    2  A    between atoms: C_3  and  C_25
REMARK    3  A    between atoms: C_4  and  C_16
REMARK    4  A    between atoms: C_10  and  C_14
REMARK    5  A    between atoms: C_10  and  C_15
REMARK    6  A    between atoms: C_19  and  O_24
REMARK    7  A    between atoms: C_20  and  O_22
REMARK    8  A    between atoms: O_22  and  C_23
REMARK    9  A    between atoms: C_25  and  O_27
REMARK   10  A    between atoms: O_27  and  C_28
REMARK   11  A    between atoms: C_28  and  C_29
REMARK   12  A    between atoms: C_29  and  O_30
REMARK   13  A    between atoms: O_30  and  C_31
REMARK                            x       y       z     vdW  Elec       q    Type
REMARK                         _______ _______ _______ _____ _____    ______ ____
ROOT
ATOM      1  C   UNL     1      -2.461   0.910  -0.416  0.00  0.00    +0.061 C 
ATOM      2  C   UNL     1      -1.208   1.626   0.017  0.00  0.00    +0.016 C 
ATOM      3  C   UNL     1      -1.273   2.910   0.415  0.00  0.00    +0.065 C 
ATOM      4  C   UNL     1      -0.045   3.653   0.853  0.00  0.00    +0.092 C 
ATOM      5  C   UNL     1       1.206   2.953   0.386  0.00  0.00    +0.024 C 
ATOM      6  C   UNL     1       1.169   1.660  -0.000  0.00  0.00    +0.016 C 
ATOM      7  N   UNL     1      -0.011   0.966   0.007  0.00  0.00    -0.321 N 
ATOM      8  C   UNL     1       2.421   0.945  -0.445  0.00  0.00    +0.058 C 
ATOM      9  C   UNL     1       3.376   1.944  -1.102  0.00  0.00    -0.023 C 
ATOM     10  C   UNL     1       3.696   3.050  -0.090  0.00  0.00    +0.086 C 
ATOM     11  C   UNL     1       2.409   3.680   0.368  0.00  0.00    +0.162 C 
ATOM     12  O   UNL     1       2.410   4.840   0.731  0.00  0.00    -0.292 OA
ATOM     13  C   UNL     1       2.712   2.555  -2.338  0.00  0.00    +0.011 C 
ATOM     14  C   UNL     1       4.668   1.234  -1.512  0.00  0.00    +0.011 C 
ATOM     15  H   UNL     1       0.010  -0.134   0.006  0.00  0.00    +0.152 HD
ENDROOT
BRANCH   4  16
ATOM     16  C   UNL     1      -0.031   3.742   2.357  0.00  0.00    -0.032 A 
ATOM     17  C   UNL     1       0.008   2.586   3.115  0.00  0.00    +0.008 A 
ATOM     18  C   UNL     1       0.026   2.662   4.495  0.00  0.00    +0.049 A 
ATOM     19  C   UNL     1      -0.005   3.898   5.122  0.00  0.00    +0.158 A 
ATOM     20  C   UNL     1      -0.050   5.060   4.359  0.00  0.00    +0.162 A 
ATOM     21  C   UNL     1      -0.063   4.977   2.976  0.00  0.00    +0.054 A 
BRANCH  20  22
ATOM     22  O   UNL     1      -0.082   6.275   4.969  0.00  0.00    -0.491 OA
ATOM     23  C   UNL     1      -0.128   7.425   4.122  0.00  0.00    +0.277 C 
ENDBRANCH  20  22
BRANCH  19  24
ATOM     24  O   UNL     1       0.007   3.974   6.480  0.00  0.00    -0.503 OA
ATOM     25  H   UNL     1      -0.019   4.955   6.976  0.00  0.00    +0.292 HD
ENDBRANCH  19  24
ENDBRANCH   4  16
BRANCH   3  26
ATOM     26  C   UNL     1      -2.522   3.574   0.415  0.00  0.00    +0.338 C 
ATOM     27  O   UNL     1      -3.525   2.982   0.062  0.00  0.00    -0.245 OA
BRANCH  26  28
ATOM     28  O   UNL     1      -2.601   4.863   0.806  0.00  0.00    -0.459 OA
BRANCH  28  29
ATOM     29  C   UNL     1      -3.895   5.470   0.781  0.00  0.00    +0.260 C 
BRANCH  29  30
ATOM     30  C   UNL     1      -3.787   6.921   1.254  0.00  0.00    +0.200 C 
BRANCH  30  31
ATOM     31  O   UNL     1      -3.000   7.668   0.324  0.00  0.00    -0.380 OA
ATOM     32  C   UNL     1      -2.836   9.043   0.674  0.00  0.00    +0.194 C 
ENDBRANCH  30  31
ENDBRANCH  29  30
ENDBRANCH  28  29
ENDBRANCH  26  28
ENDBRANCH   3  26
TORSDOF 8
