REMARK  Name = ZINC14270446
REMARK  10 active torsions:
REMARK  status: ('A' for Active; 'I' for Inactive)
REMARK    1  A    between atoms: C_1  and  C_2
REMARK    2  A    between atoms: C_2  and  C_3
REMARK    3  A    between atoms: C_2  and  C_4
REMARK    4  A    between atoms: C_4  and  O_5
REMARK    5  A    between atoms: O_5  and  C_6
REMARK    6  A    between atoms: C_10  and  C_12
REMARK    7  A    between atoms: N_14  and  C_15
REMARK    8  A    between atoms: C_15  and  N_17
REMARK    9  A    between atoms: N_17  and  C_18
REMARK   10  A    between atoms: C_23  and  C_24
REMARK                            x       y       z     vdW  Elec       q    Type
REMARK                         _______ _______ _______ _____ _____    ______ ____
ROOT
ATOM      1  C   UNL     1       1.404   7.266  -0.119  0.00  0.00    +0.141 C 
ATOM      2  S   UNL     1      -0.059   7.948   0.451  0.00  0.00    -0.018 S 
ENDROOT
BRANCH   1   5
ATOM      3  C   UNL     1       0.431   5.144  -0.074  0.00  0.00    +0.250 C 
ATOM      4  O   UNL     1      -0.607   5.628   0.331  0.00  0.00    -0.270 OA
ATOM      5  N   UNL     1       1.493   5.936  -0.321  0.00  0.00    -0.264 N 
ATOM      6  H   UNL     1       2.322   5.549  -0.644  0.00  0.00    +0.157 HD
BRANCH   3  11
ATOM      7  C   UNL     1      -0.471   1.499  -0.255  0.00  0.00    +0.121 A 
ATOM      8  C   UNL     1       0.720   0.951  -0.712  0.00  0.00    +0.046 A 
ATOM      9  C   UNL     1       1.808   1.765  -0.965  0.00  0.00    +0.004 A 
ATOM     10  C   UNL     1       1.720   3.127  -0.760  0.00  0.00    +0.013 A 
ATOM     11  C   UNL     1       0.529   3.686  -0.295  0.00  0.00    +0.041 A 
ATOM     12  C   UNL     1      -0.569   2.863  -0.040  0.00  0.00    +0.058 A 
BRANCH   7  13
ATOM     13  O   UNL     1      -1.540   0.695  -0.012  0.00  0.00    -0.492 OA
BRANCH  13  14
ATOM     14  C   UNL     1      -1.367  -0.703  -0.250  0.00  0.00    +0.232 C 
BRANCH  14  16
ATOM     15  C   UNL     1      -2.522  -2.918  -0.296  0.00  0.00    +0.010 C 
ATOM     16  C   UNL     1      -2.667  -1.441   0.076  0.00  0.00    +0.020 C 
ATOM     17  C   UNL     1      -2.962  -1.318   1.572  0.00  0.00    +0.010 C 
ENDBRANCH  14  16
ENDBRANCH  13  14
ENDBRANCH   7  13
ENDBRANCH   3  11
ENDBRANCH   1   5
BRANCH   1  18
ATOM     18  N   UNL     1       2.466   8.057  -0.366  0.00  0.00    -0.296 N 
ATOM     19  H   UNL     1       3.317   7.664  -0.612  0.00  0.00    +0.154 HD
BRANCH  18  20
ATOM     20  C   UNL     1       2.340   9.443  -0.267  0.00  0.00    +0.042 A 
ATOM     21  C   UNL     1       1.263  10.089  -0.857  0.00  0.00    +0.024 A 
ATOM     22  C   UNL     1       1.141  11.461  -0.758  0.00  0.00    +0.002 A 
ATOM     23  C   UNL     1       2.089  12.202  -0.072  0.00  0.00    +0.001 A 
ATOM     24  C   UNL     1       3.166  11.575   0.519  0.00  0.00    +0.012 A 
ATOM     25  C   UNL     1       3.299  10.189   0.433  0.00  0.00    +0.028 A 
BRANCH  25  26
ATOM     26  C   UNL     1       4.446   9.512   1.070  0.00  0.00    +0.111 A 
ATOM     27  N   UNL     1       5.487  10.044   1.674  0.00  0.00    -0.239 NA
ATOM     28  C   UNL     1       6.470   9.297   2.216  0.00  0.00    +0.079 A 
ATOM     29  C   UNL     1       7.634   9.739   2.888  0.00  0.00    +0.029 A 
ATOM     30  C   UNL     1       8.535   8.848   3.380  0.00  0.00    +0.002 A 
ATOM     31  C   UNL     1       8.354   7.479   3.246  0.00  0.00    +0.001 A 
ATOM     32  C   UNL     1       7.230   7.004   2.596  0.00  0.00    +0.017 A 
ATOM     33  C   UNL     1       6.313   7.896   2.095  0.00  0.00    +0.040 A 
ATOM     34  S   UNL     1       4.771   7.761   1.224  0.00  0.00    -0.067 S 
ENDBRANCH  25  26
ENDBRANCH  18  20
ENDBRANCH   1  18
TORSDOF 8
