REMARK  Name = ZINC38050908
REMARK  5 active torsions:
REMARK  status: ('A' for Active; 'I' for Inactive)
REMARK    1  A    between atoms: C_4  and  S_17
REMARK    2  A    between atoms: C_5  and  N_7
REMARK    3  A    between atoms: N_7  and  C_8
REMARK    4  A    between atoms: C_14  and  N_16
REMARK    5  A    between atoms: S_17  and  C_20
REMARK                            x       y       z     vdW  Elec       q    Type
REMARK                         _______ _______ _______ _____ _____    ______ ____
ROOT
ATOM      1  C   UNL     1      -0.017   1.377   0.010  0.00  0.00    +0.002 A 
ATOM      2  C   UNL     1       1.171   2.086   0.002  0.00  0.00    +0.002 A 
ATOM      3  C   UNL     1       2.380   1.416  -0.013  0.00  0.00    +0.029 A 
ATOM      4  C   UNL     1       2.406   0.035  -0.021  0.00  0.00    +0.115 A 
ATOM      5  C   UNL     1       1.215  -0.681  -0.013  0.00  0.00    +0.053 A 
ATOM      6  C   UNL     1       0.002  -0.004   0.002  0.00  0.00    +0.025 A 
ENDROOT
BRANCH   4   7
ATOM      7  S   UNL     1       3.947  -0.818  -0.042  0.00  0.00    +0.060 S 
ATOM      8  O   UNL     1       3.835  -1.744  -1.113  0.00  0.00    -0.164 OA
ATOM      9  O   UNL     1       4.930   0.208  -0.071  0.00  0.00    -0.164 OA
BRANCH   7  10
ATOM     10  C   UNL     1       4.013  -1.701   1.542  0.00  0.00    +0.485 C 
ATOM     11  F   UNL     1       3.945  -0.779   2.592  0.00  0.00    -0.183 F 
ATOM     12  F   UNL     1       2.933  -2.586   1.628  0.00  0.00    -0.183 F 
ENDBRANCH   7  10
ENDBRANCH   4   7
BRANCH   5  13
ATOM     13  N   UNL     1       1.238  -2.077  -0.021  0.00  0.00    -0.341 N 
ATOM     14  H   UNL     1       2.086  -2.549  -0.032  0.00  0.00    +0.146 HD
BRANCH  13  15
ATOM     15  C   UNL     1      -0.019  -2.830  -0.012  0.00  0.00    +0.056 C 
ATOM     16  C   UNL     1      -0.506  -2.992   1.429  0.00  0.00    +0.020 C 
ATOM     17  C   UNL     1      -1.819  -3.779   1.438  0.00  0.00    +0.002 C 
ATOM     18  C   UNL     1      -1.591  -5.159   0.818  0.00  0.00    -0.001 C 
ATOM     19  C   UNL     1      -1.103  -4.997  -0.623  0.00  0.00    -0.014 C 
ATOM     20  C   UNL     1       0.210  -4.210  -0.632  0.00  0.00    -0.055 C 
BRANCH  20  21
ATOM     21  N   UNL     1       0.678  -4.055  -2.015  0.00  0.00    +0.381 N 
ATOM     22  H   UNL     1       1.544  -3.536  -2.021  0.00  0.00    -0.090 HD
ATOM     23  H   UNL     1       0.829  -4.965  -2.424  0.00  0.00    -0.090 HD
ATOM     24  H   UNL     1      -0.016  -3.557  -2.551  0.00  0.00    -0.090 HD
ENDBRANCH  20  21
ENDBRANCH  13  15
ENDBRANCH   5  13
TORSDOF 5
