REMARK  Name = ZINC30977819
REMARK  13 active torsions:
REMARK  status: ('A' for Active; 'I' for Inactive)
REMARK    1  A    between atoms: C_1  and  C_2
REMARK    2  A    between atoms: C_2  and  C_3
REMARK    3  A    between atoms: C_2  and  C_4
REMARK    4  A    between atoms: C_2  and  C_5
REMARK    5  A    between atoms: C_8  and  C_11
REMARK    6  A    between atoms: C_13  and  C_16
REMARK    7  A    between atoms: C_16  and  N_17
REMARK    8  A    between atoms: C_20  and  C_23
REMARK    9  A    between atoms: N_25  and  C_26
REMARK   10  A    between atoms: C_26  and  C_27
REMARK   11  A    between atoms: C_27  and  C_28
REMARK   12  A    between atoms: C_28  and  S_29
REMARK   13  A    between atoms: S_29  and  C_30
REMARK                            x       y       z     vdW  Elec       q    Type
REMARK                         _______ _______ _______ _____ _____    ______ ____
ROOT
ATOM      1  N   UNL     1       6.929  12.168  -1.280  0.00  0.00    +0.386 N 
ATOM      2  C   UNL     1       7.595  11.666  -0.071  0.00  0.00    -0.077 C 
ATOM      3  C   UNL     1       7.473  10.141  -0.016  0.00  0.00    -0.006 C 
ATOM      4  C   UNL     1       5.992   9.753  -0.004  0.00  0.00    +0.071 C 
ATOM      5  C   UNL     1       5.311  10.329  -1.249  0.00  0.00    -0.006 C 
ATOM      6  C   UNL     1       5.496  11.848  -1.268  0.00  0.00    -0.077 C 
ATOM      7  H   UNL     1       7.379  11.661  -2.146  0.00  0.00    -0.081 HD
ENDROOT
BRANCH   4   8
ATOM      8  C   UNL     1       5.865   8.251  -0.011  0.00  0.00    +0.216 C 
ATOM      9  O   UNL     1       6.861   7.559  -0.024  0.00  0.00    -0.276 OA
ATOM     10  N   UNL     1       4.646   7.678  -0.002  0.00  0.00    -0.315 N 
ATOM     11  H   UNL     1       3.743   8.306   0.009  0.00  0.00    +0.149 HD
BRANCH  10  12
ATOM     12  C   UNL     1       4.522   6.218  -0.008  0.00  0.00    +0.105 C 
BRANCH  12  13
ATOM     13  C   UNL     1       3.042   5.831   0.004  0.00  0.00    +0.030 C 
BRANCH  13  14
ATOM     14  C   UNL     1       2.913   4.307  -0.003  0.00  0.00    +0.076 C 
BRANCH  14  15
ATOM     15  S   UNL     1       1.158   3.848   0.011  0.00  0.00    -0.125 S 
BRANCH  15  16
ATOM     16  C   UNL     1       1.178   2.086   0.002  0.00  0.00    +0.008 A 
ATOM     17  C   UNL     1      -0.017   1.377   0.010  0.00  0.00    +0.016 A 
ATOM     18  C   UNL     1       0.002  -0.004   0.002  0.00  0.00    +0.021 A 
ATOM     19  C   UNL     1       1.209  -0.681  -0.013  0.00  0.00    +0.041 A 
ATOM     20  C   UNL     1       2.401   0.023  -0.020  0.00  0.00    +0.021 A 
ATOM     21  C   UNL     1       2.388   1.404  -0.013  0.00  0.00    +0.016 A 
ATOM     22 CL   UNL     1       1.228  -2.417  -0.021  0.00  0.00    -0.084 Cl
ENDBRANCH  15  16
ENDBRANCH  14  15
ENDBRANCH  13  14
ENDBRANCH  12  13
ENDBRANCH  10  12
ENDBRANCH   4   8
BRANCH   1  23
ATOM     23  C   UNL     1       7.145  13.613  -1.438  0.00  0.00    +0.022 C 
BRANCH  23  26
ATOM     24  C   UNL     1       5.493  14.735  -4.426  0.00  0.00    +0.202 A 
ATOM     25  N   UNL     1       5.458  14.457  -3.103  0.00  0.00    -0.193 NA
ATOM     26  C   UNL     1       6.664  14.046  -2.799  0.00  0.00    +0.211 A 
ATOM     27  O   UNL     1       7.390  14.090  -3.920  0.00  0.00    -0.340 OA
ATOM     28  N   UNL     1       6.706  14.480  -4.843  0.00  0.00    -0.056 NA
BRANCH  24  32
ATOM     29  C   UNL     1       2.261  16.169  -6.790  0.00  0.00    -0.042 A 
ATOM     30  C   UNL     1       3.495  15.945  -7.373  0.00  0.00    +0.005 A 
ATOM     31  C   UNL     1       4.548  15.480  -6.610  0.00  0.00    +0.012 A 
ATOM     32  C   UNL     1       4.365  15.236  -5.251  0.00  0.00    +0.022 A 
ATOM     33  C   UNL     1       3.118  15.458  -4.670  0.00  0.00    +0.012 A 
ATOM     34  C   UNL     1       2.074  15.927  -5.440  0.00  0.00    +0.005 A 
BRANCH  29  36
ATOM     35  C   UNL     1       0.822  15.677  -8.748  0.00  0.00    +0.015 C 
ATOM     36  C   UNL     1       1.116  16.676  -7.627  0.00  0.00    -0.013 C 
ATOM     37  C   UNL     1      -0.127  16.837  -6.748  0.00  0.00    +0.015 C 
ATOM     38  C   UNL     1       1.489  18.029  -8.235  0.00  0.00    +0.015 C 
ENDBRANCH  29  36
ENDBRANCH  24  32
ENDBRANCH  23  26
ENDBRANCH   1  23
TORSDOF 10
