REMARK  Name = ZINC39654041
REMARK  8 active torsions:
REMARK  status: ('A' for Active; 'I' for Inactive)
REMARK    1  A    between atoms: C_1  and  C_2
REMARK    2  A    between atoms: C_2  and  O_3
REMARK    3  A    between atoms: O_3  and  C_4
REMARK    4  A    between atoms: C_7  and  C_10
REMARK    5  A    between atoms: C_10  and  C_11
REMARK    6  A    between atoms: C_11  and  N_12
REMARK    7  A    between atoms: C_13  and  C_15
REMARK    8  A    between atoms: C_26  and  C_28
REMARK                            x       y       z     vdW  Elec       q    Type
REMARK                         _______ _______ _______ _____ _____    ______ ____
ROOT
ATOM      1  C   UNL     1      -0.834 -10.175  -3.638  0.00  0.00    +0.100 C 
ATOM      2  C   UNL     1      -0.726 -10.876  -2.265  0.00  0.00    +0.121 C 
ATOM      3  N   UNL     1      -2.115 -11.275  -1.939  0.00  0.00    -0.300 N 
ATOM      4  C   UNL     1      -2.682 -11.729  -3.232  0.00  0.00    +0.115 C 
ATOM      5  C   UNL     1      -2.116 -10.741  -4.271  0.00  0.00    -0.004 C 
ATOM      6  C   UNL     1      -1.788 -11.470  -5.570  0.00  0.00    -0.010 C 
ATOM      7  C   UNL     1      -3.085 -11.973  -6.210  0.00  0.00    -0.082 C 
ATOM      8  N   UNL     1      -3.974 -10.835  -6.476  0.00  0.00    +0.379 N 
ATOM      9  C   UNL     1      -4.360 -10.196  -5.212  0.00  0.00    -0.082 C 
ATOM     10  C   UNL     1      -3.117  -9.618  -4.529  0.00  0.00    -0.010 C 
ATOM     11  C   UNL     1      -2.725 -11.236  -0.738  0.00  0.00    +0.219 C 
ATOM     12  O   UNL     1      -3.877 -11.601  -0.631  0.00  0.00    -0.275 OA
ATOM     13  H   UNL     1      -3.496 -10.165  -7.058  0.00  0.00    -0.086 HD
ATOM     14  H   UNL     1      -4.801 -11.162  -6.952  0.00  0.00    -0.086 HD
ENDROOT
BRANCH  11  15
ATOM     15  C   UNL     1      -1.977 -10.738   0.471  0.00  0.00    +0.079 C 
ATOM     16  C   UNL     1      -2.888 -10.804   1.704  0.00  0.00    +0.017 C 
ATOM     17  C   UNL     1      -2.167 -10.130   2.874  0.00  0.00    +0.027 C 
ATOM     18  C   UNL     1      -0.771 -10.665   2.999  0.00  0.00    -0.031 C 
ATOM     19  C   UNL     1      -0.156 -11.312   2.062  0.00  0.00    -0.030 C 
ATOM     20  C   UNL     1      -0.754 -11.623   0.720  0.00  0.00    +0.039 C 
ENDBRANCH  11  15
BRANCH   1  22
ATOM     21  N   UNL     1      -0.500  -7.851  -4.418  0.00  0.00    -0.315 N 
ATOM     22  C   UNL     1      -0.951  -8.684  -3.458  0.00  0.00    +0.218 C 
ATOM     23  O   UNL     1      -1.450  -8.232  -2.449  0.00  0.00    -0.275 OA
ATOM     24  H   UNL     1      -0.101  -8.212  -5.224  0.00  0.00    +0.149 HD
BRANCH  21  25
ATOM     25  C   UNL     1      -0.615  -6.401  -4.243  0.00  0.00    +0.109 C 
BRANCH  25  26
ATOM     26  C   UNL     1      -0.033  -5.692  -5.467  0.00  0.00    +0.054 C 
BRANCH  26  30
ATOM     27  C   UNL     1      -0.365  -1.462  -4.957  0.00  0.00    +0.121 A 
ATOM     28  C   UNL     1       0.768  -2.129  -4.515  0.00  0.00    +0.046 A 
ATOM     29  C   UNL     1       0.873  -3.496  -4.681  0.00  0.00    +0.007 A 
ATOM     30  C   UNL     1      -0.150  -4.201  -5.287  0.00  0.00    -0.046 A 
ATOM     31  C   UNL     1      -1.281  -3.539  -5.729  0.00  0.00    +0.007 A 
ATOM     32  C   UNL     1      -1.393  -2.173  -5.560  0.00  0.00    +0.046 A 
BRANCH  27  33
ATOM     33  O   UNL     1      -0.471  -0.117  -4.795  0.00  0.00    -0.492 OA
BRANCH  33  35
ATOM     34  C   UNL     1       0.327   2.046  -4.071  0.00  0.00    +0.048 C 
ATOM     35  C   UNL     1       0.626   0.548  -4.165  0.00  0.00    +0.225 C 
ENDBRANCH  33  35
ENDBRANCH  27  33
ENDBRANCH  26  30
ENDBRANCH  25  26
ENDBRANCH  21  25
ENDBRANCH   1  22
TORSDOF 7
