REMARK  Name = ZINC02413871
REMARK  13 active torsions:
REMARK  status: ('A' for Active; 'I' for Inactive)
REMARK    1  A    between atoms: C_1  and  C_2
REMARK    2  A    between atoms: C_2  and  C_3
REMARK    3  A    between atoms: C_3  and  C_4
REMARK    4  A    between atoms: C_4  and  C_5
REMARK    5  A    between atoms: C_5  and  C_6
REMARK    6  A    between atoms: C_6  and  N_7
REMARK    7  A    between atoms: C_8  and  N_34
REMARK    8  A    between atoms: C_9  and  C_20
REMARK    9  A    between atoms: N_22  and  C_23
REMARK   10  A    between atoms: C_23  and  C_25
REMARK   11  A    between atoms: C_23  and  C_26
REMARK   12  A    between atoms: C_26  and  C_27
REMARK   13  A    between atoms: C_27  and  C_28
REMARK                            x       y       z     vdW  Elec       q    Type
REMARK                         _______ _______ _______ _____ _____    ______ ____
ROOT
ATOM      1  N   UNL     1       0.002  -0.004   0.002  0.00  0.00    -0.312 N 
ATOM      2  C   UNL     1      -0.004  -0.771  -1.122  0.00  0.00    +0.112 A 
ATOM      3  C   UNL     1       0.022  -2.121  -0.789  0.00  0.00    +0.103 A 
ATOM      4  C   UNL     1       0.037  -2.188   0.681  0.00  0.00    +0.122 A 
ATOM      5  C   UNL     1       0.024  -0.794   1.133  0.00  0.00    +0.162 A 
ATOM      6  N   UNL     1       0.032  -0.532   2.423  0.00  0.00    -0.226 NA
ATOM      7  C   UNL     1       0.053  -1.537   3.308  0.00  0.00    +0.092 A 
ATOM      8  C   UNL     1       0.063  -1.266   4.688  0.00  0.00    +0.030 A 
ATOM      9  C   UNL     1       0.085  -2.293   5.580  0.00  0.00    +0.002 A 
ATOM     10  C   UNL     1       0.098  -3.618   5.147  0.00  0.00    +0.002 A 
ATOM     11  C   UNL     1       0.090  -3.920   3.821  0.00  0.00    +0.030 A 
ATOM     12  C   UNL     1       0.067  -2.884   2.868  0.00  0.00    +0.090 A 
ATOM     13  N   UNL     1       0.059  -3.170   1.560  0.00  0.00    -0.241 NA
ENDROOT
BRANCH   3  14
ATOM     14  C   UNL     1       0.028  -3.251  -1.716  0.00  0.00    +0.250 C 
ATOM     15  O   UNL     1      -1.024  -3.735  -2.092  0.00  0.00    -0.270 OA
ATOM     16  N   UNL     1       1.197  -3.756  -2.156  0.00  0.00    -0.309 N 
ATOM     17  H   UNL     1       2.035  -3.370  -1.857  0.00  0.00    +0.149 HD
BRANCH  16  18
ATOM     18  C   UNL     1       1.203  -4.888  -3.085  0.00  0.00    +0.070 C 
ATOM     19  C   UNL     1       1.103  -6.196  -2.297  0.00  0.00    +0.028 C 
BRANCH  18  20
ATOM     20  C   UNL     1       2.502  -4.878  -3.893  0.00  0.00    +0.026 C 
BRANCH  20  21
ATOM     21  C   UNL     1       2.544  -3.630  -4.776  0.00  0.00    +0.037 C 
BRANCH  21  22
ATOM     22  C   UNL     1       3.824  -3.620  -5.572  0.00  0.00    -0.047 A 
ATOM     23  C   UNL     1       4.952  -3.006  -5.060  0.00  0.00    +0.003 A 
ATOM     24  C   UNL     1       6.127  -3.002  -5.788  0.00  0.00    +0.000 A 
ATOM     25  C   UNL     1       6.171  -3.601  -7.032  0.00  0.00    +0.000 A 
ATOM     26  C   UNL     1       5.042  -4.210  -7.547  0.00  0.00    +0.000 A 
ATOM     27  C   UNL     1       3.868  -4.219  -6.817  0.00  0.00    +0.003 A 
ENDBRANCH  21  22
ENDBRANCH  20  21
ENDBRANCH  18  20
ENDBRANCH  16  18
ENDBRANCH   3  14
BRANCH   2  28
ATOM     28  N   UNL     1      -0.029  -0.282  -2.402  0.00  0.00    -0.344 N 
ATOM     29  H   UNL     1      -0.044   0.676  -2.555  0.00  0.00    +0.144 HD
ATOM     30  H   UNL     1      -0.032  -0.893  -3.155  0.00  0.00    +0.144 HD
ENDBRANCH   2  28
BRANCH   1  31
ATOM     31  C   UNL     1      -0.018   1.461   0.010  0.00  0.00    +0.125 C 
BRANCH  31  32
ATOM     32  C   UNL     1       1.418   1.990  -0.001  0.00  0.00    +0.022 C 
BRANCH  32  33
ATOM     33  C   UNL     1       1.397   3.520   0.008  0.00  0.00    +0.002 C 
BRANCH  33  34
ATOM     34  C   UNL     1       2.832   4.050  -0.003  0.00  0.00    -0.000 C 
BRANCH  34  36
ATOM     35  C   UNL     1       4.247   6.109  -0.006  0.00  0.00    +0.004 C 
ATOM     36  C   UNL     1       2.812   5.580   0.005  0.00  0.00    -0.003 C 
ENDBRANCH  34  36
ENDBRANCH  33  34
ENDBRANCH  32  33
ENDBRANCH  31  32
ENDBRANCH   1  31
TORSDOF 11
