REMARK  Name = ZINC18182331
REMARK  13 active torsions:
REMARK  status: ('A' for Active; 'I' for Inactive)
REMARK    1  A    between atoms: C_1  and  C_2
REMARK    2  A    between atoms: C_2  and  S_3
REMARK    3  A    between atoms: S_3  and  C_4
REMARK    4  A    between atoms: C_4  and  C_5
REMARK    5  A    between atoms: C_5  and  O_6
REMARK    6  A    between atoms: O_6  and  C_7
REMARK    7  A    between atoms: C_7  and  C_9
REMARK    8  A    between atoms: C_10  and  C_37
REMARK    9  A    between atoms: C_14  and  C_16
REMARK   10  A    between atoms: C_20  and  O_22
REMARK   11  A    between atoms: C_26  and  C_29
REMARK   12  A    between atoms: C_32  and  O_35
REMARK   13  A    between atoms: O_35  and  C_36
REMARK                            x       y       z     vdW  Elec       q    Type
REMARK                         _______ _______ _______ _____ _____    ______ ____
ROOT
ATOM      1  C   UNL     1       2.200  -6.591  -3.317  0.00  0.00    +0.065 C 
ATOM      2  C   UNL     1       2.478  -7.272  -4.443  0.00  0.00    +0.016 C 
ATOM      3  N   UNL     1       2.273  -8.622  -4.504  0.00  0.00    -0.321 N 
ATOM      4  C   UNL     1       2.170  -9.365  -3.359  0.00  0.00    +0.016 C 
ATOM      5  C   UNL     1       1.883  -8.772  -2.181  0.00  0.00    +0.024 C 
ATOM      6  C   UNL     1       1.660  -7.285  -2.101  0.00  0.00    +0.092 C 
ATOM      7  C   UNL     1       1.791  -9.522  -0.995  0.00  0.00    +0.162 C 
ATOM      8  O   UNL     1       1.523  -8.958   0.048  0.00  0.00    -0.292 OA
ATOM      9  C   UNL     1       2.019 -11.009  -0.993  0.00  0.00    +0.088 C 
ATOM     10  C   UNL     1       2.976 -11.369  -2.133  0.00  0.00    +0.032 C 
ATOM     11  C   UNL     1       2.382 -10.856  -3.447  0.00  0.00    +0.059 C 
ATOM     12  C   UNL     1       3.017  -6.541  -5.645  0.00  0.00    +0.061 C 
ATOM     13  H   UNL     1       2.199  -9.057  -5.368  0.00  0.00    +0.152 HD
ENDROOT
BRANCH   6  14
ATOM     14  C   UNL     1       0.181  -7.016  -1.994  0.00  0.00    -0.032 A 
ATOM     15  C   UNL     1      -0.668  -7.413  -3.010  0.00  0.00    +0.005 A 
ATOM     16  C   UNL     1      -2.026  -7.168  -2.916  0.00  0.00    +0.004 A 
ATOM     17  C   UNL     1      -2.537  -6.525  -1.805  0.00  0.00    +0.045 A 
ATOM     18  C   UNL     1      -1.687  -6.126  -0.784  0.00  0.00    +0.117 A 
ATOM     19  C   UNL     1      -0.326  -6.378  -0.879  0.00  0.00    +0.050 A 
BRANCH  18  20
ATOM     20  O   UNL     1      -2.187  -5.493   0.310  0.00  0.00    -0.507 OA
ATOM     21  H   UNL     1      -2.445  -6.090   1.026  0.00  0.00    +0.292 HD
ENDBRANCH  18  20
ENDBRANCH   6  14
BRANCH  10  22
ATOM     22  C   UNL     1       3.146 -12.865  -2.199  0.00  0.00    -0.043 A 
ATOM     23  C   UNL     1       2.047 -13.674  -2.426  0.00  0.00    +0.007 A 
ATOM     24  C   UNL     1       2.200 -15.046  -2.486  0.00  0.00    +0.046 A 
ATOM     25  C   UNL     1       3.456 -15.611  -2.320  0.00  0.00    +0.120 A 
ATOM     26  C   UNL     1       4.556 -14.797  -2.094  0.00  0.00    +0.046 A 
ATOM     27  C   UNL     1       4.399 -13.425  -2.039  0.00  0.00    +0.007 A 
BRANCH  25  28
ATOM     28  O   UNL     1       3.608 -16.960  -2.379  0.00  0.00    -0.495 OA
ATOM     29  C   UNL     1       4.930 -17.472  -2.199  0.00  0.00    +0.277 C 
ENDBRANCH  25  28
ENDBRANCH  10  22
BRANCH   1  30
ATOM     30  C   UNL     1       2.428  -5.196  -3.276  0.00  0.00    +0.338 C 
ATOM     31  O   UNL     1       2.983  -4.642  -4.207  0.00  0.00    -0.245 OA
BRANCH  30  32
ATOM     32  O   UNL     1       2.029  -4.478  -2.205  0.00  0.00    -0.460 OA
BRANCH  32  33
ATOM     33  C   UNL     1       2.291  -3.074  -2.231  0.00  0.00    +0.243 C 
BRANCH  33  34
ATOM     34  C   UNL     1       1.772  -2.434  -0.942  0.00  0.00    +0.110 C 
BRANCH  34  35
ATOM     35  S   UNL     1       2.104  -0.651  -0.975  0.00  0.00    -0.158 S 
BRANCH  35  37
ATOM     36  C   UNL     1       1.655   1.460   0.705  0.00  0.00    +0.015 C 
ATOM     37  C   UNL     1       1.437  -0.051   0.602  0.00  0.00    +0.066 C 
ENDBRANCH  35  37
ENDBRANCH  34  35
ENDBRANCH  33  34
ENDBRANCH  32  33
ENDBRANCH  30  32
ENDBRANCH   1  30
TORSDOF 10
