REMARK  Name = ZINC58246462
REMARK  8 active torsions:
REMARK  status: ('A' for Active; 'I' for Inactive)
REMARK    1  A    between atoms: C_1  and  C_2
REMARK    2  A    between atoms: C_2  and  C_3
REMARK    3  A    between atoms: C_2  and  C_5
REMARK    4  A    between atoms: C_2  and  N_8
REMARK    5  A    between atoms: C_9  and  C_11
REMARK    6  A    between atoms: C_11  and  N_12
REMARK    7  A    between atoms: N_12  and  C_13
REMARK    8  A    between atoms: C_17  and  C_19
REMARK                            x       y       z     vdW  Elec       q    Type
REMARK                         _______ _______ _______ _____ _____    ______ ____
ROOT
ATOM      1  N   UNL     1       4.051  -0.111  -2.677  0.00  0.00    -0.335 N 
ATOM      2  H   UNL     1       4.368   0.447  -1.950  0.00  0.00    +0.147 HD
ENDROOT
BRANCH   1   3
ATOM      3  C   UNL     1       4.907  -0.432  -3.736  0.00  0.00    +0.028 A 
ATOM      4  C   UNL     1       4.453  -1.226  -4.781  0.00  0.00    +0.026 A 
ATOM      5  C   UNL     1       5.299  -1.541  -5.826  0.00  0.00    +0.041 A 
ATOM      6  C   UNL     1       6.600  -1.065  -5.832  0.00  0.00    +0.135 A 
ATOM      7  C   UNL     1       7.054  -0.273  -4.791  0.00  0.00    +0.092 A 
ATOM      8  C   UNL     1       6.210   0.049  -3.747  0.00  0.00    +0.038 A 
ATOM      9  F   UNL     1       7.426  -1.375  -6.855  0.00  0.00    -0.205 F 
BRANCH   7  10
ATOM     10  C   UNL     1       8.470   0.243  -4.801  0.00  0.00    +0.420 C 
ATOM     11  F   UNL     1       8.694   1.013  -3.655  0.00  0.00    -0.166 F 
ATOM     12  F   UNL     1       9.360  -0.837  -4.818  0.00  0.00    -0.166 F 
ATOM     13  F   UNL     1       8.671   1.031  -5.939  0.00  0.00    -0.166 F 
ENDBRANCH   7  10
ENDBRANCH   1   3
BRANCH   1  14
ATOM     14  C   UNL     1       2.677  -0.618  -2.667  0.00  0.00    +0.197 C 
BRANCH  14  16
ATOM     15  N   UNL     1       0.688  -0.476  -1.203  0.00  0.00    -0.296 N 
ATOM     16  C   UNL     1       1.972  -0.132  -1.427  0.00  0.00    +0.231 C 
ATOM     17  O   UNL     1       2.559   0.569  -0.630  0.00  0.00    -0.274 OA
ATOM     18  H   UNL     1       0.218  -1.037  -1.840  0.00  0.00    +0.150 HD
BRANCH  15  20
ATOM     19  C   UNL     1      -0.019   1.526   0.010  0.00  0.00    +0.048 C 
ATOM     20  C   UNL     1       0.002  -0.004   0.002  0.00  0.00    +0.121 C 
BRANCH  20  21
ATOM     21  C   UNL     1      -1.433  -0.534   0.013  0.00  0.00    +0.026 C 
ATOM     22  C   UNL     1      -2.566   0.493  -0.057  0.00  0.00    +0.007 C 
ATOM     23  C   UNL     1      -2.283  -0.247   1.253  0.00  0.00    +0.007 C 
ENDBRANCH  20  21
BRANCH  20  24
ATOM     24  C   UNL     1       0.714  -0.492   1.195  0.00  0.00    +0.088 C 
ATOM     25  N   UNL     1       1.263  -0.868   2.115  0.00  0.00    -0.194 NA
ENDBRANCH  20  24
ENDBRANCH  15  20
ENDBRANCH  14  16
ENDBRANCH   1  14
TORSDOF 7
