REMARK  Name = ZINC67442272
REMARK  8 active torsions:
REMARK  status: ('A' for Active; 'I' for Inactive)
REMARK    1  A    between atoms: C_1  and  C_2
REMARK    2  A    between atoms: C_5  and  N_9
REMARK    3  A    between atoms: C_6  and  C_8
REMARK    4  A    between atoms: C_13  and  C_15
REMARK    5  A    between atoms: C_15  and  N_16
REMARK    6  A    between atoms: N_16  and  C_17
REMARK    7  A    between atoms: N_16  and  C_18
REMARK    8  A    between atoms: C_18  and  C_19
REMARK                            x       y       z     vdW  Elec       q    Type
REMARK                         _______ _______ _______ _____ _____    ______ ____
ROOT
ATOM      1  N   UNL     1       0.059  -4.170  -0.021  0.00  0.00    -0.269 N 
ATOM      2  C   UNL     1      -0.040  -4.839  -1.187  0.00  0.00    +0.310 C 
ATOM      3  O   UNL     1      -0.054  -4.229  -2.238  0.00  0.00    -0.252 OA
ATOM      4  N   UNL     1      -0.124  -6.184  -1.187  0.00  0.00    -0.239 N 
ATOM      5  C   UNL     1      -0.223  -6.853  -2.353  0.00  0.00    +0.234 C 
ATOM      6  O   UNL     1      -0.237  -6.244  -3.401  0.00  0.00    -0.274 OA
ATOM      7  H   UNL     1       0.135  -4.658   0.814  0.00  0.00    +0.156 HD
ATOM      8  H   UNL     1      -0.113  -6.671  -0.348  0.00  0.00    +0.159 HD
ENDROOT
BRANCH   1  13
ATOM      9  C   UNL     1       0.025   1.503   0.005  0.00  0.00    +0.044 C 
ATOM     10  C   UNL     1       0.034  -0.004  -0.002  0.00  0.00    -0.050 A 
ATOM     11  C   UNL     1       0.632  -0.685  -1.046  0.00  0.00    +0.005 A 
ATOM     12  C   UNL     1       0.641  -2.066  -1.055  0.00  0.00    +0.024 A 
ATOM     13  C   UNL     1       0.051  -2.771  -0.014  0.00  0.00    +0.038 A 
ATOM     14  C   UNL     1      -0.548  -2.083   1.033  0.00  0.00    -0.029 A 
ATOM     15  C   UNL     1      -0.551  -0.702   1.039  0.00  0.00    +0.008 A 
ATOM     16  C   UNL     1      -1.191  -2.843   2.165  0.00  0.00    +0.045 C 
ENDBRANCH   1  13
BRANCH   5  17
ATOM     17  C   UNL     1      -0.317  -8.357  -2.353  0.00  0.00    +0.181 C 
BRANCH  17  18
ATOM     18  N   UNL     1      -0.415  -8.841  -3.737  0.00  0.00    -0.291 NA
ATOM     19  C   UNL     1      -1.676  -8.412  -4.356  0.00  0.00    +0.105 C 
BRANCH  18  20
ATOM     20  C   UNL     1      -0.270 -10.302  -3.795  0.00  0.00    +0.147 C 
BRANCH  20  21
ATOM     21  C   UNL     1      -0.129 -10.736  -5.231  0.00  0.00    +0.093 A 
ATOM     22  N   UNL     1       0.966 -10.873  -5.919  0.00  0.00    -0.243 NA
ATOM     23  C   UNL     1       0.961 -11.272  -7.208  0.00  0.00    +0.079 A 
ATOM     24  C   UNL     1       2.036 -11.472  -8.098  0.00  0.00    +0.029 A 
ATOM     25  C   UNL     1       1.809 -11.883  -9.376  0.00  0.00    +0.002 A 
ATOM     26  C   UNL     1       0.525 -12.118  -9.847  0.00  0.00    +0.001 A 
ATOM     27  C   UNL     1      -0.554 -11.933  -9.004  0.00  0.00    +0.017 A 
ATOM     28  C   UNL     1      -0.336 -11.519  -7.713  0.00  0.00    +0.039 A 
ATOM     29  S   UNL     1      -1.354 -11.161  -6.304  0.00  0.00    -0.071 S 
ENDBRANCH  20  21
ENDBRANCH  18  20
ENDBRANCH  17  18
ENDBRANCH   5  17
TORSDOF 5
