REMARK  Name = ZINC38752140
REMARK  9 active torsions:
REMARK  status: ('A' for Active; 'I' for Inactive)
REMARK    1  A    between atoms: C_7  and  C_10
REMARK    2  A    between atoms: C_10  and  C_11
REMARK    3  A    between atoms: C_11  and  C_13
REMARK    4  A    between atoms: C_11  and  N_30
REMARK    5  A    between atoms: N_15  and  C_16
REMARK    6  A    between atoms: C_16  and  C_17
REMARK    7  A    between atoms: C_17  and  C_19
REMARK    8  A    between atoms: C_17  and  N_25
REMARK    9  A    between atoms: C_31  and  C_33
REMARK                            x       y       z     vdW  Elec       q    Type
REMARK                         _______ _______ _______ _____ _____    ______ ____
ROOT
ATOM      1  C   UNL     1      -4.912   4.111  -2.350  0.00  0.00    +0.163 C 
ENDROOT
BRANCH   1   2
ATOM      2  C   UNL     1      -5.186   5.551  -2.001  0.00  0.00    +0.234 C 
ATOM      3  O   UNL     1      -6.304   6.003  -2.125  0.00  0.00    -0.274 OA
ATOM      4  N   UNL     1      -4.188   6.336  -1.549  0.00  0.00    -0.315 N 
ATOM      5  H   UNL     1      -3.293   5.974  -1.450  0.00  0.00    +0.149 HD
BRANCH   4   6
ATOM      6  C   UNL     1      -4.454   7.736  -1.209  0.00  0.00    +0.090 C 
BRANCH   6   7
ATOM      7  C   UNL     1      -3.192   8.364  -0.613  0.00  0.00    -0.037 C 
BRANCH   7   8
ATOM      8  N   UNL     1      -2.072   8.195  -1.548  0.00  0.00    +0.383 N 
ATOM      9  C   UNL     1      -2.410   8.792  -2.865  0.00  0.00    -0.078 C 
ATOM     10  C   UNL     1      -1.022   9.044  -3.507  0.00  0.00    -0.020 C 
ATOM     11  C   UNL     1      -0.161   9.488  -2.303  0.00  0.00    -0.020 C 
ATOM     12  C   UNL     1      -0.887   8.934  -1.063  0.00  0.00    -0.078 C 
ATOM     13  H   UNL     1      -1.852   7.216  -1.655  0.00  0.00    -0.081 HD
ENDBRANCH   7   8
BRANCH   7  14
ATOM     14  C   UNL     1      -2.858   7.677   0.713  0.00  0.00    +0.042 C 
ATOM     15  C   UNL     1      -3.962   7.923   1.775  0.00  0.00    +0.040 C 
ATOM     16  C   UNL     1      -3.360   8.132   3.127  0.00  0.00    -0.019 C 
ATOM     17  C   UNL     1      -2.084   8.448   3.235  0.00  0.00    +0.036 C 
ATOM     18  S   UNL     1      -1.451   8.505   1.567  0.00  0.00    -0.131 S 
ENDBRANCH   7  14
ENDBRANCH   6   7
ENDBRANCH   4   6
ENDBRANCH   1   2
BRANCH   1  19
ATOM     19  N   UNL     1      -5.969   3.614  -3.235  0.00  0.00    -0.299 N 
ATOM     20  C   UNL     1      -7.251   3.610  -2.818  0.00  0.00    +0.251 C 
ATOM     21  O   UNL     1      -7.530   4.019  -1.707  0.00  0.00    -0.270 OA
ATOM     22  H   UNL     1      -5.746   3.288  -4.121  0.00  0.00    +0.150 HD
BRANCH  20  23
ATOM     23  C   UNL     1      -8.308   3.113  -3.704  0.00  0.00    +0.074 A 
ATOM     24  C   UNL     1      -9.673   3.029  -3.474  0.00  0.00    +0.021 A 
ATOM     25  C   UNL     1     -10.421   2.513  -4.505  0.00  0.00    +0.008 A 
ATOM     26  C   UNL     1      -9.796   2.131  -5.646  0.00  0.00    +0.046 A 
ATOM     27  S   UNL     1      -8.175   2.466  -5.360  0.00  0.00    -0.092 S 
ENDBRANCH  20  23
ENDBRANCH   1  19
BRANCH   1  28
ATOM     28  C   UNL     1      -4.882   3.272  -1.071  0.00  0.00    +0.069 C 
BRANCH  28  35
ATOM     29  C   UNL     1      -0.744   1.140  -1.625  0.00  0.00    +0.001 A 
ATOM     30  C   UNL     1      -0.867  -0.206  -1.939  0.00  0.00    +0.002 A 
ATOM     31  C   UNL     1      -2.109  -0.789  -2.059  0.00  0.00    +0.026 A 
ATOM     32  C   UNL     1      -3.254  -0.023  -1.864  0.00  0.00    +0.047 A 
ATOM     33  N   UNL     1      -4.601  -0.302  -1.912  0.00  0.00    -0.360 N 
ATOM     34  C   UNL     1      -5.321   0.829  -1.638  0.00  0.00    +0.087 A 
ATOM     35  C   UNL     1      -4.488   1.857  -1.408  0.00  0.00    -0.020 A 
ATOM     36  C   UNL     1      -3.124   1.342  -1.546  0.00  0.00    +0.003 A 
ATOM     37  C   UNL     1      -1.855   1.911  -1.424  0.00  0.00    +0.010 A 
ATOM     38  H   UNL     1      -4.984  -1.171  -2.112  0.00  0.00    +0.165 HD
ENDBRANCH  28  35
ENDBRANCH   1  28
TORSDOF 9
