REMARK  Name = ZINC19568083
REMARK  7 active torsions:
REMARK  status: ('A' for Active; 'I' for Inactive)
REMARK    1  A    between atoms: C_1  and  C_2
REMARK    2  A    between atoms: C_4  and  C_38
REMARK    3  A    between atoms: C_9  and  C_14
REMARK    4  A    between atoms: C_14  and  C_16
REMARK    5  A    between atoms: C_14  and  N_26
REMARK    6  A    between atoms: N_20  and  C_21
REMARK    7  A    between atoms: N_29  and  C_32
REMARK                            x       y       z     vdW  Elec       q    Type
REMARK                         _______ _______ _______ _____ _____    ______ ____
ROOT
ATOM      1  C   UNL     1      -0.109   1.057  -2.412  0.00  0.00    +0.162 C 
ENDROOT
BRANCH   1  10
ATOM      2  C   UNL     1      -4.280  -1.026  -8.232  0.00  0.00    +0.044 C 
ATOM      3  C   UNL     1      -3.696   0.048  -7.351  0.00  0.00    -0.050 A 
ATOM      4  C   UNL     1      -3.973   1.382  -7.617  0.00  0.00    +0.008 A 
ATOM      5  C   UNL     1      -3.451   2.381  -6.825  0.00  0.00    -0.026 A 
ATOM      6  C   UNL     1      -2.635   2.051  -5.747  0.00  0.00    +0.052 A 
ATOM      7  C   UNL     1      -2.356   0.697  -5.481  0.00  0.00    -0.001 A 
ATOM      8  C   UNL     1      -2.898  -0.300  -6.299  0.00  0.00    +0.013 A 
ATOM      9  C   UNL     1      -1.491   0.360  -4.348  0.00  0.00    +0.021 A 
ATOM     10  C   UNL     1      -0.998   1.369  -3.588  0.00  0.00    +0.042 A 
ATOM     11  C   UNL     1      -1.308   2.710  -3.898  0.00  0.00    +0.254 A 
ATOM     12  O   UNL     1      -0.851   3.602  -3.204  0.00  0.00    -0.268 OA
ATOM     13  N   UNL     1      -2.097   3.030  -4.939  0.00  0.00    -0.322 N 
ATOM     14  H   UNL     1      -2.312   4.089  -5.141  0.00  0.00    +0.169 HD
ATOM     15  C   UNL     1      -3.761   3.825  -7.124  0.00  0.00    +0.046 C 
ENDBRANCH   1  10
BRANCH   1  16
ATOM     16  N   UNL     1      -0.651   1.695  -1.205  0.00  0.00    -0.292 NA
ATOM     17  C   UNL     1      -2.015   1.224  -0.928  0.00  0.00    +0.067 C 
ATOM     18  C   UNL     1      -2.573   1.969   0.287  0.00  0.00    -0.063 C 
ATOM     19  N   UNL     1      -1.694   1.742   1.444  0.00  0.00    +0.383 N 
ATOM     20  C   UNL     1      -0.330   2.212   1.166  0.00  0.00    -0.063 C 
ATOM     21  C   UNL     1       0.227   1.467  -0.049  0.00  0.00    +0.067 C 
ATOM     22  H   UNL     1      -1.649   0.658   1.627  0.00  0.00    -0.081 HD
BRANCH  19  23
ATOM     23  C   UNL     1      -2.237   2.380   2.650  0.00  0.00    -0.068 C 
ATOM     24  C   UNL     1      -1.348   2.042   3.849  0.00  0.00    -0.015 C 
ATOM     25  C   UNL     1      -1.913   2.707   5.106  0.00  0.00    -0.002 C 
ATOM     26  C   UNL     1      -3.331   2.193   5.362  0.00  0.00    -0.000 C 
ATOM     27  C   UNL     1      -4.220   2.531   4.163  0.00  0.00    -0.002 C 
ATOM     28  C   UNL     1      -3.655   1.866   2.906  0.00  0.00    -0.015 C 
ENDBRANCH  19  23
ENDBRANCH   1  16
BRANCH   1  29
ATOM     29  C   UNL     1       1.279   1.581  -2.677  0.00  0.00    +0.173 A 
ATOM     30  N   UNL     1       1.663   2.834  -2.636  0.00  0.00    -0.111 NA
ATOM     31  N   UNL     1       2.919   2.874  -2.919  0.00  0.00    -0.023 NA
ATOM     32  N   UNL     1       3.345   1.681  -3.148  0.00  0.00    -0.044 NA
ATOM     33  N   UNL     1       2.363   0.856  -3.009  0.00  0.00    -0.224 N 
BRANCH  33  34
ATOM     34  C   UNL     1       2.418  -0.599  -3.178  0.00  0.00    +0.111 C 
ATOM     35  C   UNL     1       3.464  -1.203  -2.220  0.00  0.00    +0.027 C 
ATOM     36  C   UNL     1       4.112  -2.348  -3.040  0.00  0.00    +0.002 C 
ATOM     37  C   UNL     1       4.184  -1.749  -4.466  0.00  0.00    +0.002 C 
ATOM     38  C   UNL     1       2.875  -0.946  -4.606  0.00  0.00    +0.027 C 
ENDBRANCH  33  34
ENDBRANCH   1  29
TORSDOF 5
