REMARK  Name = ZINC58652263
REMARK  8 active torsions:
REMARK  status: ('A' for Active; 'I' for Inactive)
REMARK    1  A    between atoms: C_1  and  C_2
REMARK    2  A    between atoms: C_4  and  C_7
REMARK    3  A    between atoms: C_7  and  C_8
REMARK    4  A    between atoms: C_11  and  S_13
REMARK    5  A    between atoms: S_13  and  C_14
REMARK    6  A    between atoms: C_14  and  C_16
REMARK    7  A    between atoms: C_14  and  C_17
REMARK    8  A    between atoms: C_29  and  C_33
REMARK                            x       y       z     vdW  Elec       q    Type
REMARK                         _______ _______ _______ _____ _____    ______ ____
ROOT
ATOM      1  C   UNL     1      -5.948  -2.131   6.627  0.00  0.00    +0.124 A 
ATOM      2  N   UNL     1      -6.434  -1.035   7.265  0.00  0.00    -0.309 N 
ATOM      3  H   UNL     1      -6.554  -0.211   6.768  0.00  0.00    +0.170 HD
ATOM      4  C   UNL     1      -6.754  -1.070   8.572  0.00  0.00    +0.260 A 
ATOM      5  O   UNL     1      -7.190  -0.077   9.130  0.00  0.00    -0.267 OA
ATOM      6  C   UNL     1      -6.574  -2.293   9.297  0.00  0.00    +0.075 A 
ATOM      7  C   UNL     1      -6.851  -2.562  10.707  0.00  0.00    -0.023 A 
ATOM      8  C   UNL     1      -6.593  -3.809  11.155  0.00  0.00    -0.004 A 
ATOM      9  S   UNL     1      -5.974  -4.685   9.743  0.00  0.00    -0.073 S 
ATOM     10  C   UNL     1      -6.066  -3.370   8.554  0.00  0.00    +0.116 A 
ATOM     11  N   UNL     1      -5.777  -3.261   7.260  0.00  0.00    -0.225 NA
ATOM     12  C   UNL     1      -6.790  -4.335  12.544  0.00  0.00    +0.046 C 
ATOM     13  C   UNL     1      -7.684  -3.349  13.312  0.00  0.00    -0.009 C 
ATOM     14  C   UNL     1      -7.151  -1.930  13.092  0.00  0.00    +0.008 C 
ATOM     15  C   UNL     1      -7.407  -1.497  11.648  0.00  0.00    +0.037 C 
ATOM     16  C   UNL     1      -7.655  -3.686  14.804  0.00  0.00    +0.008 C 
ENDROOT
BRANCH   1  17
ATOM     17  C   UNL     1      -5.604  -2.044   5.163  0.00  0.00    +0.119 C 
ATOM     18  C   UNL     1      -6.794  -2.527   4.330  0.00  0.00    +0.027 C 
BRANCH  17  19
ATOM     19  S   UNL     1      -4.162  -3.087   4.816  0.00  0.00    -0.055 S 
BRANCH  19  23
ATOM     20  C   UNL     1      -2.899  -2.787   1.164  0.00  0.00    +0.224 A 
ATOM     21  N   UNL     1      -3.909  -1.968   1.162  0.00  0.00    -0.111 NA
ATOM     22  N   UNL     1      -4.452  -1.951   2.329  0.00  0.00    -0.101 NA
ATOM     23  C   UNL     1      -3.800  -2.767   3.122  0.00  0.00    +0.278 A 
ATOM     24  O   UNL     1      -2.807  -3.318   2.399  0.00  0.00    -0.415 OA
BRANCH  20  25
ATOM     25  C   UNL     1      -1.999  -3.093  -0.006  0.00  0.00    +0.153 C 
BRANCH  25  29
ATOM     26  C   UNL     1      -0.018   1.503   0.010  0.00  0.00    +0.073 C 
ATOM     27  C   UNL     1       0.002  -0.004   0.002  0.00  0.00    +0.076 A 
ATOM     28  N   UNL     1      -1.013  -0.832   0.002  0.00  0.00    -0.249 NA
ATOM     29  C   UNL     1      -0.834  -2.137  -0.006  0.00  0.00    +0.058 A 
ATOM     30  C   UNL     1       0.449  -2.582  -0.014  0.00  0.00    +0.070 A 
ATOM     31  S   UNL     1       1.335  -1.032  -0.017  0.00  0.00    -0.081 S 
ENDBRANCH  25  29
ENDBRANCH  20  25
ENDBRANCH  19  23
ENDBRANCH  17  19
ENDBRANCH   1  17
TORSDOF 5
