REMARK  Name = ZINC02386764
REMARK  6 active torsions:
REMARK  status: ('A' for Active; 'I' for Inactive)
REMARK    1  A    between atoms: C_1  and  C_2
REMARK    2  A    between atoms: C_2  and  N_3
REMARK    3  A    between atoms: C_12  and  S_13
REMARK    4  A    between atoms: S_13  and  C_14
REMARK    5  A    between atoms: C_14  and  C_15
REMARK    6  A    between atoms: N_17  and  C_18
REMARK                            x       y       z     vdW  Elec       q    Type
REMARK                         _______ _______ _______ _____ _____    ______ ____
ROOT
ATOM      1  N   UNL     1      -4.376   3.744  -3.002  0.00  0.00    -0.288 N 
ATOM      2  C   UNL     1      -5.607   4.234  -2.765  0.00  0.00    +0.263 A 
ATOM      3  O   UNL     1      -6.162   4.937  -3.591  0.00  0.00    -0.267 OA
ATOM      4  C   UNL     1      -6.253   3.923  -1.526  0.00  0.00    +0.076 A 
ATOM      5  C   UNL     1      -7.574   4.348  -1.060  0.00  0.00    -0.023 A 
ATOM      6  C   UNL     1      -7.961   3.918   0.158  0.00  0.00    -0.004 A 
ATOM      7  S   UNL     1      -6.610   2.935   0.750  0.00  0.00    -0.073 S 
ATOM      8  C   UNL     1      -5.525   3.105  -0.645  0.00  0.00    +0.117 A 
ATOM      9  N   UNL     1      -4.314   2.649  -0.942  0.00  0.00    -0.216 NA
ATOM     10  C   UNL     1      -3.742   2.950  -2.090  0.00  0.00    +0.173 A 
ATOM     11  C   UNL     1      -9.255   4.211   0.855  0.00  0.00    +0.043 C 
ATOM     12  C   UNL     1      -9.938   5.382   0.136  0.00  0.00    +0.005 C 
ATOM     13  C   UNL     1      -9.917   5.114  -1.372  0.00  0.00    +0.005 C 
ATOM     14  C   UNL     1      -8.488   5.236  -1.901  0.00  0.00    +0.037 C 
ENDROOT
BRANCH   1  16
ATOM     15  C   UNL     1      -4.063   3.006  -5.312  0.00  0.00    +0.027 C 
ATOM     16  C   UNL     1      -3.707   4.063  -4.265  0.00  0.00    +0.124 C 
ENDBRANCH   1  16
BRANCH  10  17
ATOM     17  S   UNL     1      -2.134   2.327  -2.450  0.00  0.00    -0.078 S 
BRANCH  17  18
ATOM     18  C   UNL     1      -1.814   1.389  -0.935  0.00  0.00    +0.173 C 
BRANCH  18  19
ATOM     19  C   UNL     1      -0.453   0.749  -1.019  0.00  0.00    +0.228 C 
ATOM     20  O   UNL     1       0.232   0.906  -2.008  0.00  0.00    -0.275 OA
ATOM     21  N   UNL     1       0.002  -0.004   0.002  0.00  0.00    -0.282 N 
ATOM     22  H   UNL     1      -0.513  -0.073   0.821  0.00  0.00    +0.155 HD
BRANCH  21  23
ATOM     23  C   UNL     1       1.220  -0.688  -0.119  0.00  0.00    +0.083 A 
ATOM     24  C   UNL     1       2.414  -0.042   0.181  0.00  0.00    +0.148 A 
ATOM     25  C   UNL     1       3.614  -0.719   0.061  0.00  0.00    +0.078 A 
ATOM     26  C   UNL     1       3.626  -2.039  -0.358  0.00  0.00    +0.127 A 
ATOM     27  C   UNL     1       2.438  -2.684  -0.657  0.00  0.00    +0.055 A 
ATOM     28  C   UNL     1       1.235  -2.013  -0.534  0.00  0.00    +0.045 A 
ATOM     29 BR   UNL     1      -0.388  -2.897  -0.935  0.00  0.00    -0.048 Br
ATOM     30  F   UNL     1       4.799  -2.699  -0.475  0.00  0.00    -0.205 F 
ATOM     31  F   UNL     1       2.402   1.245   0.591  0.00  0.00    -0.203 F 
ENDBRANCH  21  23
ENDBRANCH  18  19
ENDBRANCH  17  18
ENDBRANCH  10  17
TORSDOF 5
