REMARK  Name = ZINC65454313
REMARK  6 active torsions:
REMARK  status: ('A' for Active; 'I' for Inactive)
REMARK    1  A    between atoms: C_1  and  N_2
REMARK    2  A    between atoms: C_9  and  C_19
REMARK    3  A    between atoms: C_9  and  C_29
REMARK    4  A    between atoms: C_11  and  C_13
REMARK    5  A    between atoms: C_19  and  C_20
REMARK    6  A    between atoms: C_29  and  O_30
REMARK                            x       y       z     vdW  Elec       q    Type
REMARK                         _______ _______ _______ _____ _____    ______ ____
ROOT
ATOM      1  C   UNL     1       0.008   1.466  -0.261  0.00  0.00    -0.096 C 
ATOM      2  N   UNL     1       0.025  -0.002  -0.227  0.00  0.00    +0.378 N 
ATOM      3  C   UNL     1       0.857  -0.530  -1.338  0.00  0.00    -0.074 C 
ATOM      4  C   UNL     1       1.234  -1.952  -0.861  0.00  0.00    -0.003 C 
ATOM      5  C   UNL     1       1.436  -1.764   0.671  0.00  0.00    -0.002 C 
ATOM      6  C   UNL     1       0.667  -0.476   1.018  0.00  0.00    -0.074 C 
ATOM      7  C   UNL     1       2.946  -1.525   0.850  0.00  0.00    +0.048 C 
ATOM      8  N   UNL     1       3.542  -1.475  -0.502  0.00  0.00    -0.301 NA
ATOM      9  C   UNL     1       2.649  -2.290  -1.385  0.00  0.00    +0.087 C 
ATOM     10  H   UNL     1       3.597  -0.526  -0.838  0.00  0.00    +0.123 HD
ATOM     11  H   UNL     1      -0.915  -0.363  -0.293  0.00  0.00    -0.082 HD
ENDROOT
BRANCH   9  12
ATOM     12  C   UNL     1       2.783  -1.901  -2.835  0.00  0.00    -0.012 A 
ATOM     13  C   UNL     1       3.161  -0.613  -3.184  0.00  0.00    +0.008 A 
ATOM     14  C   UNL     1       3.272  -0.299  -4.529  0.00  0.00    +0.020 A 
ATOM     15  C   UNL     1       3.003  -1.274  -5.472  0.00  0.00    +0.111 A 
ATOM     16  N   UNL     1       2.646  -2.488  -5.104  0.00  0.00    -0.263 NA
ATOM     17  C   UNL     1       2.536  -2.824  -3.833  0.00  0.00    +0.115 A 
ENDBRANCH   9  12
BRANCH   7  18
ATOM     18  C   UNL     1       3.564  -2.672   1.651  0.00  0.00    +0.057 C 
BRANCH  18  19
ATOM     19  C   UNL     1       5.041  -2.428   1.819  0.00  0.00    -0.040 C 
ATOM     20  C   UNL     1       5.654  -1.848   2.876  0.00  0.00    -0.001 A 
ATOM     21  C   UNL     1       5.147  -1.290   4.136  0.00  0.00    +0.010 A 
ATOM     22  C   UNL     1       6.025  -0.763   5.020  0.00  0.00    +0.001 A 
ATOM     23  C   UNL     1       7.403  -0.737   4.764  0.00  0.00    +0.002 A 
ATOM     24  C   UNL     1       7.944  -1.230   3.630  0.00  0.00    +0.026 A 
ATOM     25  C   UNL     1       7.113  -1.808   2.630  0.00  0.00    +0.043 A 
ATOM     26  N   UNL     1       7.392  -2.343   1.466  0.00  0.00    -0.380 N 
ATOM     27  C   UNL     1       6.140  -2.789   0.845  0.00  0.00    +0.144 C 
ATOM     28  H   UNL     1       8.278  -2.433   1.082  0.00  0.00    +0.160 HD
ENDBRANCH  18  19
ENDBRANCH   7  18
BRANCH   7  29
ATOM     29  C   UNL     1       3.180  -0.196   1.571  0.00  0.00    +0.178 C 
BRANCH  29  30
ATOM     30  O   UNL     1       2.524  -0.221   2.840  0.00  0.00    -0.393 OA
ATOM     31  H   UNL     1       2.630   0.592   3.354  0.00  0.00    +0.209 HD
ENDBRANCH  29  30
ENDBRANCH   7  29
TORSDOF 5
