REMARK  Name = ZINC32870386
REMARK  6 active torsions:
REMARK  status: ('A' for Active; 'I' for Inactive)
REMARK    1  A    between atoms: C_1  and  C_2
REMARK    2  A    between atoms: C_2  and  C_4
REMARK    3  A    between atoms: C_2  and  N_14
REMARK    4  A    between atoms: N_17  and  C_18
REMARK    5  A    between atoms: C_18  and  C_19
REMARK    6  A    between atoms: N_21  and  C_22
REMARK                            x       y       z     vdW  Elec       q    Type
REMARK                         _______ _______ _______ _____ _____    ______ ____
ROOT
ATOM      1  N   UNL     1      -4.670  -0.139   0.886  0.00  0.00    -0.293 N 
ATOM      2  C   UNL     1      -5.663  -0.855   1.450  0.00  0.00    +0.300 C 
ATOM      3  O   UNL     1      -5.771  -2.041   1.206  0.00  0.00    -0.253 OA
ATOM      4  N   UNL     1      -6.536  -0.256   2.284  0.00  0.00    -0.291 N 
ATOM      5  H   UNL     1      -4.572   0.934   1.107  0.00  0.00    +0.151 HD
ATOM      6  H   UNL     1      -6.438   0.817   2.505  0.00  0.00    +0.151 HD
ENDROOT
BRANCH   1   8
ATOM      7  C   UNL     1      -4.305  -0.818  -1.435  0.00  0.00    +0.033 C 
ATOM      8  C   UNL     1      -3.721  -0.790  -0.021  0.00  0.00    +0.102 C 
BRANCH   8   9
ATOM      9  C   UNL     1      -2.425  -0.021  -0.028  0.00  0.00    -0.024 A 
ATOM     10  C   UNL     1      -2.442   1.361  -0.013  0.00  0.00    +0.009 A 
ATOM     11  C   UNL     1      -1.256   2.070  -0.023  0.00  0.00    +0.050 A 
ATOM     12  C   UNL     1      -0.044   1.395  -0.043  0.00  0.00    +0.162 A 
ATOM     13  C   UNL     1      -0.026   0.006  -0.057  0.00  0.00    +0.162 A 
ATOM     14  C   UNL     1      -1.221  -0.699  -0.050  0.00  0.00    +0.055 A 
ATOM     15  O   UNL     1       1.151  -0.676  -0.076  0.00  0.00    -0.485 OA
ATOM     16  C   UNL     1       2.316   0.063  -0.461  0.00  0.00    +0.270 C 
ATOM     17  C   UNL     1       2.310   1.398   0.296  0.00  0.00    +0.270 C 
ATOM     18  O   UNL     1       1.116   2.107  -0.055  0.00  0.00    -0.485 OA
ENDBRANCH   8   9
ENDBRANCH   1   8
BRANCH   4  19
ATOM     19  C   UNL     1      -7.615  -1.034   2.897  0.00  0.00    +0.202 C 
BRANCH  19  20
ATOM     20  C   UNL     1      -8.443  -0.136   3.779  0.00  0.00    +0.234 C 
ATOM     21  O   UNL     1      -8.160   1.038   3.886  0.00  0.00    -0.274 OA
ATOM     22  N   UNL     1      -9.499  -0.638   4.450  0.00  0.00    -0.283 N 
ATOM     23  H   UNL     1      -9.801  -1.685   4.297  0.00  0.00    +0.155 HD
BRANCH  22  24
ATOM     24  C   UNL     1     -10.211   0.172   5.342  0.00  0.00    +0.053 A 
ATOM     25  C   UNL     1     -10.377   1.524   5.073  0.00  0.00    +0.044 A 
ATOM     26  C   UNL     1     -11.085   2.320   5.953  0.00  0.00    +0.043 A 
ATOM     27  C   UNL     1     -11.620   1.774   7.106  0.00  0.00    +0.021 A 
ATOM     28  C   UNL     1     -11.452   0.429   7.380  0.00  0.00    +0.023 A 
ATOM     29  C   UNL     1     -10.749  -0.374   6.501  0.00  0.00    +0.062 A 
ATOM     30 CL   UNL     1     -10.540  -2.063   6.845  0.00  0.00    -0.082 Cl
ATOM     31 CL   UNL     1     -11.299   4.010   5.614  0.00  0.00    -0.083 Cl
ENDBRANCH  22  24
ENDBRANCH  19  20
ENDBRANCH   4  19
TORSDOF 5
