REMARK  Name = ZINC39510710
REMARK  5 active torsions:
REMARK  status: ('A' for Active; 'I' for Inactive)
REMARK    1  A    between atoms: C_1  and  C_2
REMARK    2  A    between atoms: C_2  and  O_3
REMARK    3  A    between atoms: O_3  and  N_4
REMARK    4  A    between atoms: C_13  and  C_16
REMARK    5  A    between atoms: C_21  and  O_22
REMARK                            x       y       z     vdW  Elec       q    Type
REMARK                         _______ _______ _______ _____ _____    ______ ____
ROOT
ATOM      1  N   UNL     1       0.772  -1.935   1.251  0.00  0.00    -0.180 NA
ATOM      2  C   UNL     1       0.038  -2.430   2.424  0.00  0.00    +0.115 C 
ATOM      3  C   UNL     1       0.031  -3.960   2.415  0.00  0.00    +0.019 C 
ATOM      4  C   UNL     1       1.473  -4.474   2.446  0.00  0.00    +0.022 C 
ATOM      5  C   UNL     1       2.233  -3.912   1.241  0.00  0.00    +0.103 C 
ATOM      6  C   UNL     1       2.166  -2.386   1.270  0.00  0.00    +0.064 C 
ATOM      7  C   UNL     1       2.923  -1.805   0.066  0.00  0.00    +0.027 C 
ATOM      8  C   UNL     1       4.065  -0.941   0.642  0.00  0.00    +0.010 C 
ATOM      9  C   UNL     1       3.577  -0.566   2.064  0.00  0.00    +0.024 C 
ATOM     10  C   UNL     1       2.867  -1.859   2.536  0.00  0.00    +0.034 C 
ATOM     11 CL   UNL     1       1.481  -4.519  -0.281  0.00  0.00    -0.120 Cl
ENDROOT
BRANCH   9  12
ATOM     12  C   UNL     1       4.744  -0.236   2.959  0.00  0.00    -0.003 A 
ATOM     13  C   UNL     1       5.737  -1.172   3.173  0.00  0.00    +0.007 A 
ATOM     14  C   UNL     1       6.808  -0.870   3.994  0.00  0.00    +0.001 A 
ATOM     15  C   UNL     1       6.888   0.369   4.603  0.00  0.00    +0.004 A 
ATOM     16  C   UNL     1       5.897   1.308   4.392  0.00  0.00    +0.046 A 
ATOM     17  C   UNL     1       4.825   1.010   3.564  0.00  0.00    +0.120 A 
BRANCH  17  18
ATOM     18  O   UNL     1       3.852   1.934   3.350  0.00  0.00    -0.506 OA
ATOM     19  H   UNL     1       3.123   1.893   3.985  0.00  0.00    +0.292 HD
ENDBRANCH  17  18
ENDBRANCH   9  12
BRANCH   1  20
ATOM     20  O   UNL     1       0.693  -0.477   1.160  0.00  0.00    -0.297 OA
BRANCH  20  22
ATOM     21  C   UNL     1      -0.019   1.526   0.010  0.00  0.00    +0.036 C 
ATOM     22  C   UNL     1       0.002  -0.004   0.002  0.00  0.00    +0.182 C 
ENDBRANCH  20  22
ENDBRANCH   1  20
TORSDOF 4
