REMARK  Name = ZINC14552226
REMARK  9 active torsions:
REMARK  status: ('A' for Active; 'I' for Inactive)
REMARK    1  A    between atoms: C_1  and  C_2
REMARK    2  A    between atoms: C_2  and  C_3
REMARK    3  A    between atoms: C_3  and  C_5
REMARK    4  A    between atoms: C_3  and  N_6
REMARK    5  A    between atoms: N_6  and  S_7
REMARK    6  A    between atoms: S_7  and  C_10
REMARK    7  A    between atoms: C_23  and  C_26
REMARK    8  A    between atoms: C_29  and  S_32
REMARK    9  A    between atoms: S_32  and  C_33
REMARK                            x       y       z     vdW  Elec       q    Type
REMARK                         _______ _______ _______ _____ _____    ______ ____
ROOT
ATOM      1  C   UNL     1      -5.051   5.259   0.749  0.00  0.00    +0.106 A 
ATOM      2  C   UNL     1      -5.152   4.985  -0.603  0.00  0.00    +0.030 A 
ATOM      3  C   UNL     1      -4.644   3.801  -1.100  0.00  0.00    +0.025 A 
ATOM      4  C   UNL     1      -4.033   2.893  -0.245  0.00  0.00    +0.031 A 
ATOM      5  C   UNL     1      -3.931   3.163   1.111  0.00  0.00    -0.018 A 
ATOM      6  C   UNL     1      -4.446   4.356   1.599  0.00  0.00    +0.034 A 
ATOM      7  C   UNL     1      -3.285   2.214   2.070  0.00  0.00    +0.049 C 
ATOM      8  C   UNL     1      -1.919   2.702   2.492  0.00  0.00    -0.023 C 
ATOM      9  C   UNL     1      -1.099   1.690   2.634  0.00  0.00    -0.030 C 
ATOM     10  C   UNL     1      -1.809   0.385   2.331  0.00  0.00    +0.033 C 
ATOM     11  C   UNL     1      -3.019   0.826   1.457  0.00  0.00    +0.029 C 
ATOM     12  C   UNL     1      -2.513   0.976   0.019  0.00  0.00    +0.105 C 
ATOM     13  N   UNL     1      -3.520   1.700  -0.765  0.00  0.00    -0.336 N 
ATOM     14  H   UNL     1      -3.822   1.360  -1.622  0.00  0.00    +0.147 HD
ENDROOT
BRANCH  12  15
ATOM     15  C   UNL     1      -1.220   1.750   0.017  0.00  0.00    -0.027 A 
ATOM     16  C   UNL     1      -1.242   3.130  -0.082  0.00  0.00    +0.006 A 
ATOM     17  C   UNL     1      -0.059   3.842  -0.078  0.00  0.00    +0.015 A 
ATOM     18  C   UNL     1       1.154   3.172   0.020  0.00  0.00    +0.008 A 
ATOM     19  C   UNL     1       1.172   1.785   0.114  0.00  0.00    +0.015 A 
ATOM     20  C   UNL     1      -0.014   1.079   0.110  0.00  0.00    +0.006 A 
BRANCH  18  21
ATOM     21  S   UNL     1       2.666   4.077   0.026  0.00  0.00    -0.129 S 
ATOM     22  C   UNL     1       3.943   2.797   0.167  0.00  0.00    +0.090 C 
ENDBRANCH  18  21
ENDBRANCH  12  15
BRANCH   1  23
ATOM     23  S   UNL     1      -5.699   6.768   1.389  0.00  0.00    +0.059 S 
ATOM     24  O   UNL     1      -6.701   7.198   0.478  0.00  0.00    -0.153 OA
ATOM     25  O   UNL     1      -5.967   6.543   2.766  0.00  0.00    -0.153 OA
BRANCH  23  26
ATOM     26  N   UNL     1      -4.484   7.890   1.320  0.00  0.00    -0.187 NA
ATOM     27  H   UNL     1      -4.120   8.263   2.139  0.00  0.00    +0.148 HD
BRANCH  26  28
ATOM     28  C   UNL     1      -3.957   8.321   0.023  0.00  0.00    +0.073 C 
ATOM     29  C   UNL     1      -4.669   9.602  -0.417  0.00  0.00    +0.025 C 
BRANCH  28  31
ATOM     30  C   UNL     1      -1.728   7.281   0.463  0.00  0.00    +0.005 C 
ATOM     31  C   UNL     1      -2.455   8.589   0.145  0.00  0.00    +0.017 C 
ENDBRANCH  28  31
ENDBRANCH  26  28
ENDBRANCH  23  26
ENDBRANCH   1  23
TORSDOF 6
