REMARK  Name = ZINC02138082
REMARK  9 active torsions:
REMARK  status: ('A' for Active; 'I' for Inactive)
REMARK    1  A    between atoms: C_1  and  C_2
REMARK    2  A    between atoms: C_2  and  C_3
REMARK    3  A    between atoms: C_6  and  C_9
REMARK    4  A    between atoms: N_16  and  C_31
REMARK    5  A    between atoms: C_19  and  C_30
REMARK    6  A    between atoms: C_31  and  C_32
REMARK    7  A    between atoms: C_32  and  C_33
REMARK    8  A    between atoms: C_36  and  O_39
REMARK    9  A    between atoms: O_39  and  C_40
REMARK                            x       y       z     vdW  Elec       q    Type
REMARK                         _______ _______ _______ _____ _____    ______ ____
ROOT
ATOM      1  C   UNL     1       4.277   3.251  -0.006  0.00  0.00    +0.069 C 
ATOM      2  C   UNL     1       5.741   3.223  -0.461  0.00  0.00    +0.122 C 
ATOM      3  N   UNL     1       6.432   2.117   0.229  0.00  0.00    -0.280 N 
ATOM      4  C   UNL     1       7.410   2.396   1.094  0.00  0.00    +0.234 C 
ATOM      5  O   UNL     1       7.797   3.543   1.161  0.00  0.00    -0.274 OA
ATOM      6  C   UNL     1       8.059   1.386   1.984  0.00  0.00    +0.203 C 
ATOM      7  N   UNL     1       7.473   0.065   1.832  0.00  0.00    -0.290 N 
ATOM      8  C   UNL     1       6.546  -0.233   0.922  0.00  0.00    +0.245 C 
ATOM      9  O   UNL     1       6.125  -1.370   0.887  0.00  0.00    -0.273 OA
ATOM     10  C   UNL     1       5.995   0.750  -0.057  0.00  0.00    +0.151 C 
ATOM     11  C   UNL     1       4.485   0.727  -0.038  0.00  0.00    +0.054 A 
ATOM     12  C   UNL     1       3.729   1.847  -0.021  0.00  0.00    -0.008 A 
ATOM     13  C   UNL     1       2.344   1.421  -0.012  0.00  0.00    +0.004 A 
ATOM     14  C   UNL     1       1.136   2.126   0.003  0.00  0.00    +0.010 A 
ATOM     15  C   UNL     1      -0.017   1.381   0.010  0.00  0.00    +0.001 A 
ATOM     16  C   UNL     1       0.002  -0.004   0.002  0.00  0.00    +0.002 A 
ATOM     17  C   UNL     1       1.182  -0.727  -0.014  0.00  0.00    +0.026 A 
ATOM     18  C   UNL     1       2.369   0.003  -0.021  0.00  0.00    +0.047 A 
ATOM     19  N   UNL     1       3.680  -0.380  -0.037  0.00  0.00    -0.356 N 
ATOM     20  H   UNL     1       3.993  -1.298  -0.048  0.00  0.00    +0.166 HD
ATOM     21  C   UNL     1       6.478   0.376  -1.459  0.00  0.00    +0.048 C 
ENDROOT
BRANCH   1  25
ATOM     22  C   UNL     1       4.037   4.837   3.953  0.00  0.00    -0.048 A 
ATOM     23  C   UNL     1       3.373   5.465   2.915  0.00  0.00    +0.004 A 
ATOM     24  C   UNL     1       3.450   4.951   1.634  0.00  0.00    +0.004 A 
ATOM     25  C   UNL     1       4.192   3.811   1.390  0.00  0.00    -0.038 A 
ATOM     26  C   UNL     1       4.852   3.180   2.429  0.00  0.00    +0.004 A 
ATOM     27  C   UNL     1       4.778   3.696   3.709  0.00  0.00    +0.004 A 
BRANCH  22  29
ATOM     28  C   UNL     1       2.758   4.773   6.076  0.00  0.00    +0.009 C 
ATOM     29  C   UNL     1       3.951   5.396   5.350  0.00  0.00    +0.032 C 
ENDBRANCH  22  29
ENDBRANCH   1  25
BRANCH   7  30
ATOM     30  C   UNL     1       7.928  -1.000   2.729  0.00  0.00    +0.113 C 
BRANCH  30  31
ATOM     31  C   UNL     1       9.122  -1.722   2.100  0.00  0.00    +0.054 C 
BRANCH  31  32
ATOM     32  C   UNL     1       9.590  -2.817   3.023  0.00  0.00    -0.046 A 
ATOM     33  C   UNL     1      10.555  -2.551   3.977  0.00  0.00    +0.007 A 
ATOM     34  C   UNL     1      10.982  -3.552   4.828  0.00  0.00    +0.046 A 
ATOM     35  C   UNL     1      10.450  -4.828   4.717  0.00  0.00    +0.120 A 
ATOM     36  C   UNL     1       9.486  -5.095   3.756  0.00  0.00    +0.046 A 
ATOM     37  C   UNL     1       9.058  -4.088   2.911  0.00  0.00    +0.007 A 
BRANCH  35  38
ATOM     38  O   UNL     1      10.873  -5.816   5.549  0.00  0.00    -0.495 OA
ATOM     39  C   UNL     1      11.867  -5.470   6.514  0.00  0.00    +0.277 C 
ENDBRANCH  35  38
ENDBRANCH  31  32
ENDBRANCH  30  31
ENDBRANCH   7  30
TORSDOF 6
