REMARK  Name = ZINC20481968
REMARK  11 active torsions:
REMARK  status: ('A' for Active; 'I' for Inactive)
REMARK    1  A    between atoms: C_1  and  C_2
REMARK    2  A    between atoms: C_2  and  C_3
REMARK    3  A    between atoms: C_2  and  O_4
REMARK    4  A    between atoms: O_4  and  C_5
REMARK    5  A    between atoms: C_5  and  C_6
REMARK    6  A    between atoms: C_6  and  C_7
REMARK    7  A    between atoms: C_7  and  N_8
REMARK    8  A    between atoms: C_19  and  N_23
REMARK    9  A    between atoms: N_23  and  C_24
REMARK   10  A    between atoms: C_24  and  C_25
REMARK   11  A    between atoms: C_25  and  C_31
REMARK                            x       y       z     vdW  Elec       q    Type
REMARK                         _______ _______ _______ _____ _____    ______ ____
ROOT
ATOM      1  N   UNL     1      -9.271  -1.436   6.356  0.00  0.00    -0.299 N 
ATOM      2  C   UNL     1      -9.080  -2.777   6.359  0.00  0.00    +0.203 A 
ATOM      3  N   UNL     1      -7.990  -3.347   5.895  0.00  0.00    -0.230 NA
ATOM      4  C   UNL     1      -7.045  -2.550   5.407  0.00  0.00    +0.116 A 
ATOM      5  C   UNL     1      -7.149  -1.142   5.361  0.00  0.00    +0.076 A 
ATOM      6  C   UNL     1      -8.356  -0.560   5.877  0.00  0.00    +0.262 A 
ATOM      7  O   UNL     1      -8.545   0.644   5.884  0.00  0.00    -0.267 OA
ATOM      8  C   UNL     1      -6.017  -0.433   4.792  0.00  0.00    -0.023 A 
ATOM      9  C   UNL     1      -4.979  -1.191   4.364  0.00  0.00    -0.006 A 
ATOM     10  S   UNL     1      -5.460  -2.867   4.698  0.00  0.00    -0.073 S 
ATOM     11  C   UNL     1      -3.703  -0.714   3.743  0.00  0.00    +0.027 C 
ATOM     12  C   UNL     1      -3.887   0.750   3.317  0.00  0.00    -0.067 C 
ATOM     13  C   UNL     1      -4.515   1.523   4.481  0.00  0.00    -0.011 C 
ATOM     14  C   UNL     1      -5.968   1.087   4.669  0.00  0.00    +0.035 C 
ENDROOT
BRANCH  12  15
ATOM     15  N   UNL     1      -2.581   1.335   2.985  0.00  0.00    +0.382 N 
ATOM     16  H   UNL     1      -2.619   2.424   3.132  0.00  0.00    -0.085 HD
ATOM     17  H   UNL     1      -1.809   0.903   3.639  0.00  0.00    -0.085 HD
BRANCH  15  18
ATOM     18  C   UNL     1      -2.221   1.060   1.588  0.00  0.00    -0.071 C 
BRANCH  18  19
ATOM     19  C   UNL     1      -0.930   1.803   1.238  0.00  0.00    -0.015 C 
ATOM     20  C   UNL     1       0.167   1.420   2.236  0.00  0.00    +0.038 C 
ATOM     21  C   UNL     1       0.460  -0.078   2.113  0.00  0.00    +0.160 C 
ATOM     22  O   UNL     1       0.843  -0.378   0.769  0.00  0.00    -0.380 OA
ATOM     23  C   UNL     1      -0.163  -0.087  -0.203  0.00  0.00    +0.160 C 
ATOM     24  C   UNL     1      -0.481   1.411  -0.173  0.00  0.00    +0.038 C 
BRANCH  19  25
ATOM     25  C   UNL     1      -1.169   3.289   1.298  0.00  0.00    -0.043 A 
ATOM     26  C   UNL     1      -2.445   3.776   1.514  0.00  0.00    +0.004 A 
ATOM     27  C   UNL     1      -2.664   5.140   1.574  0.00  0.00    +0.000 A 
ATOM     28  C   UNL     1      -1.608   6.017   1.406  0.00  0.00    +0.000 A 
ATOM     29  C   UNL     1      -0.334   5.530   1.185  0.00  0.00    +0.000 A 
ATOM     30  C   UNL     1      -0.114   4.167   1.130  0.00  0.00    +0.004 A 
ENDBRANCH  19  25
ENDBRANCH  18  19
ENDBRANCH  15  18
ENDBRANCH  12  15
BRANCH   1  31
ATOM     31  C   UNL     1     -10.526  -0.908   6.898  0.00  0.00    +0.128 C 
BRANCH  31  32
ATOM     32  C   UNL     1     -11.564  -0.812   5.778  0.00  0.00    +0.050 C 
BRANCH  32  33
ATOM     33  C   UNL     1     -12.874  -0.260   6.343  0.00  0.00    +0.162 C 
BRANCH  33  34
ATOM     34  O   UNL     1     -13.844  -0.171   5.298  0.00  0.00    -0.377 OA
BRANCH  34  36
ATOM     35  C   UNL     1     -15.779   1.077   4.561  0.00  0.00    +0.037 C 
ATOM     36  C   UNL     1     -15.111   0.336   5.722  0.00  0.00    +0.112 C 
ATOM     37  C   UNL     1     -16.003  -0.826   6.165  0.00  0.00    +0.037 C 
ENDBRANCH  34  36
ENDBRANCH  33  34
ENDBRANCH  32  33
ENDBRANCH  31  32
ENDBRANCH   1  31
TORSDOF 9
