REMARK  Name = ZINC00899173
REMARK  12 active torsions:
REMARK  status: ('A' for Active; 'I' for Inactive)
REMARK    1  A    between atoms: C_1  and  C_2
REMARK    2  A    between atoms: C_2  and  N_3
REMARK    3  A    between atoms: C_4  and  C_24
REMARK    4  A    between atoms: C_7  and  S_8
REMARK    5  A    between atoms: S_8  and  C_9
REMARK    6  A    between atoms: C_9  and  C_10
REMARK    7  A    between atoms: N_12  and  C_13
REMARK    8  A    between atoms: C_14  and  C_22
REMARK    9  A    between atoms: C_24  and  N_25
REMARK   10  A    between atoms: N_25  and  C_26
REMARK   11  A    between atoms: C_29  and  C_33
REMARK   12  A    between atoms: C_31  and  C_32
REMARK                            x       y       z     vdW  Elec       q    Type
REMARK                         _______ _______ _______ _____ _____    ______ ____
ROOT
ATOM      1  N   UNL     1      -3.774  11.010  -6.435  0.00  0.00    -0.305 N 
ATOM      2  C   UNL     1      -3.981  12.319  -6.096  0.00  0.00    +0.151 A 
ATOM      3  N   UNL     1      -3.750  12.430  -4.819  0.00  0.00    -0.132 NA
ATOM      4  N   UNL     1      -3.418  11.289  -4.329  0.00  0.00    -0.122 NA
ATOM      5  C   UNL     1      -3.411  10.382  -5.278  0.00  0.00    +0.192 A 
ENDROOT
BRANCH   1   7
ATOM      6  C   UNL     1      -5.345   9.906  -7.949  0.00  0.00    +0.027 C 
ATOM      7  C   UNL     1      -3.912  10.408  -7.763  0.00  0.00    +0.122 C 
ENDBRANCH   1   7
BRANCH   5   8
ATOM      8  S   UNL     1      -3.016   8.675  -5.093  0.00  0.00    -0.077 S 
BRANCH   8   9
ATOM      9  C   UNL     1      -2.653   8.627  -3.320  0.00  0.00    +0.173 C 
BRANCH   9  10
ATOM     10  C   UNL     1      -2.279   7.222  -2.922  0.00  0.00    +0.228 C 
ATOM     11  O   UNL     1      -2.260   6.341  -3.755  0.00  0.00    -0.275 OA
ATOM     12  N   UNL     1      -1.965   6.946  -1.641  0.00  0.00    -0.278 N 
ATOM     13  H   UNL     1      -1.980   7.652  -0.975  0.00  0.00    +0.155 HD
BRANCH  12  14
ATOM     14  C   UNL     1      -1.621   5.653  -1.274  0.00  0.00    +0.090 A 
ATOM     15  C   UNL     1      -1.271   5.177  -0.019  0.00  0.00    +0.084 A 
ATOM     16  C   UNL     1      -0.951   3.765   0.100  0.00  0.00    -0.018 A 
ATOM     17  C   UNL     1      -1.032   3.059  -1.049  0.00  0.00    -0.004 A 
ATOM     18  S   UNL     1      -1.524   4.240  -2.273  0.00  0.00    -0.077 S 
ATOM     19  C   UNL     1      -0.761   1.597  -1.232  0.00  0.00    +0.043 C 
ATOM     20  C   UNL     1      -0.013   1.086   0.008  0.00  0.00    +0.005 C 
ATOM     21  C   UNL     1      -0.735   1.583   1.264  0.00  0.00    +0.005 C 
ATOM     22  C   UNL     1      -0.551   3.094   1.407  0.00  0.00    +0.037 C 
BRANCH  15  23
ATOM     23  C   UNL     1      -1.226   6.046   1.118  0.00  0.00    +0.102 C 
ATOM     24  N   UNL     1      -1.191   6.736   2.020  0.00  0.00    -0.191 NA
ENDBRANCH  15  23
ENDBRANCH  12  14
ENDBRANCH   9  10
ENDBRANCH   8   9
ENDBRANCH   5   8
BRANCH   2  25
ATOM     25  C   UNL     1      -4.400  13.427  -7.028  0.00  0.00    +0.178 C 
BRANCH  25  26
ATOM     26  N   UNL     1      -5.862  13.507  -7.065  0.00  0.00    -0.336 N 
ATOM     27  H   UNL     1      -6.395  12.895  -6.535  0.00  0.00    +0.147 HD
BRANCH  26  28
ATOM     28  C   UNL     1      -6.489  14.466  -7.865  0.00  0.00    +0.030 A 
ATOM     29  C   UNL     1      -5.727  15.344  -8.626  0.00  0.00    +0.023 A 
ATOM     30  C   UNL     1      -6.349  16.289  -9.416  0.00  0.00    +0.005 A 
ATOM     31  C   UNL     1      -7.730  16.363  -9.451  0.00  0.00    -0.050 A 
ATOM     32  C   UNL     1      -8.491  15.491  -8.695  0.00  0.00    +0.008 A 
ATOM     33  C   UNL     1      -7.875  14.539  -7.907  0.00  0.00    -0.029 A 
ATOM     34  C   UNL     1      -8.706  13.585  -7.088  0.00  0.00    +0.045 C 
ATOM     35  C   UNL     1      -8.406  17.396 -10.316  0.00  0.00    +0.044 C 
ENDBRANCH  26  28
ENDBRANCH  25  26
ENDBRANCH   2  25
TORSDOF 9
