REMARK  Name = ZINC41586362
REMARK  12 active torsions:
REMARK  status: ('A' for Active; 'I' for Inactive)
REMARK    1  A    between atoms: C_1  and  C_2
REMARK    2  A    between atoms: C_2  and  O_3
REMARK    3  A    between atoms: O_3  and  C_4
REMARK    4  A    between atoms: C_4  and  C_6
REMARK    5  A    between atoms: N_11  and  C_13
REMARK    6  A    between atoms: C_13  and  C_14
REMARK    7  A    between atoms: C_15  and  O_36
REMARK    8  A    between atoms: C_17  and  C_35
REMARK    9  A    between atoms: C_22  and  C_23
REMARK   10  A    between atoms: C_26  and  C_29
REMARK   11  A    between atoms: C_29  and  O_31
REMARK   12  A    between atoms: O_31  and  C_32
REMARK                            x       y       z     vdW  Elec       q    Type
REMARK                         _______ _______ _______ _____ _____    ______ ____
ROOT
ATOM      1  C   UNL     1      -5.678  -6.114   0.198  0.00  0.00    +0.020 A 
ATOM      2  C   UNL     1      -6.179  -6.389   1.461  0.00  0.00    +0.122 A 
ATOM      3  C   UNL     1      -7.298  -7.202   1.616  0.00  0.00    +0.050 A 
ATOM      4  C   UNL     1      -7.916  -7.737   0.521  0.00  0.00    -0.033 A 
ATOM      5  C   UNL     1      -7.422  -7.467  -0.756  0.00  0.00    +0.071 A 
ATOM      6  C   UNL     1      -6.296  -6.645  -0.926  0.00  0.00    +0.145 A 
ATOM      7  O   UNL     1      -6.011  -6.525  -2.241  0.00  0.00    -0.451 OA
ATOM      8  C   UNL     1      -6.883  -7.218  -3.010  0.00  0.00    +0.176 C 
ATOM      9  C   UNL     1      -6.868  -7.300  -4.364  0.00  0.00    +0.058 C 
ATOM     10  C   UNL     1      -7.844  -7.878  -2.108  0.00  0.00    +0.232 C 
ATOM     11  O   UNL     1      -8.784  -8.591  -2.411  0.00  0.00    -0.283 OA
ATOM     12  C   UNL     1      -9.127  -8.616   0.691  0.00  0.00    +0.045 C 
ENDROOT
BRANCH   9  13
ATOM     13  C   UNL     1      -5.756  -6.711  -5.123  0.00  0.00    -0.021 A 
ATOM     14  C   UNL     1      -4.630  -6.220  -4.451  0.00  0.00    +0.009 A 
ATOM     15  C   UNL     1      -3.594  -5.672  -5.161  0.00  0.00    +0.015 A 
ATOM     16  C   UNL     1      -3.660  -5.603  -6.555  0.00  0.00    +0.059 A 
ATOM     17  C   UNL     1      -4.783  -6.093  -7.228  0.00  0.00    +0.015 A 
ATOM     18  C   UNL     1      -5.819  -6.646  -6.521  0.00  0.00    +0.009 A 
BRANCH  16  19
ATOM     19  C   UNL     1      -2.542  -5.012  -7.319  0.00  0.00    +0.339 C 
ATOM     20  O   UNL     1      -1.566  -4.585  -6.735  0.00  0.00    -0.245 OA
BRANCH  19  21
ATOM     21  O   UNL     1      -2.606  -4.945  -8.663  0.00  0.00    -0.464 OA
ATOM     22  C   UNL     1      -1.489  -4.361  -9.337  0.00  0.00    +0.280 C 
ENDBRANCH  19  21
ENDBRANCH  16  19
ENDBRANCH   9  13
BRANCH   2  23
ATOM     23  O   UNL     1      -5.572  -5.863   2.555  0.00  0.00    -0.506 OA
ATOM     24  H   UNL     1      -5.919  -5.000   2.820  0.00  0.00    +0.292 HD
ENDBRANCH   2  23
BRANCH   1  25
ATOM     25  C   UNL     1      -4.465  -5.232   0.045  0.00  0.00    -0.036 C 
BRANCH  25  30
ATOM     26  C   UNL     1      -4.147  -1.498  -0.149  0.00  0.00    +0.081 C 
ATOM     27  C   UNL     1      -4.978  -1.261  -1.414  0.00  0.00    +0.011 C 
ATOM     28  C   UNL     1      -6.168  -2.225  -1.419  0.00  0.00    -0.018 C 
ATOM     29  C   UNL     1      -5.653  -3.663  -1.323  0.00  0.00    -0.078 C 
ATOM     30  N   UNL     1      -4.890  -3.832  -0.080  0.00  0.00    +0.383 N 
ATOM     31  C   UNL     1      -3.708  -2.962  -0.099  0.00  0.00    -0.064 C 
ATOM     32  H   UNL     1      -5.473  -3.587   0.707  0.00  0.00    -0.081 HD
BRANCH  26  33
ATOM     33  C   UNL     1      -2.931  -0.608  -0.172  0.00  0.00    +0.308 C 
ATOM     34  O   UNL     1      -1.826  -1.095  -0.149  0.00  0.00    -0.251 OA
BRANCH  33  35
ATOM     35  O   UNL     1      -3.076   0.726  -0.217  0.00  0.00    -0.465 OA
BRANCH  35  37
ATOM     36  C   UNL     1      -2.244   2.994  -0.289  0.00  0.00    +0.048 C 
ATOM     37  C   UNL     1      -1.881   1.508  -0.237  0.00  0.00    +0.229 C 
ENDBRANCH  35  37
ENDBRANCH  33  35
ENDBRANCH  26  33
ENDBRANCH  25  30
ENDBRANCH   1  25
TORSDOF 9
