REMARK  Name = ZINC22009524
REMARK  6 active torsions:
REMARK  status: ('A' for Active; 'I' for Inactive)
REMARK    1  A    between atoms: C_3  and  C_6
REMARK    2  A    between atoms: N_8  and  C_15
REMARK    3  A    between atoms: N_11  and  C_12
REMARK    4  A    between atoms: C_15  and  N_16
REMARK    5  A    between atoms: N_19  and  S_22
REMARK    6  A    between atoms: S_22  and  N_25
REMARK                            x       y       z     vdW  Elec       q    Type
REMARK                         _______ _______ _______ _____ _____    ______ ____
ROOT
ATOM      1  N   UNL     1      -0.176   1.481  -1.039  0.00  0.00    +0.394 N 
ATOM      2  C   UNL     1      -1.554   1.117  -1.395  0.00  0.00    -0.059 C 
ATOM      3  C   UNL     1      -1.978   1.899  -2.643  0.00  0.00    +0.092 C 
ATOM      4  N   UNL     1      -0.981   1.669  -3.700  0.00  0.00    -0.170 NA
ATOM      5  C   UNL     1       0.438   1.881  -3.376  0.00  0.00    +0.092 C 
ATOM      6  C   UNL     1       0.767   1.100  -2.099  0.00  0.00    -0.059 C 
ATOM      7  H   UNL     1      -0.135   2.575  -0.933  0.00  0.00    -0.079 HD
ENDROOT
BRANCH   4   8
ATOM      8  S   UNL     1      -1.445   1.186  -5.214  0.00  0.00    +0.099 S 
ATOM      9  O   UNL     1      -2.793   1.603  -5.379  0.00  0.00    -0.141 OA
ATOM     10  O   UNL     1      -0.410   1.585  -6.102  0.00  0.00    -0.141 OA
BRANCH   8  11
ATOM     11  N   UNL     1      -1.458  -0.470  -5.217  0.00  0.00    -0.166 NA
ATOM     12  C   UNL     1      -0.251  -1.172  -5.592  0.00  0.00    +0.110 C 
ATOM     13  C   UNL     1      -0.230  -1.403  -7.118  0.00  0.00    +0.017 C 
ATOM     14  C   UNL     1      -1.228  -2.416  -7.495  0.00  0.00    +0.001 C 
ATOM     15  C   UNL     1      -2.670  -2.021  -7.191  0.00  0.00    +0.001 C 
ATOM     16  C   UNL     1      -2.992  -2.371  -5.759  0.00  0.00    +0.017 C 
ATOM     17  C   UNL     1      -2.703  -1.169  -4.842  0.00  0.00    +0.110 C 
ENDBRANCH   8  11
ENDBRANCH   4   8
BRANCH   1  18
ATOM     18  C   UNL     1       0.210   0.885   0.247  0.00  0.00    +0.072 C 
BRANCH  18  21
ATOM     19  C   UNL     1      -2.239   1.777   2.741  0.00  0.00    +0.170 A 
ATOM     20  N   UNL     1      -1.833   0.989   1.782  0.00  0.00    -0.152 NA
ATOM     21  N   UNL     1      -0.600   1.470   1.319  0.00  0.00    -0.257 N 
ATOM     22  C   UNL     1      -0.293   2.566   2.043  0.00  0.00    +0.177 A 
ATOM     23  S   UNL     1       1.115   3.525   1.875  0.00  0.00    -0.011 S 
ATOM     24  N   UNL     1      -1.295   2.771   2.921  0.00  0.00    -0.300 N 
BRANCH  19  27
ATOM     25  C   UNL     1      -5.457   0.646   4.372  0.00  0.00    +0.008 A 
ATOM     26  C   UNL     1      -4.333   0.551   3.583  0.00  0.00    +0.019 A 
ATOM     27  C   UNL     1      -3.491   1.631   3.503  0.00  0.00    +0.056 A 
ATOM     28  S   UNL     1      -4.311   2.815   4.557  0.00  0.00    -0.094 S 
ATOM     29  C   UNL     1      -5.703   1.805   5.036  0.00  0.00    +0.046 A 
ENDBRANCH  19  27
BRANCH  24  30
ATOM     30  C   UNL     1      -1.369   3.858   3.900  0.00  0.00    +0.091 C 
ATOM     31  C   UNL     1      -0.472   5.076   3.673  0.00  0.00    +0.027 C 
ATOM     32  C   UNL     1      -0.150   4.086   4.795  0.00  0.00    +0.027 C 
ENDBRANCH  24  30
ENDBRANCH  18  21
ENDBRANCH   1  18
TORSDOF 6
