REMARK  Name = ZINC22239144
REMARK  10 active torsions:
REMARK  status: ('A' for Active; 'I' for Inactive)
REMARK    1  A    between atoms: C_1  and  C_2
REMARK    2  A    between atoms: C_3  and  C_12
REMARK    3  A    between atoms: C_12  and  S_13
REMARK    4  A    between atoms: S_13  and  C_14
REMARK    5  A    between atoms: C_14  and  C_15
REMARK    6  A    between atoms: C_15  and  O_17
REMARK    7  A    between atoms: O_17  and  C_18
REMARK    8  A    between atoms: C_18  and  C_19
REMARK    9  A    between atoms: C_30  and  C_32
REMARK   10  A    between atoms: C_30  and  C_33
REMARK                            x       y       z     vdW  Elec       q    Type
REMARK                         _______ _______ _______ _____ _____    ______ ____
ROOT
ATOM      1  O   UNL     1       1.071  -2.171  -0.020  0.00  0.00    -0.455 OA
ENDROOT
BRANCH   1   2
ATOM      2  C   UNL     1       2.147  -2.974  -0.034  0.00  0.00    +0.317 C 
ATOM      3  O   UNL     1       3.257  -2.497  -0.042  0.00  0.00    -0.250 OA
BRANCH   2   4
ATOM      4  C   UNL     1       1.970  -4.470  -0.041  0.00  0.00    +0.189 C 
BRANCH   4   5
ATOM      5  S   UNL     1       3.597  -5.272  -0.061  0.00  0.00    -0.145 S 
BRANCH   5   6
ATOM      6  C   UNL     1       3.213  -7.045  -0.067  0.00  0.00    +0.112 C 
BRANCH   6   9
ATOM      7  C   UNL     1       4.140  -8.355   2.314  0.00  0.00    +0.064 C 
ATOM      8  C   UNL     1       4.932  -8.454   1.036  0.00  0.00    +0.026 A 
ATOM      9  C   UNL     1       4.495  -7.836  -0.083  0.00  0.00    +0.046 A 
ATOM     10  C   UNL     1       5.260  -7.938  -1.270  0.00  0.00    +0.258 A 
ATOM     11  O   UNL     1       4.888  -7.386  -2.290  0.00  0.00    -0.267 OA
ATOM     12  N   UNL     1       6.404  -8.652  -1.261  0.00  0.00    -0.275 N 
ATOM     13  H   UNL     1       7.006  -8.738  -2.177  0.00  0.00    +0.173 HD
ATOM     14  C   UNL     1       6.814  -9.261  -0.133  0.00  0.00    +0.327 A 
ATOM     15  O   UNL     1       7.848  -9.902  -0.139  0.00  0.00    -0.247 OA
ATOM     16  N   UNL     1       6.096  -9.172   1.002  0.00  0.00    -0.311 N 
ATOM     17  H   UNL     1       6.453  -9.684   1.908  0.00  0.00    +0.170 HD
ENDBRANCH   6   9
ENDBRANCH   5   6
ENDBRANCH   4   5
ENDBRANCH   2   4
ENDBRANCH   1   2
BRANCH   1  18
ATOM     18  C   UNL     1       1.317  -0.740  -0.015  0.00  0.00    +0.328 C 
BRANCH  18  19
ATOM     19  C   UNL     1       0.002  -0.004   0.002  0.00  0.00    +0.256 C 
ATOM     20  O   UNL     1      -1.040  -0.625   0.009  0.00  0.00    -0.272 OA
ATOM     21  N   UNL     1      -0.016   1.344   0.009  0.00  0.00    -0.262 N 
ATOM     22  C   UNL     1      -1.223   2.018   0.019  0.00  0.00    +0.165 A 
ATOM     23  N   UNL     1      -1.441   3.326   0.027  0.00  0.00    -0.229 NA
ATOM     24  C   UNL     1      -2.648   3.838   0.036  0.00  0.00    +0.062 A 
ATOM     25  C   UNL     1      -3.696   2.908   0.033  0.00  0.00    +0.079 A 
ATOM     26  S   UNL     1      -2.835   1.364   0.015  0.00  0.00    -0.049 S 
ATOM     27  C   UNL     1      -5.052   3.217   0.036  0.00  0.00    +0.172 C 
ATOM     28  O   UNL     1      -5.900   2.347   0.053  0.00  0.00    -0.291 OA
ATOM     29  C   UNL     1      -5.428   4.687   0.016  0.00  0.00    +0.087 C 
ATOM     30  C   UNL     1      -4.347   5.495   0.734  0.00  0.00    -0.022 C 
ATOM     31  C   UNL     1      -2.987   5.323   0.051  0.00  0.00    +0.063 C 
ATOM     32  C   UNL     1      -4.244   5.019   2.185  0.00  0.00    +0.011 C 
ATOM     33  C   UNL     1      -4.733   6.976   0.718  0.00  0.00    +0.011 C 
ATOM     34  H   UNL     1       0.929   1.907   0.008  0.00  0.00    +0.157 HD
ENDBRANCH  18  19
ENDBRANCH   1  18
TORSDOF 7
