REMARK  Name = ZINC15405175
REMARK  5 active torsions:
REMARK  status: ('A' for Active; 'I' for Inactive)
REMARK    1  A    between atoms: C_1  and  C_2
REMARK    2  A    between atoms: C_4  and  C_16
REMARK    3  A    between atoms: C_5  and  C_15
REMARK    4  A    between atoms: N_6  and  C_7
REMARK    5  A    between atoms: N_22  and  C_23
REMARK                            x       y       z     vdW  Elec       q    Type
REMARK                         _______ _______ _______ _____ _____    ______ ____
ROOT
ATOM      1  C   UNL     1       5.746   4.253  -0.899  0.00  0.00    +0.083 C 
ATOM      2  N   UNL     1       4.615   4.676  -0.440  0.00  0.00    -0.150 NA
ATOM      3  N   UNL     1       3.438   3.940  -0.420  0.00  0.00    -0.127 NA
ATOM      4  C   UNL     1       3.405   2.630  -0.451  0.00  0.00    +0.180 C 
ATOM      5  S   UNL     1       4.906   1.706  -0.517  0.00  0.00    -0.082 S 
ATOM      6  C   UNL     1       5.921   2.872  -1.469  0.00  0.00    +0.135 C 
ATOM      7  N   UNL     1       2.196   1.974  -0.425  0.00  0.00    -0.291 N 
ATOM      8  H   UNL     1       2.165   1.010  -0.537  0.00  0.00    +0.154 HD
ENDROOT
BRANCH   7   9
ATOM      9  C   UNL     1       1.012   2.695  -0.239  0.00  0.00    +0.051 A 
ATOM     10  C   UNL     1       1.023   3.869   0.502  0.00  0.00    +0.026 A 
ATOM     11  C   UNL     1      -0.147   4.580   0.686  0.00  0.00    +0.022 A 
ATOM     12  C   UNL     1      -1.330   4.123   0.131  0.00  0.00    +0.042 A 
ATOM     13  C   UNL     1      -1.344   2.956  -0.613  0.00  0.00    +0.041 A 
ATOM     14  C   UNL     1      -0.177   2.238  -0.794  0.00  0.00    +0.063 A 
ATOM     15 CL   UNL     1      -0.195   0.770  -1.722  0.00  0.00    -0.082 Cl
ATOM     16 CL   UNL     1      -2.799   5.019   0.363  0.00  0.00    -0.083 Cl
ENDBRANCH   7   9
BRANCH   1  20
ATOM     17  C   UNL     1      10.458   6.137  -1.434  0.00  0.00    +0.063 C 
ATOM     18  C   UNL     1       8.996   5.972  -1.109  0.00  0.00    +0.017 A 
ATOM     19  C   UNL     1       8.264   4.865  -1.335  0.00  0.00    +0.032 A 
ATOM     20  C   UNL     1       6.907   5.157  -0.865  0.00  0.00    +0.020 A 
ATOM     21  C   UNL     1       6.935   6.439  -0.392  0.00  0.00    +0.025 A 
ATOM     22  N   UNL     1       8.199   6.919  -0.539  0.00  0.00    -0.343 N 
ATOM     23  C   UNL     1       5.767   7.191   0.193  0.00  0.00    +0.064 C 
BRANCH  22  24
ATOM     24  C   UNL     1       8.638   8.261  -0.147  0.00  0.00    +0.110 C 
ATOM     25  C   UNL     1       9.171   9.005  -1.383  0.00  0.00    +0.049 C 
ATOM     26  C   UNL     1       9.911  10.284  -0.897  0.00  0.00    +0.168 C 
ATOM     27  S   UNL     1      10.794   9.622   0.579  0.00  0.00    -0.029 S 
ATOM     28  O   UNL     1      12.090   9.193   0.188  0.00  0.00    -0.174 OA
ATOM     29  O   UNL     1      10.657  10.544   1.651  0.00  0.00    -0.174 OA
ATOM     30  C   UNL     1       9.752   8.146   0.921  0.00  0.00    +0.191 C 
ENDBRANCH  22  24
ENDBRANCH   1  20
TORSDOF 3
