REMARK  Name = ZINC40919184
REMARK  11 active torsions:
REMARK  status: ('A' for Active; 'I' for Inactive)
REMARK    1  A    between atoms: C_1  and  C_2
REMARK    2  A    between atoms: C_2  and  C_3
REMARK    3  A    between atoms: C_7  and  O_34
REMARK    4  A    between atoms: C_8  and  O_25
REMARK    5  A    between atoms: C_15  and  O_23
REMARK    6  A    between atoms: C_16  and  O_21
REMARK    7  A    between atoms: O_21  and  C_22
REMARK    8  A    between atoms: O_23  and  C_24
REMARK    9  A    between atoms: O_25  and  C_26
REMARK   10  A    between atoms: C_26  and  C_27
REMARK   11  A    between atoms: O_34  and  C_35
REMARK                            x       y       z     vdW  Elec       q    Type
REMARK                         _______ _______ _______ _____ _____    ______ ____
ROOT
ATOM      1  C   UNL     1       0.708  -0.490  -1.239  0.00  0.00    -0.016 A 
ATOM      2  C   UNL     1      -0.063  -0.841  -2.366  0.00  0.00    -0.008 A 
ATOM      3  C   UNL     1      -1.464  -0.841  -2.355  0.00  0.00    +0.013 A 
ATOM      4  C   UNL     1      -2.155  -1.201  -3.475  0.00  0.00    +0.050 A 
ATOM      5  C   UNL     1      -1.491  -1.575  -4.643  0.00  0.00    +0.162 A 
ATOM      6  C   UNL     1      -0.110  -1.587  -4.693  0.00  0.00    +0.171 A 
ATOM      7  C   UNL     1       0.624  -1.212  -3.553  0.00  0.00    +0.044 A 
ATOM      8  C   UNL     1       2.023  -1.183  -3.553  0.00  0.00    +0.098 A 
ATOM      9  N   UNL     1       2.693  -0.883  -2.463  0.00  0.00    -0.345 N 
ATOM     10  C   UNL     1       2.079  -0.618  -1.294  0.00  0.00    +0.053 A 
ATOM     11  C   UNL     1       2.934  -0.541  -0.084  0.00  0.00    +0.006 A 
ATOM     12  C   UNL     1       2.526  -0.989   1.166  0.00  0.00    +0.059 A 
ATOM     13  C   UNL     1       3.355  -0.838   2.266  0.00  0.00    +0.162 A 
ATOM     14  C   UNL     1       4.625  -0.287   2.116  0.00  0.00    +0.162 A 
ATOM     15  C   UNL     1       5.068   0.085   0.855  0.00  0.00    +0.053 A 
ATOM     16  C   UNL     1       4.241  -0.067  -0.232  0.00  0.00    -0.033 A 
ATOM     17  C   UNL     1       4.726   0.232  -1.629  0.00  0.00    +0.057 C 
ATOM     18  C   UNL     1       4.157  -0.830  -2.568  0.00  0.00    +0.126 C 
ENDROOT
BRANCH   1  20
ATOM     19  C   UNL     1      -0.252   1.500  -0.112  0.00  0.00    +0.009 C 
ATOM     20  C   UNL     1       0.002  -0.004   0.002  0.00  0.00    +0.034 C 
ENDBRANCH   1  20
BRANCH  14  21
ATOM     21  O   UNL     1       5.426  -0.114   3.199  0.00  0.00    -0.491 OA
ATOM     22  C   UNL     1       6.715   0.457   2.967  0.00  0.00    +0.277 C 
ENDBRANCH  14  21
BRANCH  13  23
ATOM     23  O   UNL     1       2.925  -1.230   3.495  0.00  0.00    -0.491 OA
ATOM     24  C   UNL     1       1.611  -1.786   3.576  0.00  0.00    +0.277 C 
ENDBRANCH  13  23
BRANCH   5  25
ATOM     25  O   UNL     1      -2.208  -1.931  -5.742  0.00  0.00    -0.491 OA
ATOM     26  C   UNL     1      -3.631  -1.898  -5.628  0.00  0.00    +0.277 C 
ENDBRANCH   5  25
BRANCH   6  27
ATOM     27  O   UNL     1       0.530  -1.958  -5.833  0.00  0.00    -0.483 OA
BRANCH  27  28
ATOM     28  C   UNL     1       0.831  -0.925  -6.774  0.00  0.00    +0.266 C 
BRANCH  28  29
ATOM     29  C   UNL     1       1.535  -1.521  -7.966  0.00  0.00    +0.008 A 
ATOM     30  C   UNL     1       2.918  -1.625  -7.984  0.00  0.00    +0.011 A 
ATOM     31  C   UNL     1       3.522  -2.179  -9.101  0.00  0.00    +0.040 A 
ATOM     32  C   UNL     1       2.732  -2.607 -10.153  0.00  0.00    +0.129 A 
ATOM     33  N   UNL     1       1.419  -2.492 -10.100  0.00  0.00    -0.243 NA
ATOM     34  C   UNL     1       0.810  -1.975  -9.051  0.00  0.00    +0.119 A 
ATOM     35 CL   UNL     1       3.477  -3.303 -11.559  0.00  0.00    -0.062 Cl
ENDBRANCH  28  29
ENDBRANCH  27  28
ENDBRANCH   6  27
TORSDOF 7
