REMARK  Name = ZINC13134498
REMARK  7 active torsions:
REMARK  status: ('A' for Active; 'I' for Inactive)
REMARK    1  A    between atoms: C_1  and  C_2
REMARK    2  A    between atoms: N_4  and  S_5
REMARK    3  A    between atoms: S_5  and  C_8
REMARK    4  A    between atoms: C_11  and  N_14
REMARK    5  A    between atoms: C_15  and  C_17
REMARK    6  A    between atoms: C_17  and  N_18
REMARK    7  A    between atoms: C_19  and  C_21
REMARK                            x       y       z     vdW  Elec       q    Type
REMARK                         _______ _______ _______ _____ _____    ______ ____
ROOT
ATOM      1  N   UNL     1       3.848  11.258   0.026  0.00  0.00    -0.284 N 
ATOM      2  C   UNL     1       3.107  10.133   0.025  0.00  0.00    +0.234 C 
ATOM      3  O   UNL     1       1.896  10.204   0.028  0.00  0.00    -0.274 OA
ATOM      4  H   UNL     1       4.814  11.203   0.091  0.00  0.00    +0.155 HD
ENDROOT
BRANCH   1   8
ATOM      5  C   UNL     1       1.989  14.977  -0.251  0.00  0.00    +0.109 A 
ATOM      6  C   UNL     1       1.377  13.949   0.443  0.00  0.00    +0.030 A 
ATOM      7  C   UNL     1       1.991  12.716   0.537  0.00  0.00    +0.025 A 
ATOM      8  C   UNL     1       3.224  12.507  -0.067  0.00  0.00    +0.034 A 
ATOM      9  C   UNL     1       3.839  13.543  -0.758  0.00  0.00    +0.025 A 
ATOM     10  C   UNL     1       3.217  14.772  -0.854  0.00  0.00    +0.030 A 
BRANCH   5  11
ATOM     11  S   UNL     1       1.203  16.549  -0.368  0.00  0.00    +0.074 S 
ATOM     12  O   UNL     1       1.725  17.178  -1.531  0.00  0.00    -0.150 OA
ATOM     13  O   UNL     1      -0.187  16.323  -0.183  0.00  0.00    -0.150 OA
BRANCH  11  17
ATOM     14  C   UNL     1       3.472  18.619   2.211  0.00  0.00    +0.111 C 
ATOM     15  C   UNL     1       3.009  17.800   1.033  0.00  0.00    +0.229 C 
ATOM     16  O   UNL     1       3.803  17.458   0.183  0.00  0.00    -0.275 OA
ATOM     17  N   UNL     1       1.712  17.449   0.925  0.00  0.00    -0.186 N 
ATOM     18  H   UNL     1       1.077  17.723   1.606  0.00  0.00    +0.177 HD
ENDBRANCH  11  17
ENDBRANCH   5  11
ENDBRANCH   1   8
BRANCH   2  19
ATOM     19  C   UNL     1       3.783   8.786   0.020  0.00  0.00    +0.200 C 
BRANCH  19  20
ATOM     20  N   UNL     1       2.767   7.730   0.020  0.00  0.00    -0.302 N 
ATOM     21  C   UNL     1       3.141   6.435   0.016  0.00  0.00    +0.253 C 
ATOM     22  O   UNL     1       4.322   6.143   0.012  0.00  0.00    -0.270 OA
ATOM     23  H   UNL     1       1.825   7.963   0.023  0.00  0.00    +0.150 HD
BRANCH  21  24
ATOM     24  C   UNL     1       2.123   5.377   0.016  0.00  0.00    +0.093 A 
ATOM     25  C   UNL     1       2.302   4.028   0.012  0.00  0.00    +0.068 A 
ATOM     26  C   UNL     1       1.185   3.172   0.013  0.00  0.00    +0.008 A 
ATOM     27  C   UNL     1       1.165   1.754   0.010  0.00  0.00    +0.010 A 
ATOM     28  C   UNL     1      -0.011   1.075   0.011  0.00  0.00    +0.001 A 
ATOM     29  C   UNL     1      -1.234   1.736   0.011  0.00  0.00    +0.001 A 
ATOM     30  C   UNL     1      -1.260   3.116   0.020  0.00  0.00    +0.016 A 
ATOM     31  C   UNL     1      -0.074   3.819   0.018  0.00  0.00    +0.021 A 
ATOM     32  S   UNL     1       0.346   5.543   0.021  0.00  0.00    -0.082 S 
ATOM     33 CL   UNL     1       3.906   3.364   0.005  0.00  0.00    -0.082 Cl
ENDBRANCH  21  24
ENDBRANCH  19  20
ENDBRANCH   2  19
TORSDOF 6
