REMARK  Name = ZINC19213199
REMARK  6 active torsions:
REMARK  status: ('A' for Active; 'I' for Inactive)
REMARK    1  A    between atoms: C_1  and  C_2
REMARK    2  A    between atoms: C_4  and  N_9
REMARK    3  A    between atoms: C_10  and  C_12
REMARK    4  A    between atoms: C_12  and  S_13
REMARK    5  A    between atoms: S_13  and  C_14
REMARK    6  A    between atoms: C_14  and  C_15
REMARK                            x       y       z     vdW  Elec       q    Type
REMARK                         _______ _______ _______ _____ _____    ______ ____
ROOT
ATOM      1  C   UNL     1      -0.044   2.836  -6.733  0.00  0.00    +0.143 C 
ENDROOT
BRANCH   1   2
ATOM      2  C   UNL     1      -0.113   2.776  -5.229  0.00  0.00    +0.121 A 
ATOM      3  N   UNL     1       0.937   2.266  -4.535  0.00  0.00    -0.310 N 
ATOM      4  H   UNL     1       1.827   1.903  -5.070  0.00  0.00    +0.170 HD
ATOM      5  C   UNL     1       0.918   2.193  -3.190  0.00  0.00    +0.260 A 
ATOM      6  O   UNL     1       1.867   1.733  -2.580  0.00  0.00    -0.267 OA
ATOM      7  C   UNL     1      -0.240   2.665  -2.490  0.00  0.00    +0.075 A 
ATOM      8  C   UNL     1      -0.479   2.682  -1.040  0.00  0.00    -0.023 A 
ATOM      9  C   UNL     1      -1.656   3.181  -0.624  0.00  0.00    -0.004 A 
ATOM     10  S   UNL     1      -2.507   3.651  -2.112  0.00  0.00    -0.073 S 
ATOM     11  C   UNL     1      -1.272   3.174  -3.291  0.00  0.00    +0.116 A 
ATOM     12  N   UNL     1      -1.181   3.214  -4.618  0.00  0.00    -0.226 NA
ATOM     13  C   UNL     1      -1.787   3.151   0.875  0.00  0.00    +0.043 C 
ATOM     14  C   UNL     1      -0.341   2.959   1.388  0.00  0.00    +0.010 C 
ATOM     15  C   UNL     1       0.321   2.248   0.192  0.00  0.00    +0.037 C 
ENDBRANCH   1   2
BRANCH   1  16
ATOM     16  S   UNL     1      -1.578   3.558  -7.380  0.00  0.00    -0.144 S 
BRANCH  16  17
ATOM     17  C   UNL     1      -1.339   3.560  -9.178  0.00  0.00    +0.165 C 
BRANCH  17  19
ATOM     18  N   UNL     1      -2.605   4.245 -11.189  0.00  0.00    -0.285 N 
ATOM     19  C   UNL     1      -2.557   4.142  -9.846  0.00  0.00    +0.227 C 
ATOM     20  O   UNL     1      -3.495   4.519  -9.176  0.00  0.00    -0.275 OA
ATOM     21  H   UNL     1      -1.722   3.985 -11.792  0.00  0.00    +0.155 HD
BRANCH  18  25
ATOM     22  C   UNL     1      -4.784   6.667 -14.871  0.00  0.00    +0.045 C 
ATOM     23  C   UNL     1      -4.862   5.857 -13.603  0.00  0.00    -0.035 A 
ATOM     24  C   UNL     1      -3.704   5.428 -12.986  0.00  0.00    +0.027 A 
ATOM     25  C   UNL     1      -3.777   4.682 -11.817  0.00  0.00    +0.034 A 
ATOM     26  C   UNL     1      -5.016   4.366 -11.274  0.00  0.00    +0.024 A 
ATOM     27  C   UNL     1      -6.171   4.803 -11.892  0.00  0.00    +0.017 A 
ATOM     28  C   UNL     1      -6.095   5.546 -13.057  0.00  0.00    +0.021 A 
ATOM     29 BR   UNL     1      -7.679   6.137 -13.904  0.00  0.00    -0.050 Br
ENDBRANCH  18  25
ENDBRANCH  17  19
ENDBRANCH  16  17
ENDBRANCH   1  16
TORSDOF 5
