REMARK  Name = ZINC19111384
REMARK  12 active torsions:
REMARK  status: ('A' for Active; 'I' for Inactive)
REMARK    1  A    between atoms: C_1  and  C_2
REMARK    2  A    between atoms: C_2  and  N_3
REMARK    3  A    between atoms: C_7  and  C_8
REMARK    4  A    between atoms: C_8  and  N_9
REMARK    5  A    between atoms: N_9  and  C_10
REMARK    6  A    between atoms: C_10  and  C_11
REMARK    7  A    between atoms: C_14  and  C_27
REMARK    8  A    between atoms: C_14  and  C_28
REMARK    9  A    between atoms: N_15  and  C_25
REMARK   10  A    between atoms: C_16  and  C_18
REMARK   11  A    between atoms: C_25  and  C_26
REMARK   12  A    between atoms: C_28  and  O_29
REMARK                            x       y       z     vdW  Elec       q    Type
REMARK                         _______ _______ _______ _____ _____    ______ ____
ROOT
ATOM      1  C   UNL     1       2.796   6.446  -2.870  0.00  0.00    -0.008 C 
ATOM      2  C   UNL     1       1.490   6.945  -3.522  0.00  0.00    -0.007 C 
ATOM      3  C   UNL     1       1.779   8.406  -3.930  0.00  0.00    -0.044 C 
ATOM      4  N   UNL     1       2.878   8.836  -3.028  0.00  0.00    +0.389 N 
ATOM      5  C   UNL     1       3.763   7.647  -2.938  0.00  0.00    -0.033 C 
ATOM      6  C   UNL     1       2.230   8.473  -5.390  0.00  0.00    -0.007 C 
ATOM      7  H   UNL     1       2.515   9.171  -2.045  0.00  0.00    -0.080 HD
ENDROOT
BRANCH   5   8
ATOM      8  C   UNL     1       4.608   7.713  -1.692  0.00  0.00    -0.061 A 
ATOM      9  C   UNL     1       4.089   8.262  -0.534  0.00  0.00    +0.003 A 
ATOM     10  C   UNL     1       4.861   8.318   0.611  0.00  0.00    +0.020 A 
ATOM     11  C   UNL     1       6.157   7.834   0.595  0.00  0.00    +0.041 A 
ATOM     12  C   UNL     1       6.678   7.290  -0.565  0.00  0.00    +0.020 A 
ATOM     13  C   UNL     1       5.903   7.229  -1.708  0.00  0.00    +0.003 A 
ATOM     14 CL   UNL     1       7.130   7.910   2.031  0.00  0.00    -0.084 Cl
ENDBRANCH   5   8
BRANCH   4  15
ATOM     15  C   UNL     1       3.598   9.988  -3.587  0.00  0.00    -0.081 C 
ATOM     16  C   UNL     1       4.632  10.483  -2.575  0.00  0.00    -0.017 C 
ENDBRANCH   4  15
BRANCH   1  17
ATOM     17  C   UNL     1       2.544   6.048  -1.414  0.00  0.00    +0.083 C 
BRANCH  17  18
ATOM     18  N   UNL     1       1.719   4.833  -1.374  0.00  0.00    -0.309 NA
ATOM     19  H   UNL     1       2.251   4.028  -1.901  0.00  0.00    +0.122 HD
BRANCH  18  20
ATOM     20  C   UNL     1       1.456   4.421   0.012  0.00  0.00    +0.154 C 
BRANCH  20  25
ATOM     21  N   UNL     1       1.075   1.907   0.002  0.00  0.00    -0.335 N 
ATOM     22  C   UNL     1      -0.013   1.076   0.008  0.00  0.00    +0.104 A 
ATOM     23  C   UNL     1      -1.105   1.864   0.017  0.00  0.00    +0.101 A 
ATOM     24  N   UNL     1      -0.695   3.141   0.025  0.00  0.00    -0.349 N 
ATOM     25  C   UNL     1       0.610   3.174   0.013  0.00  0.00    +0.101 A 
ATOM     26  H   UNL     1      -1.434   3.956   0.039  0.00  0.00    +0.166 HD
BRANCH  21  28
ATOM     27  C   UNL     1       3.020   1.469   1.419  0.00  0.00    +0.027 C 
ATOM     28  C   UNL     1       2.482   1.497  -0.013  0.00  0.00    +0.119 C 
ENDBRANCH  21  28
ENDBRANCH  20  25
ENDBRANCH  18  20
ENDBRANCH  17  18
ENDBRANCH   1  17
BRANCH   3  29
ATOM     29  C   UNL     1       0.540   9.277  -3.715  0.00  0.00    +0.143 C 
BRANCH  29  30
ATOM     30  O   UNL     1      -0.504   8.846  -4.591  0.00  0.00    -0.396 OA
ATOM     31  H   UNL     1      -1.478   9.358  -4.580  0.00  0.00    +0.209 HD
ENDBRANCH  29  30
ENDBRANCH   3  29
TORSDOF 9
