REMARK  Name = ZINC44854970
REMARK  11 active torsions:
REMARK  status: ('A' for Active; 'I' for Inactive)
REMARK    1  A    between atoms: C_1  and  C_2
REMARK    2  A    between atoms: C_2  and  O_3
REMARK    3  A    between atoms: O_3  and  C_4
REMARK    4  A    between atoms: C_8  and  C_10
REMARK    5  A    between atoms: C_10  and  N_11
REMARK    6  A    between atoms: C_14  and  C_17
REMARK    7  A    between atoms: N_19  and  C_20
REMARK    8  A    between atoms: C_20  and  C_22
REMARK    9  A    between atoms: C_20  and  C_23
REMARK   10  A    between atoms: C_26  and  N_29
REMARK   11  A    between atoms: C_33  and  C_36
REMARK                            x       y       z     vdW  Elec       q    Type
REMARK                         _______ _______ _______ _____ _____    ______ ____
ROOT
ATOM      1  C   UNL     1      -0.832  -4.347  -8.615  0.00  0.00    +0.216 C 
ATOM      2  O   UNL     1      -1.976  -3.997  -8.413  0.00  0.00    -0.276 OA
ATOM      3  N   UNL     1      -0.511  -4.968  -9.768  0.00  0.00    -0.309 N 
ATOM      4  H   UNL     1       0.403  -5.247  -9.930  0.00  0.00    +0.149 HD
ENDROOT
BRANCH   1   8
ATOM      5  N   UNL     1       1.190  -4.493  -4.875  0.00  0.00    +0.382 N 
ATOM      6  C   UNL     1       0.673  -3.184  -5.293  0.00  0.00    -0.078 C 
ATOM      7  C   UNL     1      -0.393  -3.374  -6.374  0.00  0.00    -0.006 C 
ATOM      8  C   UNL     1       0.230  -4.087  -7.578  0.00  0.00    +0.071 C 
ATOM      9  C   UNL     1       0.832  -5.417  -7.117  0.00  0.00    -0.006 C 
ATOM     10  C   UNL     1       1.852  -5.152  -6.008  0.00  0.00    -0.078 C 
ATOM     11  H   UNL     1       0.425  -5.068  -4.554  0.00  0.00    -0.081 HD
BRANCH   5  12
ATOM     12  C   UNL     1       2.155  -4.311  -3.784  0.00  0.00    -0.043 C 
BRANCH  12  17
ATOM     13  C   UNL     1       0.702  -1.862  -1.299  0.00  0.00    +0.121 A 
ATOM     14  C   UNL     1       0.151  -2.720  -0.358  0.00  0.00    +0.045 A 
ATOM     15  C   UNL     1       0.251  -4.088  -0.530  0.00  0.00    +0.004 A 
ATOM     16  C   UNL     1       0.899  -4.601  -1.639  0.00  0.00    +0.002 A 
ATOM     17  C   UNL     1       1.449  -3.748  -2.577  0.00  0.00    -0.060 A 
ATOM     18  C   UNL     1       1.347  -2.380  -2.413  0.00  0.00    +0.047 A 
BRANCH  13  19
ATOM     19  O   UNL     1       0.605  -0.517  -1.133  0.00  0.00    -0.492 OA
BRANCH  19  21
ATOM     20  C   UNL     1      -0.082   1.474   0.051  0.00  0.00    +0.048 C 
ATOM     21  C   UNL     1      -0.073  -0.055   0.037  0.00  0.00    +0.225 C 
ENDBRANCH  19  21
ENDBRANCH  13  19
ENDBRANCH  12  17
ENDBRANCH   5  12
ENDBRANCH   1   8
BRANCH   3  22
ATOM     22  C   UNL     1      -1.544  -5.220 -10.775  0.00  0.00    +0.100 C 
ATOM     23  C   UNL     1      -1.708  -3.982 -11.659  0.00  0.00    +0.033 C 
BRANCH  22  24
ATOM     24  C   UNL     1      -1.138  -6.395 -11.627  0.00  0.00    -0.027 A 
ATOM     25  C   UNL     1       0.182  -6.544 -12.013  0.00  0.00    +0.007 A 
ATOM     26  C   UNL     1       0.558  -7.620 -12.794  0.00  0.00    +0.023 A 
ATOM     27  C   UNL     1      -0.392  -8.553 -13.191  0.00  0.00    +0.030 A 
ATOM     28  C   UNL     1      -1.716  -8.400 -12.802  0.00  0.00    +0.023 A 
ATOM     29  C   UNL     1      -2.084  -7.325 -12.017  0.00  0.00    +0.007 A 
BRANCH  27  30
ATOM     30  N   UNL     1      -0.015  -9.641 -13.981  0.00  0.00    -0.330 N 
ATOM     31  C   UNL     1      -0.981 -10.698 -14.309  0.00  0.00    +0.105 C 
ATOM     32  C   UNL     1      -1.017 -10.880 -15.829  0.00  0.00    +0.019 C 
ATOM     33  C   UNL     1       0.401 -11.144 -16.341  0.00  0.00    +0.006 C 
ATOM     34  C   UNL     1       1.293  -9.943 -16.019  0.00  0.00    +0.003 C 
ATOM     35  C   UNL     1       1.353  -9.748 -14.505  0.00  0.00    +0.108 C 
ATOM     36  C   UNL     1       2.702 -10.194 -16.560  0.00  0.00    +0.009 C 
ENDBRANCH  27  30
ENDBRANCH  22  24
ENDBRANCH   3  22
TORSDOF 8
