REMARK  Name = ZINC02375680
REMARK  8 active torsions:
REMARK  status: ('A' for Active; 'I' for Inactive)
REMARK    1  A    between atoms: C_1  and  C_2
REMARK    2  A    between atoms: C_5  and  O_9
REMARK    3  A    between atoms: C_7  and  C_8
REMARK    4  A    between atoms: O_9  and  C_10
REMARK    5  A    between atoms: C_10  and  C_11
REMARK    6  A    between atoms: N_13  and  N_14
REMARK    7  A    between atoms: C_15  and  C_16
REMARK    8  A    between atoms: C_21  and  O_22
REMARK                            x       y       z     vdW  Elec       q    Type
REMARK                         _______ _______ _______ _____ _____    ______ ____
ROOT
ATOM      1  C   UNL     1      -4.816   3.913   0.068  0.00  0.00    +0.270 C 
ATOM      2  O   UNL     1      -4.672   5.117   0.072  0.00  0.00    -0.270 OA
ATOM      3  N   UNL     1      -6.056   3.382   0.077  0.00  0.00    -0.204 N 
ATOM      4  H   UNL     1      -6.171   2.419   0.074  0.00  0.00    +0.177 HD
ENDROOT
BRANCH   3   5
ATOM      5  N   UNL     1      -7.177   4.222   0.092  0.00  0.00    -0.188 NA
ATOM      6  C   UNL     1      -8.370   3.712   0.101  0.00  0.00    +0.142 C 
BRANCH   6   7
ATOM      7  C   UNL     1      -9.550   4.595   0.116  0.00  0.00    +0.039 A 
ATOM      8  C   UNL     1     -10.835   4.049   0.126  0.00  0.00    +0.033 A 
ATOM      9  C   UNL     1     -11.936   4.882   0.141  0.00  0.00    +0.043 A 
ATOM     10  C   UNL     1     -11.771   6.258   0.146  0.00  0.00    +0.043 A 
ATOM     11  C   UNL     1     -10.503   6.809   0.137  0.00  0.00    +0.084 A 
ATOM     12  C   UNL     1      -9.387   5.987   0.127  0.00  0.00    +0.144 A 
ATOM     13 CL   UNL     1     -10.308   8.534   0.144  0.00  0.00    -0.080 Cl
ATOM     14 CL   UNL     1     -13.534   4.203   0.152  0.00  0.00    -0.083 Cl
BRANCH  12  15
ATOM     15  O   UNL     1      -8.141   6.528   0.123  0.00  0.00    -0.505 OA
ATOM     16  H   UNL     1      -7.786   6.692  -0.762  0.00  0.00    +0.292 HD
ENDBRANCH  12  15
ENDBRANCH   6   7
ENDBRANCH   3   5
BRANCH   1  17
ATOM     17  C   UNL     1      -3.610   3.009   0.052  0.00  0.00    +0.326 C 
BRANCH  17  18
ATOM     18  O   UNL     1      -2.421   3.802   0.045  0.00  0.00    -0.483 OA
BRANCH  18  23
ATOM     19  C   UNL     1       2.490   1.045  -0.016  0.00  0.00    +0.044 C 
ATOM     20  C   UNL     1       1.176   1.783   0.000  0.00  0.00    -0.047 A 
ATOM     21  C   UNL     1      -0.013   1.076   0.008  0.00  0.00    +0.007 A 
ATOM     22  C   UNL     1      -1.218   1.750   0.017  0.00  0.00    +0.046 A 
ATOM     23  C   UNL     1      -1.236   3.137   0.030  0.00  0.00    +0.121 A 
ATOM     24  C   UNL     1      -0.043   3.844   0.022  0.00  0.00    +0.049 A 
ATOM     25  C   UNL     1       1.161   3.165   0.007  0.00  0.00    -0.044 A 
ATOM     26  C   UNL     1       2.457   3.933  -0.002  0.00  0.00    +0.044 C 
ENDBRANCH  18  23
ENDBRANCH  17  18
ENDBRANCH   1  17
TORSDOF 6
