REMARK  Name = ZINC06422805
REMARK  7 active torsions:
REMARK  status: ('A' for Active; 'I' for Inactive)
REMARK    1  A    between atoms: C_1  and  N_2
REMARK    2  A    between atoms: C_6  and  N_23
REMARK    3  A    between atoms: N_11  and  C_12
REMARK    4  A    between atoms: C_12  and  C_14
REMARK    5  A    between atoms: C_14  and  C_15
REMARK    6  A    between atoms: C_15  and  S_16
REMARK    7  A    between atoms: S_16  and  C_17
REMARK                            x       y       z     vdW  Elec       q    Type
REMARK                         _______ _______ _______ _____ _____    ______ ____
ROOT
ATOM      1  C   UNL     1       0.270  -2.982  -0.015  0.00  0.00    +0.151 C 
ATOM      2  N   UNL     1       1.420  -2.073  -0.021  0.00  0.00    -0.324 N 
ATOM      3  C   UNL     1       1.218  -0.705  -0.013  0.00  0.00    +0.057 A 
ATOM      4  C   UNL     1       0.002  -0.004   0.002  0.00  0.00    +0.029 A 
ATOM      5  C   UNL     1      -0.017   1.370   0.010  0.00  0.00    +0.035 A 
ATOM      6  C   UNL     1       1.158   2.104   0.002  0.00  0.00    +0.127 A 
ATOM      7  C   UNL     1       2.371   1.439  -0.013  0.00  0.00    +0.050 A 
ATOM      8  C   UNL     1       2.390   0.064  -0.020  0.00  0.00    +0.041 A 
ATOM      9  S   UNL     1       3.679  -1.157  -0.038  0.00  0.00    -0.052 S 
ATOM     10  C   UNL     1       2.682  -2.576  -0.035  0.00  0.00    +0.166 A 
ATOM     11  N   UNL     1       3.062  -3.852  -0.045  0.00  0.00    -0.156 NA
ENDROOT
BRANCH   6  12
ATOM     12  N   UNL     1       1.116   3.584   0.010  0.00  0.00    +0.056 N 
ATOM     13  O   UNL     1       0.044   4.163   0.023  0.00  0.00    -0.126 OA
ATOM     14  O   UNL     1       2.153   4.223   0.004  0.00  0.00    -0.126 OA
ENDBRANCH   6  12
BRANCH  11  15
ATOM     15  C   UNL     1       4.355  -4.160  -0.058  0.00  0.00    +0.239 C 
ATOM     16  O   UNL     1       5.190  -3.276  -0.061  0.00  0.00    -0.274 OA
BRANCH  15  17
ATOM     17  C   UNL     1       4.785  -5.604  -0.069  0.00  0.00    +0.109 C 
BRANCH  17  18
ATOM     18  C   UNL     1       6.313  -5.681  -0.082  0.00  0.00    +0.083 C 
BRANCH  18  19
ATOM     19  S   UNL     1       6.831  -7.419  -0.095  0.00  0.00    -0.125 S 
BRANCH  19  20
ATOM     20  C   UNL     1       8.591  -7.340  -0.110  0.00  0.00    +0.008 A 
ATOM     21  C   UNL     1       9.233  -6.107  -0.116  0.00  0.00    +0.015 A 
ATOM     22  C   UNL     1      10.612  -6.048  -0.121  0.00  0.00    +0.001 A 
ATOM     23  C   UNL     1      11.356  -7.214  -0.134  0.00  0.00    +0.000 A 
ATOM     24  C   UNL     1      10.721  -8.443  -0.135  0.00  0.00    +0.001 A 
ATOM     25  C   UNL     1       9.341  -8.509  -0.123  0.00  0.00    +0.015 A 
ENDBRANCH  19  20
ENDBRANCH  18  19
ENDBRANCH  17  18
ENDBRANCH  15  17
ENDBRANCH  11  15
TORSDOF 6
