REMARK  Name = ZINC36855255
REMARK  9 active torsions:
REMARK  status: ('A' for Active; 'I' for Inactive)
REMARK    1  A    between atoms: C_1  and  C_2
REMARK    2  A    between atoms: C_2  and  C_3
REMARK    3  A    between atoms: C_6  and  C_15
REMARK    4  A    between atoms: C_13  and  O_14
REMARK    5  A    between atoms: C_15  and  S_16
REMARK    6  A    between atoms: S_16  and  C_17
REMARK    7  A    between atoms: C_21  and  C_25
REMARK    8  A    between atoms: C_22  and  C_24
REMARK    9  A    between atoms: N_28  and  C_29
REMARK                            x       y       z     vdW  Elec       q    Type
REMARK                         _______ _______ _______ _____ _____    ______ ____
ROOT
ATOM      1  C   UNL     1      -1.412  -0.526   0.013  0.00  0.00    -0.005 A 
ATOM      2  C   UNL     1      -1.986  -0.952  -1.150  0.00  0.00    +0.019 A 
ATOM      3  C   UNL     1      -3.299  -1.437  -1.140  0.00  0.00    +0.022 A 
ATOM      4  C   UNL     1      -3.940  -1.901  -2.372  0.00  0.00    -0.020 A 
ATOM      5  C   UNL     1      -5.216  -2.361  -2.297  0.00  0.00    +0.097 A 
ATOM      6  C   UNL     1      -5.883  -2.379  -1.055  0.00  0.00    +0.338 A 
ATOM      7  O   UNL     1      -7.027  -2.793  -1.002  0.00  0.00    -0.245 OA
ATOM      8  O   UNL     1      -5.290  -1.952   0.071  0.00  0.00    -0.422 OA
ATOM      9  C   UNL     1      -4.024  -1.483   0.066  0.00  0.00    +0.143 A 
ATOM     10  C   UNL     1      -3.425  -1.046   1.237  0.00  0.00    +0.092 A 
ATOM     11  C   UNL     1      -2.122  -0.575   1.210  0.00  0.00    +0.124 A 
ENDROOT
BRANCH   1  13
ATOM     12  C   UNL     1      -0.019   1.526   0.010  0.00  0.00    +0.009 C 
ATOM     13  C   UNL     1       0.002  -0.004   0.002  0.00  0.00    +0.035 C 
ENDBRANCH   1  13
BRANCH  11  14
ATOM     14  O   UNL     1      -1.536  -0.152   2.359  0.00  0.00    -0.506 OA
ATOM     15  H   UNL     1      -1.668   0.788   2.546  0.00  0.00    +0.292 HD
ENDBRANCH  11  14
BRANCH   4  16
ATOM     16  C   UNL     1      -3.204  -1.871  -3.687  0.00  0.00    +0.113 C 
BRANCH  16  17
ATOM     17  S   UNL     1      -3.120  -0.163  -4.293  0.00  0.00    -0.083 S 
BRANCH  17  18
ATOM     18  C   UNL     1      -2.244  -0.294  -5.816  0.00  0.00    +0.173 A 
ATOM     19  N   UNL     1      -1.837  -1.476  -6.232  0.00  0.00    -0.216 NA
ATOM     20  C   UNL     1      -1.175  -1.605  -7.375  0.00  0.00    +0.117 A 
ATOM     21  C   UNL     1      -0.874  -0.499  -8.193  0.00  0.00    +0.075 A 
ATOM     22  C   UNL     1      -0.144  -0.817  -9.409  0.00  0.00    -0.026 A 
ATOM     23  C   UNL     1       0.183  -2.093  -9.662  0.00  0.00    -0.008 A 
ATOM     24  S   UNL     1      -0.478  -2.975  -8.261  0.00  0.00    -0.073 S 
ATOM     25  C   UNL     1       0.930  -2.647 -10.847  0.00  0.00    +0.052 C 
ATOM     26  C   UNL     1       0.241   0.275 -10.374  0.00  0.00    +0.045 C 
ATOM     27  C   UNL     1      -1.327   0.770  -7.715  0.00  0.00    +0.263 A 
ATOM     28  O   UNL     1      -1.113   1.784  -8.356  0.00  0.00    -0.267 OA
ATOM     29  N   UNL     1      -1.999   0.830  -6.550  0.00  0.00    -0.290 N 
ATOM     30  C   UNL     1      -2.471   2.127  -6.059  0.00  0.00    +0.154 C 
ENDBRANCH  17  18
ENDBRANCH  16  17
ENDBRANCH   4  16
TORSDOF 5
