REMARK  Name = ZINC63530454
REMARK  9 active torsions:
REMARK  status: ('A' for Active; 'I' for Inactive)
REMARK    1  A    between atoms: C_1  and  C_2
REMARK    2  A    between atoms: C_7  and  C_34
REMARK    3  A    between atoms: N_9  and  C_10
REMARK    4  A    between atoms: C_10  and  C_11
REMARK    5  A    between atoms: C_11  and  C_12
REMARK    6  A    between atoms: C_12  and  N_13
REMARK    7  A    between atoms: C_14  and  C_16
REMARK    8  A    between atoms: C_18  and  S_26
REMARK    9  A    between atoms: S_26  and  C_27
REMARK                            x       y       z     vdW  Elec       q    Type
REMARK                         _______ _______ _______ _____ _____    ______ ____
ROOT
ATOM      1  C   UNL     1       1.208  -0.166   8.396  0.00  0.00    +0.204 C 
ATOM      2  C   UNL     1       1.031  -1.585   8.889  0.00  0.00    +0.030 C 
ATOM      3  C   UNL     1       0.661  -1.477  10.225  0.00  0.00    +0.010 A 
ATOM      4  C   UNL     1       0.359  -2.441  11.211  0.00  0.00    +0.011 A 
ATOM      5  C   UNL     1       0.020  -2.041  12.464  0.00  0.00    +0.001 A 
ATOM      6  C   UNL     1      -0.038  -0.689  12.808  0.00  0.00    +0.002 A 
ATOM      7  C   UNL     1       0.239   0.290  11.911  0.00  0.00    +0.026 A 
ATOM      8  C   UNL     1       0.601  -0.052  10.583  0.00  0.00    +0.044 A 
ATOM      9  N   UNL     1       0.913   0.700   9.542  0.00  0.00    -0.369 N 
ATOM     10  H   UNL     1       0.943   1.670   9.536  0.00  0.00    +0.161 HD
ENDROOT
BRANCH   1  12
ATOM     11  N   UNL     1       0.535  -0.290   6.019  0.00  0.00    -0.313 N 
ATOM     12  C   UNL     1       0.246   0.117   7.271  0.00  0.00    +0.240 C 
ATOM     13  O   UNL     1      -0.789   0.709   7.492  0.00  0.00    -0.273 OA
ATOM     14  H   UNL     1       1.363  -0.764   5.842  0.00  0.00    +0.149 HD
BRANCH  11  15
ATOM     15  C   UNL     1      -0.400  -0.015   4.925  0.00  0.00    +0.102 C 
BRANCH  15  16
ATOM     16  C   UNL     1       0.164  -0.577   3.619  0.00  0.00    +0.000 C 
BRANCH  16  17
ATOM     17  C   UNL     1      -0.812  -0.290   2.477  0.00  0.00    -0.077 C 
BRANCH  17  24
ATOM     18  C   UNL     1      -1.292   1.071   0.068  0.00  0.00    -0.013 C 
ATOM     19  C   UNL     1      -1.149  -0.451   0.109  0.00  0.00    -0.071 C 
ATOM     20  C   UNL     1      -0.547  -0.942  -1.210  0.00  0.00    -0.016 C 
ATOM     21  C   UNL     1      -0.406  -2.466  -1.165  0.00  0.00    -0.003 C 
ATOM     22  C   UNL     1       0.450  -2.854   0.045  0.00  0.00    -0.016 C 
ATOM     23  C   UNL     1      -0.190  -2.293   1.317  0.00  0.00    -0.071 C 
ATOM     24  N   UNL     1      -0.271  -0.831   1.222  0.00  0.00    +0.383 N 
ATOM     25  C   UNL     1      -1.596  -2.872   1.478  0.00  0.00    -0.013 C 
ATOM     26  H   UNL     1       0.651  -0.452   1.066  0.00  0.00    -0.081 HD
ENDBRANCH  17  24
ENDBRANCH  16  17
ENDBRANCH  15  16
ENDBRANCH  11  15
ENDBRANCH   1  12
BRANCH   2  27
ATOM     27  S   UNL     1       1.235  -2.982   8.015  0.00  0.00    -0.091 S 
BRANCH  27  28
ATOM     28  C   UNL     1       2.968  -3.038   7.699  0.00  0.00    +0.013 A 
ATOM     29  C   UNL     1       3.813  -2.103   8.285  0.00  0.00    +0.016 A 
ATOM     30  C   UNL     1       5.170  -2.150   8.035  0.00  0.00    +0.021 A 
ATOM     31  C   UNL     1       5.689  -3.126   7.203  0.00  0.00    +0.041 A 
ATOM     32  C   UNL     1       4.850  -4.058   6.618  0.00  0.00    +0.021 A 
ATOM     33  C   UNL     1       3.492  -4.021   6.868  0.00  0.00    +0.016 A 
ATOM     34 CL   UNL     1       7.396  -3.180   6.890  0.00  0.00    -0.084 Cl
ENDBRANCH  27  28
ENDBRANCH   2  27
TORSDOF 7
