REMARK  Name = ZINC39674454
REMARK  12 active torsions:
REMARK  status: ('A' for Active; 'I' for Inactive)
REMARK    1  A    between atoms: C_1  and  C_2
REMARK    2  A    between atoms: C_4  and  C_9
REMARK    3  A    between atoms: C_5  and  C_8
REMARK    4  A    between atoms: C_9  and  C_11
REMARK    5  A    between atoms: C_9  and  N_12
REMARK    6  A    between atoms: C_13  and  C_15
REMARK    7  A    between atoms: C_26  and  C_28
REMARK    8  A    between atoms: C_31  and  C_38
REMARK    9  A    between atoms: N_33  and  C_34
REMARK   10  A    between atoms: C_34  and  C_35
REMARK   11  A    between atoms: C_34  and  C_36
REMARK   12  A    between atoms: C_34  and  C_37
REMARK                            x       y       z     vdW  Elec       q    Type
REMARK                         _______ _______ _______ _____ _____    ______ ____
ROOT
ATOM      1  C   UNL     1      -2.611  -2.121  -5.434  0.00  0.00    +0.100 C 
ATOM      2  C   UNL     1      -2.070  -0.683  -5.600  0.00  0.00    +0.121 C 
ATOM      3  N   UNL     1      -2.667  -0.203  -6.868  0.00  0.00    -0.299 N 
ATOM      4  C   UNL     1      -4.050  -0.736  -6.851  0.00  0.00    +0.115 C 
ATOM      5  C   UNL     1      -3.910  -2.152  -6.256  0.00  0.00    -0.004 C 
ATOM      6  C   UNL     1      -3.805  -3.186  -7.373  0.00  0.00    -0.010 C 
ATOM      7  C   UNL     1      -5.129  -3.237  -8.141  0.00  0.00    -0.082 C 
ATOM      8  N   UNL     1      -6.216  -3.591  -7.221  0.00  0.00    +0.379 N 
ATOM      9  C   UNL     1      -6.372  -2.546  -6.203  0.00  0.00    -0.082 C 
ATOM     10  C   UNL     1      -5.100  -2.464  -5.354  0.00  0.00    -0.010 C 
ATOM     11  C   UNL     1      -2.084   0.549  -7.823  0.00  0.00    +0.238 C 
ATOM     12  O   UNL     1      -2.709   0.865  -8.813  0.00  0.00    -0.273 OA
ATOM     13  H   UNL     1      -7.077  -3.685  -7.739  0.00  0.00    -0.086 HD
ATOM     14  H   UNL     1      -6.001  -4.468  -6.770  0.00  0.00    -0.086 HD
ENDROOT
BRANCH  11  15
ATOM     15  C   UNL     1      -0.655   0.999  -7.659  0.00  0.00    +0.184 C 
ATOM     16  C   UNL     1      -0.580   2.267  -6.784  0.00  0.00    +0.085 C 
ATOM     17  C   UNL     1       0.023   3.305  -7.704  0.00  0.00    +0.036 C 
ATOM     18  N   UNL     1       0.252   2.789  -8.842  0.00  0.00    -0.192 NA
ATOM     19  N   UNL     1      -0.099   1.441  -8.949  0.00  0.00    -0.238 N 
ATOM     20  C   UNL     1       0.309   4.735  -7.327  0.00  0.00    +0.062 C 
BRANCH  19  21
ATOM     21  C   UNL     1       0.059   0.606 -10.142  0.00  0.00    +0.044 C 
ATOM     22  C   UNL     1      -0.454  -0.805  -9.848  0.00  0.00    +0.033 C 
ATOM     23  C   UNL     1      -0.742   1.210 -11.297  0.00  0.00    +0.033 C 
ATOM     24  C   UNL     1       1.539   0.541 -10.527  0.00  0.00    +0.033 C 
ENDBRANCH  19  21
ENDBRANCH  11  15
BRANCH   1  26
ATOM     25  N   UNL     1      -2.884  -3.679  -3.532  0.00  0.00    -0.309 N 
ATOM     26  C   UNL     1      -2.901  -2.409  -3.984  0.00  0.00    +0.219 C 
ATOM     27  O   UNL     1      -3.149  -1.498  -3.222  0.00  0.00    -0.275 OA
ATOM     28  H   UNL     1      -2.686  -4.408  -4.141  0.00  0.00    +0.149 HD
BRANCH  25  29
ATOM     29  C   UNL     1      -3.166  -3.959  -2.122  0.00  0.00    +0.100 C 
ATOM     30  C   UNL     1      -1.881  -3.807  -1.306  0.00  0.00    +0.033 C 
BRANCH  29  33
ATOM     31  C   UNL     1      -1.689  -6.869  -1.774  0.00  0.00    +0.039 C 
ATOM     32  C   UNL     1      -3.039  -6.654  -2.461  0.00  0.00    +0.154 C 
ATOM     33  C   UNL     1      -3.686  -5.366  -1.984  0.00  0.00    -0.001 C 
ATOM     34  C   UNL     1      -4.823  -5.771  -1.412  0.00  0.00    +0.063 C 
ATOM     35  N   UNL     1      -4.943  -7.115  -1.482  0.00  0.00    -0.159 NA
ATOM     36  N   UNL     1      -4.004  -7.687  -2.047  0.00  0.00    -0.180 NA
ATOM     37  C   UNL     1      -5.834  -4.853  -0.775  0.00  0.00    +0.067 C 
ENDBRANCH  29  33
ENDBRANCH  25  29
ENDBRANCH   1  26
TORSDOF 5
