REMARK  Name = ZINC05583254
REMARK  8 active torsions:
REMARK  status: ('A' for Active; 'I' for Inactive)
REMARK    1  A    between atoms: C_3  and  C_8
REMARK    2  A    between atoms: C_4  and  O_7
REMARK    3  A    between atoms: C_9  and  C_10
REMARK    4  A    between atoms: C_10  and  C_12
REMARK    5  A    between atoms: C_14  and  C_18
REMARK    6  A    between atoms: C_18  and  C_20
REMARK    7  A    between atoms: C_21  and  C_22
REMARK    8  A    between atoms: C_23  and  O_28
REMARK                            x       y       z     vdW  Elec       q    Type
REMARK                         _______ _______ _______ _____ _____    ______ ____
ROOT
ATOM      1  C   UNL     1       4.828   5.722  -0.015  0.00  0.00    +0.022 A 
ATOM      2  C   UNL     1       6.025   6.436  -0.029  0.00  0.00    +0.023 A 
ATOM      3  C   UNL     1       5.997   7.830  -0.022  0.00  0.00    +0.022 A 
ATOM      4  C   UNL     1       4.772   8.501  -0.002  0.00  0.00    +0.012 A 
ATOM      5  C   UNL     1       3.590   7.787   0.012  0.00  0.00    +0.001 A 
ATOM      6  C   UNL     1       3.610   6.406   0.000  0.00  0.00    +0.012 A 
ENDROOT
BRANCH   1   7
ATOM      7  C   UNL     1       4.848   4.243  -0.023  0.00  0.00    +0.186 C 
ATOM      8  O   UNL     1       5.910   3.648  -0.036  0.00  0.00    -0.287 OA
BRANCH   7  10
ATOM      9  C   UNL     1       3.648   2.165  -0.022  0.00  0.00    +0.015 C 
ATOM     10  C   UNL     1       3.630   3.518  -0.015  0.00  0.00    +0.052 C 
BRANCH   9  13
ATOM     11  C   UNL     1      -0.017   1.381   0.010  0.00  0.00    +0.001 A 
ATOM     12  C   UNL     1       1.163   2.093   0.002  0.00  0.00    +0.011 A 
ATOM     13  C   UNL     1       2.387   1.414  -0.013  0.00  0.00    +0.017 A 
ATOM     14  C   UNL     1       2.400   0.009  -0.021  0.00  0.00    +0.124 A 
ATOM     15  C   UNL     1       1.202  -0.688  -0.013  0.00  0.00    +0.046 A 
ATOM     16  C   UNL     1       0.002  -0.004   0.002  0.00  0.00    +0.004 A 
BRANCH  14  17
ATOM     17  O   UNL     1       3.579  -0.661  -0.036  0.00  0.00    -0.506 OA
ATOM     18  H   UNL     1       3.930  -0.861   0.843  0.00  0.00    +0.292 HD
ENDBRANCH  14  17
ENDBRANCH   9  13
ENDBRANCH   7  10
ENDBRANCH   1   7
BRANCH   3  19
ATOM     19  C   UNL     1       7.262   8.596  -0.036  0.00  0.00    +0.186 C 
ATOM     20  O   UNL     1       8.329   8.010  -0.054  0.00  0.00    -0.287 OA
BRANCH  19  21
ATOM     21  C   UNL     1       7.233  10.013  -0.029  0.00  0.00    +0.052 C 
ATOM     22  C   UNL     1       8.390  10.714  -0.042  0.00  0.00    +0.015 C 
BRANCH  22  23
ATOM     23  C   UNL     1       8.359  12.182  -0.035  0.00  0.00    +0.017 A 
ATOM     24  C   UNL     1       9.557  12.915  -0.054  0.00  0.00    +0.124 A 
ATOM     25  C   UNL     1       9.515  14.300  -0.048  0.00  0.00    +0.046 A 
ATOM     26  C   UNL     1       8.299  14.956  -0.022  0.00  0.00    +0.004 A 
ATOM     27  C   UNL     1       7.114  14.238  -0.003  0.00  0.00    +0.001 A 
ATOM     28  C   UNL     1       7.135  12.861  -0.015  0.00  0.00    +0.011 A 
BRANCH  24  29
ATOM     29  O   UNL     1      10.751  12.269  -0.079  0.00  0.00    -0.506 OA
ATOM     30  H   UNL     1      11.080  12.086  -0.969  0.00  0.00    +0.292 HD
ENDBRANCH  24  29
ENDBRANCH  22  23
ENDBRANCH  19  21
ENDBRANCH   3  19
TORSDOF 8
