REMARK  Name = ZINC27665236
REMARK  10 active torsions:
REMARK  status: ('A' for Active; 'I' for Inactive)
REMARK    1  A    between atoms: C_4  and  C_7
REMARK    2  A    between atoms: C_7  and  C_8
REMARK    3  A    between atoms: C_8  and  N_9
REMARK    4  A    between atoms: C_15  and  S_16
REMARK    5  A    between atoms: S_16  and  C_17
REMARK    6  A    between atoms: C_17  and  C_18
REMARK    7  A    between atoms: C_18  and  O_19
REMARK    8  A    between atoms: O_19  and  C_20
REMARK    9  A    between atoms: C_23  and  S_26
REMARK   10  A    between atoms: S_26  and  N_29
REMARK                            x       y       z     vdW  Elec       q    Type
REMARK                         _______ _______ _______ _____ _____    ______ ____
ROOT
ATOM      1  S   UNL     1       7.026   0.633   1.377  0.00  0.00    -0.083 S 
ENDROOT
BRANCH   1   8
ATOM      2  N   UNL     1       5.450  -1.678   1.382  0.00  0.00    -0.270 N 
ATOM      3  C   UNL     1       5.605  -3.017   1.368  0.00  0.00    +0.345 A 
ATOM      4  O   UNL     1       4.711  -3.845   1.366  0.00  0.00    -0.245 OA
ATOM      5  N   UNL     1       6.929  -3.274   1.355  0.00  0.00    -0.226 N 
ATOM      6  H   UNL     1       7.344  -4.151   1.343  0.00  0.00    +0.194 HD
ATOM      7  N   UNL     1       7.596  -2.041   1.362  0.00  0.00    -0.145 NA
ATOM      8  C   UNL     1       6.698  -1.098   1.372  0.00  0.00    +0.192 A 
BRANCH   2   9
ATOM      9  C   UNL     1       4.171  -0.963   1.399  0.00  0.00    +0.133 C 
BRANCH   9  10
ATOM     10  C   UNL     1       3.711  -0.707  -0.038  0.00  0.00    +0.057 C 
BRANCH  10  14
ATOM     11  C   UNL     1      -0.017   1.378   0.010  0.00  0.00    +0.000 A 
ATOM     12  C   UNL     1       1.171   2.086   0.002  0.00  0.00    +0.000 A 
ATOM     13  C   UNL     1       2.377   1.411  -0.013  0.00  0.00    +0.004 A 
ATOM     14  C   UNL     1       2.396   0.029  -0.020  0.00  0.00    -0.046 A 
ATOM     15  C   UNL     1       1.208  -0.679  -0.012  0.00  0.00    +0.004 A 
ATOM     16  C   UNL     1       0.002  -0.004   0.002  0.00  0.00    +0.000 A 
ENDBRANCH  10  14
ENDBRANCH   9  10
ENDBRANCH   2   9
ENDBRANCH   1   8
BRANCH   1  17
ATOM     17  C   UNL     1       8.837   0.737   1.358  0.00  0.00    +0.118 C 
BRANCH  17  18
ATOM     18  C   UNL     1       9.264   2.206   1.361  0.00  0.00    +0.240 C 
BRANCH  18  19
ATOM     19  O   UNL     1      10.691   2.288   1.346  0.00  0.00    -0.491 OA
BRANCH  19  20
ATOM     20  C   UNL     1      11.237   3.532   1.347  0.00  0.00    +0.121 A 
ATOM     21  C   UNL     1      10.418   4.651   1.366  0.00  0.00    +0.047 A 
ATOM     22  C   UNL     1      10.976   5.915   1.367  0.00  0.00    +0.032 A 
ATOM     23  C   UNL     1      12.351   6.064   1.347  0.00  0.00    +0.105 A 
ATOM     24  C   UNL     1      13.170   4.950   1.327  0.00  0.00    +0.032 A 
ATOM     25  C   UNL     1      12.616   3.685   1.333  0.00  0.00    +0.047 A 
BRANCH  23  26
ATOM     26  S   UNL     1      13.060   7.677   1.348  0.00  0.00    +0.056 S 
ATOM     27  O   UNL     1      14.355   7.552   0.777  0.00  0.00    -0.153 OA
ATOM     28  O   UNL     1      12.075   8.554   0.817  0.00  0.00    -0.153 OA
BRANCH  26  29
ATOM     29  N   UNL     1      13.280   8.115   2.929  0.00  0.00    -0.204 NA
ATOM     30  H   UNL     1      13.025   7.507   3.641  0.00  0.00    +0.144 HD
ATOM     31  H   UNL     1      13.664   8.979   3.144  0.00  0.00    +0.144 HD
ENDBRANCH  26  29
ENDBRANCH  23  26
ENDBRANCH  19  20
ENDBRANCH  18  19
ENDBRANCH  17  18
ENDBRANCH   1  17
TORSDOF 10
