REMARK  Name = ZINC01088046
REMARK  9 active torsions:
REMARK  status: ('A' for Active; 'I' for Inactive)
REMARK    1  A    between atoms: C_1  and  C_2
REMARK    2  A    between atoms: C_5  and  O_8
REMARK    3  A    between atoms: O_8  and  C_9
REMARK    4  A    between atoms: C_9  and  C_10
REMARK    5  A    between atoms: N_12  and  C_13
REMARK    6  A    between atoms: C_14  and  C_26
REMARK    7  A    between atoms: C_15  and  C_25
REMARK    8  A    between atoms: C_16  and  C_18
REMARK    9  A    between atoms: C_18  and  C_19
REMARK                            x       y       z     vdW  Elec       q    Type
REMARK                         _______ _______ _______ _____ _____    ______ ____
ROOT
ATOM      1  C   UNL     1      -0.745   2.272   3.556  0.00  0.00    +0.084 A 
ATOM      2  C   UNL     1       0.002   1.826   2.473  0.00  0.00    +0.068 A 
ATOM      3  C   UNL     1      -0.718   1.572   1.248  0.00  0.00    -0.026 A 
ATOM      4  C   UNL     1      -2.045   1.792   1.259  0.00  0.00    -0.000 A 
ATOM      5  S   UNL     1      -2.356   2.339   2.925  0.00  0.00    -0.077 S 
ATOM      6  C   UNL     1      -0.013   1.086   0.008  0.00  0.00    +0.045 C 
ENDROOT
BRANCH   2   7
ATOM      7  C   UNL     1       1.451   1.623   2.569  0.00  0.00    +0.244 C 
ATOM      8  O   UNL     1       2.212   2.537   2.308  0.00  0.00    -0.270 OA
ATOM      9  N   UNL     1       1.941   0.426   2.946  0.00  0.00    -0.325 N 
ATOM     10  H   UNL     1       1.334  -0.302   3.154  0.00  0.00    +0.145 HD
ATOM     11  H   UNL     1       2.899   0.291   3.010  0.00  0.00    +0.145 HD
ENDBRANCH   2   7
BRANCH   1  14
ATOM     12  C   UNL     1      -1.187   3.009   5.763  0.00  0.00    +0.255 C 
ATOM     13  O   UNL     1      -2.362   3.111   5.483  0.00  0.00    -0.272 OA
ATOM     14  N   UNL     1      -0.306   2.588   4.833  0.00  0.00    -0.277 N 
ATOM     15  H   UNL     1       0.634   2.506   5.058  0.00  0.00    +0.155 HD
BRANCH  12  16
ATOM     16  C   UNL     1      -0.710   3.352   7.151  0.00  0.00    +0.324 C 
BRANCH  16  17
ATOM     17  O   UNL     1      -1.821   3.769   7.947  0.00  0.00    -0.483 OA
BRANCH  17  22
ATOM     18  C   UNL     1      -0.747   5.209  13.285  0.00  0.00    +0.044 C 
ATOM     19  C   UNL     1      -1.035   4.824  11.857  0.00  0.00    -0.050 A 
ATOM     20  C   UNL     1      -2.329   4.884  11.373  0.00  0.00    +0.007 A 
ATOM     21  C   UNL     1      -2.595   4.531  10.064  0.00  0.00    +0.046 A 
ATOM     22  C   UNL     1      -1.562   4.116   9.235  0.00  0.00    +0.121 A 
ATOM     23  C   UNL     1      -0.266   4.052   9.725  0.00  0.00    +0.046 A 
ATOM     24  C   UNL     1      -0.004   4.411  11.032  0.00  0.00    +0.007 A 
ENDBRANCH  17  22
ENDBRANCH  16  17
ENDBRANCH  12  16
ENDBRANCH   1  14
BRANCH   4  25
ATOM     25  C   UNL     1      -3.031   1.617   0.133  0.00  0.00    +0.077 C 
BRANCH  25  26
ATOM     26  C   UNL     1      -3.580   0.214   0.160  0.00  0.00    -0.043 A 
ATOM     27  C   UNL     1      -2.949  -0.789  -0.552  0.00  0.00    +0.004 A 
ATOM     28  C   UNL     1      -3.450  -2.077  -0.523  0.00  0.00    +0.000 A 
ATOM     29  C   UNL     1      -4.588  -2.360   0.209  0.00  0.00    +0.000 A 
ATOM     30  C   UNL     1      -5.222  -1.356   0.917  0.00  0.00    +0.000 A 
ATOM     31  C   UNL     1      -4.718  -0.069   0.892  0.00  0.00    +0.004 A 
ENDBRANCH  25  26
ENDBRANCH   4  25
TORSDOF 7
