REMARK  Name = ZINC07652210
REMARK  9 active torsions:
REMARK  status: ('A' for Active; 'I' for Inactive)
REMARK    1  A    between atoms: C_1  and  C_2
REMARK    2  A    between atoms: C_2  and  C_3
REMARK    3  A    between atoms: C_2  and  C_4
REMARK    4  A    between atoms: C_4  and  C_6
REMARK    5  A    between atoms: C_4  and  N_15
REMARK    6  A    between atoms: C_6  and  N_8
REMARK    7  A    between atoms: N_10  and  C_14
REMARK    8  A    between atoms: N_15  and  C_16
REMARK    9  A    between atoms: C_19  and  C_23
REMARK                            x       y       z     vdW  Elec       q    Type
REMARK                         _______ _______ _______ _____ _____    ______ ____
ROOT
ATOM      1  C   UNL     1      -1.416  -0.544   0.031  0.00  0.00    +0.161 C 
ENDROOT
BRANCH   1   3
ATOM      2  C   UNL     1      -0.084   1.548  -0.273  0.00  0.00    +0.009 C 
ATOM      3  C   UNL     1      -0.004   0.043  -0.011  0.00  0.00    +0.012 C 
ATOM      4  C   UNL     1       0.691  -0.205   1.330  0.00  0.00    +0.009 C 
ENDBRANCH   1   3
BRANCH   1   5
ATOM      5  C   UNL     1      -2.087  -0.335  -1.302  0.00  0.00    +0.259 C 
ATOM      6  O   UNL     1      -3.115   0.312  -1.371  0.00  0.00    -0.272 OA
BRANCH   5   7
ATOM      7  N   UNL     1      -1.555  -0.856  -2.401  0.00  0.00    -0.155 NA
ATOM      8  C   UNL     1      -2.149  -0.671  -3.582  0.00  0.00    +0.165 A 
ATOM      9  N   UNL     1      -1.762  -1.127  -4.803  0.00  0.00    -0.331 N 
ATOM     10  C   UNL     1      -2.520  -0.820  -5.889  0.00  0.00    +0.094 A 
ATOM     11  C   UNL     1      -3.615  -0.079  -5.683  0.00  0.00    +0.066 A 
ATOM     12  S   UNL     1      -3.562   0.177  -3.919  0.00  0.00    -0.061 S 
ATOM     13  C   UNL     1      -0.547  -1.934  -4.946  0.00  0.00    +0.150 C 
ENDBRANCH   5   7
ENDBRANCH   1   5
BRANCH   1  14
ATOM     14  N   UNL     1      -2.192   0.125   1.078  0.00  0.00    -0.332 N 
ATOM     15  H   UNL     1      -1.978   1.036   1.333  0.00  0.00    +0.147 HD
BRANCH  14  16
ATOM     16  C   UNL     1      -3.242  -0.549   1.709  0.00  0.00    +0.046 A 
ATOM     17  C   UNL     1      -3.632  -1.804   1.261  0.00  0.00    +0.025 A 
ATOM     18  C   UNL     1      -4.669  -2.468   1.887  0.00  0.00    +0.014 A 
ATOM     19  C   UNL     1      -5.319  -1.884   2.958  0.00  0.00    +0.056 A 
ATOM     20  C   UNL     1      -4.934  -0.634   3.408  0.00  0.00    +0.034 A 
ATOM     21  C   UNL     1      -3.893   0.033   2.790  0.00  0.00    +0.062 A 
ATOM     22 CL   UNL     1      -3.406   1.599   3.358  0.00  0.00    -0.082 Cl
BRANCH  19  23
ATOM     23  C   UNL     1      -6.451  -2.611   3.637  0.00  0.00    +0.417 C 
ATOM     24  F   UNL     1      -5.942  -3.399   4.676  0.00  0.00    -0.166 F 
ATOM     25  F   UNL     1      -7.357  -1.681   4.159  0.00  0.00    -0.166 F 
ATOM     26  F   UNL     1      -7.104  -3.428   2.709  0.00  0.00    -0.166 F 
ENDBRANCH  19  23
ENDBRANCH  14  16
ENDBRANCH   1  14
TORSDOF 6
