REMARK  Name = ZINC01772572
REMARK  13 active torsions:
REMARK  status: ('A' for Active; 'I' for Inactive)
REMARK    1  A    between atoms: C_1  and  C_2
REMARK    2  A    between atoms: C_2  and  C_3
REMARK    3  A    between atoms: C_2  and  C_4
REMARK    4  A    between atoms: C_7  and  C_10
REMARK    5  A    between atoms: C_11  and  C_12
REMARK    6  A    between atoms: C_11  and  C_14
REMARK    7  A    between atoms: N_16  and  C_17
REMARK    8  A    between atoms: C_18  and  C_26
REMARK    9  A    between atoms: C_22  and  C_23
REMARK   10  A    between atoms: C_23  and  C_24
REMARK   11  A    between atoms: C_23  and  C_25
REMARK   12  A    between atoms: C_26  and  C_27
REMARK   13  A    between atoms: C_26  and  C_28
REMARK                            x       y       z     vdW  Elec       q    Type
REMARK                         _______ _______ _______ _____ _____    ______ ____
ROOT
ATOM      1  C   UNL     1       0.918  -0.904   0.521  0.00  0.00    +0.259 C 
ATOM      2  O   UNL     1      -0.225  -1.011   0.121  0.00  0.00    -0.269 OA
ATOM      3  N   UNL     1       1.605   0.235   0.303  0.00  0.00    -0.280 N 
ATOM      4  H   UNL     1       2.536   0.298   0.567  0.00  0.00    +0.155 HD
ENDROOT
BRANCH   3   5
ATOM      5  C   UNL     1       0.975   1.325  -0.305  0.00  0.00    +0.041 A 
ATOM      6  C   UNL     1      -0.154   1.889   0.274  0.00  0.00    -0.023 A 
ATOM      7  C   UNL     1      -0.771   2.968  -0.327  0.00  0.00    +0.006 A 
ATOM      8  C   UNL     1      -0.272   3.482  -1.510  0.00  0.00    +0.001 A 
ATOM      9  C   UNL     1       0.849   2.920  -2.092  0.00  0.00    +0.006 A 
ATOM     10  C   UNL     1       1.474   1.843  -1.494  0.00  0.00    -0.023 A 
BRANCH  10  11
ATOM     11  C   UNL     1       2.695   1.230  -2.130  0.00  0.00    +0.015 C 
ATOM     12  C   UNL     1       2.341   0.722  -3.528  0.00  0.00    +0.012 C 
ATOM     13  C   UNL     1       3.799   2.285  -2.235  0.00  0.00    +0.012 C 
ENDBRANCH  10  11
BRANCH   6  14
ATOM     14  C   UNL     1      -0.702   1.327   1.561  0.00  0.00    +0.015 C 
ATOM     15  C   UNL     1       0.045   1.942   2.745  0.00  0.00    +0.012 C 
ATOM     16  C   UNL     1      -2.192   1.659   1.669  0.00  0.00    +0.012 C 
ENDBRANCH   6  14
ENDBRANCH   3   5
BRANCH   1  18
ATOM     17  C   UNL     1       0.856  -3.173   1.467  0.00  0.00    +0.032 C 
ATOM     18  C   UNL     1       1.552  -2.019   1.245  0.00  0.00    +0.114 C 
BRANCH  17  22
ATOM     19  C   UNL     1       2.822  -6.552   3.103  0.00  0.00    -0.045 A 
ATOM     20  C   UNL     1       1.488  -6.324   3.394  0.00  0.00    +0.004 A 
ATOM     21  C   UNL     1       0.841  -5.228   2.867  0.00  0.00    +0.008 A 
ATOM     22  C   UNL     1       1.537  -4.343   2.033  0.00  0.00    -0.024 A 
ATOM     23  C   UNL     1       2.885  -4.584   1.739  0.00  0.00    +0.008 A 
ATOM     24  C   UNL     1       3.518  -5.682   2.281  0.00  0.00    +0.004 A 
BRANCH  19  26
ATOM     25  C   UNL     1       4.035  -8.644   2.552  0.00  0.00    +0.012 C 
ATOM     26  C   UNL     1       3.522  -7.753   3.686  0.00  0.00    +0.013 C 
ATOM     27  C   UNL     1       4.701  -7.290   4.544  0.00  0.00    +0.012 C 
ENDBRANCH  19  26
ENDBRANCH  17  22
BRANCH  18  28
ATOM     28  C   UNL     1       2.898  -1.892   1.717  0.00  0.00    +0.104 C 
ATOM     29  N   UNL     1       3.966  -1.792   2.091  0.00  0.00    -0.191 NA
ENDBRANCH  18  28
ENDBRANCH   1  18
TORSDOF 7
