REMARK  Name = ZINC13064924
REMARK  12 active torsions:
REMARK  status: ('A' for Active; 'I' for Inactive)
REMARK    1  A    between atoms: C_1  and  C_2
REMARK    2  A    between atoms: C_2  and  C_3
REMARK    3  A    between atoms: C_3  and  C_5
REMARK    4  A    between atoms: C_3  and  N_72
REMARK    5  A    between atoms: N_9  and  C_10
REMARK    6  A    between atoms: C_15  and  C_16
REMARK    7  A    between atoms: C_15  and  N_72
REMARK    8  A    between atoms: C_19  and  C_22
REMARK    9  A    between atoms: C_23  and  C_24
REMARK   10  A    between atoms: C_23  and  N_72
REMARK   11  A    between atoms: C_27  and  C_37
REMARK   12  A    between atoms: C_29  and  C_36
REMARK                            x       y       z     vdW  Elec       q    Type
REMARK                         _______ _______ _______ _____ _____    ______ ____
ROOT
ATOM      1  N   UNL     1       0.136  -1.087   1.740  0.00  0.00    +0.392 N 
ATOM      2  H   UNL     1      -0.519  -0.995   2.526  0.00  0.00    -0.080 HD
ENDROOT
BRANCH   1   3
ATOM      3  C   UNL     1       0.033  -2.454   1.188  0.00  0.00    +0.003 C 
BRANCH   3   4
ATOM      4  C   UNL     1      -1.406  -2.896   1.263  0.00  0.00    +0.138 A 
ATOM      5  N   UNL     1      -2.457  -2.209   0.887  0.00  0.00    -0.115 NA
ATOM      6  N   UNL     1      -3.502  -2.928   1.109  0.00  0.00    -0.023 NA
ATOM      7  N   UNL     1      -3.146  -4.053   1.623  0.00  0.00    -0.044 NA
ATOM      8  N   UNL     1      -1.861  -4.072   1.734  0.00  0.00    -0.228 N 
BRANCH   8   9
ATOM      9  C   UNL     1      -1.050  -5.167   2.271  0.00  0.00    +0.111 C 
ATOM     10  C   UNL     1      -1.306  -6.458   1.466  0.00  0.00    +0.027 C 
ATOM     11  C   UNL     1      -1.264  -7.583   2.531  0.00  0.00    +0.002 C 
ATOM     12  C   UNL     1      -1.954  -6.926   3.752  0.00  0.00    +0.002 C 
ATOM     13  C   UNL     1      -1.461  -5.464   3.724  0.00  0.00    +0.027 C 
ENDBRANCH   8   9
ENDBRANCH   3   4
BRANCH   3  15
ATOM     14  C   UNL     1       1.997  -2.176  -0.331  0.00  0.00    +0.002 C 
ATOM     15  C   UNL     1       0.498  -2.477  -0.270  0.00  0.00    -0.011 C 
ENDBRANCH   3  15
ENDBRANCH   1   3
BRANCH   1  16
ATOM     16  C   UNL     1       1.509  -0.841   2.228  0.00  0.00    -0.042 C 
BRANCH  16  17
ATOM     17  C   UNL     1       1.704  -1.589   3.522  0.00  0.00    -0.064 A 
ATOM     18  C   UNL     1       1.283  -1.029   4.714  0.00  0.00    +0.002 A 
ATOM     19  C   UNL     1       1.458  -1.716   5.900  0.00  0.00    +0.003 A 
ATOM     20  C   UNL     1       2.062  -2.960   5.896  0.00  0.00    -0.050 A 
ATOM     21  C   UNL     1       2.487  -3.518   4.705  0.00  0.00    +0.003 A 
ATOM     22  C   UNL     1       2.308  -2.832   3.518  0.00  0.00    +0.002 A 
ATOM     23  C   UNL     1       2.257  -3.708   7.190  0.00  0.00    +0.044 C 
ENDBRANCH  16  17
ENDBRANCH   1  16
BRANCH   1  24
ATOM     24  C   UNL     1      -0.217  -0.094   0.703  0.00  0.00    -0.036 C 
BRANCH  24  25
ATOM     25  C   UNL     1      -0.466   1.234   1.369  0.00  0.00    +0.001 A 
ATOM     26  C   UNL     1       0.529   2.152   1.439  0.00  0.00    +0.017 A 
ATOM     27  C   UNL     1       0.255   3.433   2.092  0.00  0.00    +0.002 A 
ATOM     28  C   UNL     1       1.242   4.419   2.195  0.00  0.00    -0.041 A 
ATOM     29  C   UNL     1       0.954   5.604   2.810  0.00  0.00    +0.007 A 
ATOM     30  C   UNL     1      -0.310   5.839   3.335  0.00  0.00    -0.048 A 
ATOM     31  C   UNL     1      -1.297   4.882   3.246  0.00  0.00    +0.029 A 
ATOM     32  C   UNL     1      -1.027   3.667   2.624  0.00  0.00    +0.050 A 
ATOM     33  N   UNL     1      -1.997   2.692   2.519  0.00  0.00    -0.322 N 
ATOM     34  H   UNL     1      -2.880   2.855   2.886  0.00  0.00    +0.169 HD
ATOM     35  C   UNL     1      -1.737   1.521   1.913  0.00  0.00    +0.251 A 
ATOM     36  O   UNL     1      -2.619   0.684   1.835  0.00  0.00    -0.268 OA
ATOM     37  C   UNL     1      -0.605   7.154   4.010  0.00  0.00    +0.044 C 
ATOM     38  C   UNL     1       2.617   4.175   1.629  0.00  0.00    +0.044 C 
ENDBRANCH  24  25
ENDBRANCH   1  24
TORSDOF 8
