REMARK  Name = ZINC02843789
REMARK  5 active torsions:
REMARK  status: ('A' for Active; 'I' for Inactive)
REMARK    1  A    between atoms: C_1  and  C_2
REMARK    2  A    between atoms: C_2  and  O_3
REMARK    3  A    between atoms: O_3  and  C_4
REMARK    4  A    between atoms: C_7  and  C_10
REMARK    5  A    between atoms: C_13  and  C_22
REMARK                            x       y       z     vdW  Elec       q    Type
REMARK                         _______ _______ _______ _____ _____    ______ ____
ROOT
ATOM      1  C   UNL     1       1.109  -6.040  -1.847  0.00  0.00    +0.143 C 
ATOM      2  C   UNL     1       2.590  -6.434  -1.916  0.00  0.00    +0.059 C 
ATOM      3  C   UNL     1       2.716  -7.893  -2.371  0.00  0.00    +0.107 C 
ATOM      4  N   UNL     1       2.154  -8.012  -3.730  0.00  0.00    -0.307 N 
ATOM      5  C   UNL     1       0.955  -7.351  -3.960  0.00  0.00    +0.216 A 
ATOM      6  N   UNL     1       0.454  -6.436  -3.094  0.00  0.00    -0.224 N 
ATOM      7  N   UNL     1      -0.751  -5.988  -3.636  0.00  0.00    -0.132 NA
ATOM      8  C   UNL     1      -0.920  -6.631  -4.769  0.00  0.00    +0.233 A 
ATOM      9  N   UNL     1       0.125  -7.458  -4.963  0.00  0.00    -0.180 NA
ATOM     10  N   UNL     1      -2.005  -6.479  -5.634  0.00  0.00    -0.326 N 
ATOM     11  H   UNL     1       2.598  -8.524  -4.425  0.00  0.00    +0.149 HD
ATOM     12  H   UNL     1      -2.715  -5.856  -5.416  0.00  0.00    +0.145 HD
ATOM     13  H   UNL     1      -2.048  -6.997  -6.453  0.00  0.00    +0.145 HD
ENDROOT
BRANCH   3  14
ATOM     14  C   UNL     1       1.954  -8.785  -1.425  0.00  0.00    -0.009 A 
ATOM     15  C   UNL     1       0.696  -9.242  -1.768  0.00  0.00    +0.008 A 
ATOM     16  C   UNL     1      -0.003 -10.061  -0.901  0.00  0.00    +0.020 A 
ATOM     17  C   UNL     1       0.557 -10.424   0.311  0.00  0.00    +0.042 A 
ATOM     18  C   UNL     1       1.817  -9.967   0.655  0.00  0.00    +0.040 A 
ATOM     19  C   UNL     1       2.518  -9.152  -0.215  0.00  0.00    +0.047 A 
ATOM     20 CL   UNL     1       4.101  -8.583   0.213  0.00  0.00    -0.083 Cl
ATOM     21 CL   UNL     1      -0.321 -11.451   1.400  0.00  0.00    -0.083 Cl
ENDBRANCH   3  14
BRANCH   1  25
ATOM     22  C   UNL     1       0.777  -1.810  -1.336  0.00  0.00    +0.121 A 
ATOM     23  C   UNL     1       0.243  -2.669  -0.386  0.00  0.00    +0.046 A 
ATOM     24  C   UNL     1       0.351  -4.036  -0.554  0.00  0.00    +0.009 A 
ATOM     25  C   UNL     1       0.992  -4.548  -1.667  0.00  0.00    -0.023 A 
ATOM     26  C   UNL     1       1.525  -3.694  -2.615  0.00  0.00    +0.009 A 
ATOM     27  C   UNL     1       1.414  -2.327  -2.455  0.00  0.00    +0.046 A 
BRANCH  22  28
ATOM     28  O   UNL     1       0.671  -0.465  -1.174  0.00  0.00    -0.492 OA
BRANCH  28  30
ATOM     29  C   UNL     1      -0.019   1.526   0.010  0.00  0.00    +0.048 C 
ATOM     30  C   UNL     1       0.002  -0.004   0.002  0.00  0.00    +0.225 C 
ENDBRANCH  28  30
ENDBRANCH  22  28
ENDBRANCH   1  25
TORSDOF 4
