REMARK  Name = ZINC01208087
REMARK  5 active torsions:
REMARK  status: ('A' for Active; 'I' for Inactive)
REMARK    1  A    between atoms: C_4  and  C_7
REMARK    2  A    between atoms: C_8  and  C_9
REMARK    3  A    between atoms: N_11  and  C_12
REMARK    4  A    between atoms: C_15  and  C_19
REMARK    5  A    between atoms: C_16  and  O_18
REMARK                            x       y       z     vdW  Elec       q    Type
REMARK                         _______ _______ _______ _____ _____    ______ ____
ROOT
ATOM      1  C   UNL     1       6.204  -4.809  -0.174  0.00  0.00    +0.037 A 
ATOM      2  C   UNL     1       7.426  -4.140  -0.171  0.00  0.00    +0.024 A 
ATOM      3  C   UNL     1       8.602  -4.847  -0.275  0.00  0.00    +0.018 A 
ATOM      4  C   UNL     1       8.573  -6.240  -0.384  0.00  0.00    +0.078 A 
ATOM      5  C   UNL     1       7.343  -6.912  -0.387  0.00  0.00    +0.131 A 
ATOM      6  C   UNL     1       6.166  -6.193  -0.277  0.00  0.00    +0.069 A 
ENDROOT
BRANCH   4   7
ATOM      7  C   UNL     1       9.832  -7.000  -0.496  0.00  0.00    +0.232 A 
ATOM      8  N   UNL     1       9.916  -8.302  -0.609  0.00  0.00    -0.209 NA
ATOM      9  C   UNL     1      11.227  -8.650  -0.688  0.00  0.00    +0.110 A 
ATOM     10  C   UNL     1      11.895  -9.870  -0.817  0.00  0.00    +0.031 A 
ATOM     11  C   UNL     1      13.270  -9.893  -0.872  0.00  0.00    +0.002 A 
ATOM     12  C   UNL     1      13.996  -8.713  -0.801  0.00  0.00    +0.004 A 
ATOM     13  C   UNL     1      13.350  -7.500  -0.674  0.00  0.00    +0.048 A 
ATOM     14  C   UNL     1      11.965  -7.458  -0.617  0.00  0.00    +0.156 A 
ATOM     15  O   UNL     1      11.064  -6.456  -0.503  0.00  0.00    -0.435 OA
ENDBRANCH   4   7
BRANCH   1  18
ATOM     16  C   UNL     1       4.911  -2.873  -0.647  0.00  0.00    +0.241 C 
ATOM     17  O   UNL     1       5.878  -2.372  -1.189  0.00  0.00    -0.270 OA
ATOM     18  N   UNL     1       5.016  -4.086  -0.069  0.00  0.00    -0.282 N 
ATOM     19  H   UNL     1       4.265  -4.457   0.421  0.00  0.00    +0.155 HD
BRANCH  16  21
ATOM     20  C   UNL     1       3.528  -0.946  -1.201  0.00  0.00    +0.013 C 
ATOM     21  C   UNL     1       3.633  -2.159  -0.623  0.00  0.00    +0.068 C 
BRANCH  20  25
ATOM     22  C   UNL     1      -0.174   1.124  -1.131  0.00  0.00    +0.000 A 
ATOM     23  C   UNL     1       0.924   1.698  -1.749  0.00  0.00    +0.001 A 
ATOM     24  C   UNL     1       2.131   1.031  -1.776  0.00  0.00    +0.008 A 
ATOM     25  C   UNL     1       2.244  -0.227  -1.177  0.00  0.00    -0.025 A 
ATOM     26  C   UNL     1       1.130  -0.800  -0.555  0.00  0.00    +0.008 A 
ATOM     27  C   UNL     1      -0.070  -0.121  -0.536  0.00  0.00    +0.001 A 
ENDBRANCH  20  25
ENDBRANCH  16  21
ENDBRANCH   1  18
BRANCH   5  28
ATOM     28  O   UNL     1       7.307  -8.265  -0.494  0.00  0.00    -0.506 OA
ATOM     29  H   UNL     1       7.333  -8.727   0.355  0.00  0.00    +0.292 HD
ENDBRANCH   5  28
TORSDOF 5
