REMARK  Name = ZINC38006376
REMARK  3 active torsions:
REMARK  status: ('A' for Active; 'I' for Inactive)
REMARK    1  A    between atoms: C_12  and  N_14
REMARK    2  A    between atoms: N_14  and  C_15
REMARK    3  A    between atoms: C_15  and  C_16
REMARK                            x       y       z     vdW  Elec       q    Type
REMARK                         _______ _______ _______ _____ _____    ______ ____
ROOT
ATOM      1  C   UNL     1      -0.017   1.379   0.010  0.00  0.00    +0.016 A 
ATOM      2  C   UNL     1       1.171   2.089   0.002  0.00  0.00    +0.006 A 
ATOM      3  C   UNL     1       2.373   1.410  -0.008  0.00  0.00    -0.020 A 
ATOM      4  C   UNL     1       2.398   0.030  -0.000  0.00  0.00    +0.123 A 
ATOM      5  C   UNL     1       1.207  -0.683  -0.004  0.00  0.00    +0.061 A 
ATOM      6  C   UNL     1       0.002  -0.004   0.002  0.00  0.00    +0.021 A 
ATOM      7 BR   UNL     1      -1.624  -0.969   0.001  0.00  0.00    -0.050 Br
ATOM      8  O   UNL     1       3.585  -0.635   0.038  0.00  0.00    -0.492 OA
ATOM      9  C   UNL     1       4.304  -0.549   1.273  0.00  0.00    +0.229 C 
ATOM     10  C   UNL     1       5.181   0.685   1.304  0.00  0.00    +0.040 C 
ATOM     11  C   UNL     1       4.395   1.988   1.296  0.00  0.00    -0.008 C 
ATOM     12  C   UNL     1       3.678   2.180  -0.041  0.00  0.00    -0.037 C 
ENDROOT
BRANCH  12  13
ATOM     13  N   UNL     1       4.523   1.672  -1.131  0.00  0.00    +0.386 N 
ATOM     14  H   UNL     1       5.422   2.128  -1.100  0.00  0.00    -0.085 HD
ATOM     15  H   UNL     1       4.647   0.676  -1.024  0.00  0.00    -0.085 HD
BRANCH  13  16
ATOM     16  C   UNL     1       3.877   1.949  -2.421  0.00  0.00    -0.043 C 
BRANCH  16  17
ATOM     17  C   UNL     1       4.743   1.428  -3.538  0.00  0.00    -0.027 A 
ATOM     18  C   UNL     1       5.719   2.115  -4.176  0.00  0.00    +0.106 A 
ATOM     19  N   UNL     1       6.255   1.299  -5.108  0.00  0.00    -0.285 N 
ATOM     20  H   UNL     1       6.976   1.524  -5.717  0.00  0.00    +0.188 HD
ATOM     21  N   UNL     1       5.586   0.070  -5.041  0.00  0.00    -0.182 NA
ATOM     22  C   UNL     1       4.684   0.146  -4.096  0.00  0.00    +0.135 A 
ENDBRANCH  16  17
ENDBRANCH  13  16
ENDBRANCH  12  13
TORSDOF 3
