REMARK  Name = ZINC39279786
REMARK  3 active torsions:
REMARK  status: ('A' for Active; 'I' for Inactive)
REMARK    1  A    between atoms: C_1  and  C_2
REMARK    2  A    between atoms: N_14  and  C_17
REMARK    3  A    between atoms: C_17  and  C_18
REMARK                            x       y       z     vdW  Elec       q    Type
REMARK                         _______ _______ _______ _____ _____    ______ ____
ROOT
ATOM      1  C   UNL     1      -0.019   1.526   0.010  0.00  0.00    +0.008 C 
ATOM      2  C   UNL     1       0.002  -0.004   0.002  0.00  0.00    -0.010 C 
ATOM      3  C   UNL     1      -1.432  -0.529   0.005  0.00  0.00    +0.005 C 
ATOM      4  C   UNL     1      -1.453  -2.058  -0.091  0.00  0.00    +0.019 C 
ATOM      5  C   UNL     1      -0.801  -2.634   1.168  0.00  0.00    +0.079 C 
ATOM      6  C   UNL     1       0.600  -2.028   1.261  0.00  0.00    -0.042 C 
ATOM      7  C   UNL     1       1.614  -2.887   1.294  0.00  0.00    +0.067 C 
ATOM      8  C   UNL     1       1.321  -4.334   1.088  0.00  0.00    +0.101 C 
ATOM      9  N   UNL     1       2.255  -5.249   1.062  0.00  0.00    -0.185 NA
ATOM     10  C   UNL     1       3.527  -4.854   1.235  0.00  0.00    +0.164 C 
ATOM     11  S   UNL     1       4.744  -6.058   1.200  0.00  0.00    -0.016 S 
ATOM     12  N   UNL     1       3.913  -3.589   1.430  0.00  0.00    -0.244 N 
ATOM     13  C   UNL     1       3.062  -2.536   1.474  0.00  0.00    +0.255 C 
ATOM     14  O   UNL     1       3.442  -1.393   1.645  0.00  0.00    -0.269 OA
ATOM     15  S   UNL     1      -0.454  -4.420   0.931  0.00  0.00    -0.100 S 
ATOM     16  C   UNL     1       0.752  -0.509   1.242  0.00  0.00    +0.036 C 
ENDROOT
BRANCH  12  17
ATOM     17  C   UNL     1       5.343  -3.325   1.610  0.00  0.00    +0.142 C 
BRANCH  17  18
ATOM     18  C   UNL     1       5.978  -3.062   0.268  0.00  0.00    -0.015 C 
ATOM     19  C   UNL     1       6.652  -1.957   0.068  0.00  0.00    +0.005 C 
ENDBRANCH  17  18
ENDBRANCH  12  17
TORSDOF 2
