REMARK  Name = ZINC36390717
REMARK  2 active torsions:
REMARK  status: ('A' for Active; 'I' for Inactive)
REMARK    1  A    between atoms: C_6  and  C_7
REMARK    2  A    between atoms: C_8  and  C_13
REMARK                            x       y       z     vdW  Elec       q    Type
REMARK                         _______ _______ _______ _____ _____    ______ ____
ROOT
ATOM      1  C   UNL     1      -0.475  -2.570  -1.586  0.00  0.00    +0.212 C 
ATOM      2  N   UNL     1      -0.920  -3.932  -1.933  0.00  0.00    -0.293 N 
ATOM      3  C   UNL     1      -1.819  -4.117  -2.950  0.00  0.00    +0.183 C 
ATOM      4  N   UNL     1      -1.874  -3.291  -3.980  0.00  0.00    -0.183 NA
ATOM      5  C   UNL     1      -1.059  -2.209  -3.982  0.00  0.00    +0.236 A 
ATOM      6  N   UNL     1      -0.359  -1.831  -2.848  0.00  0.00    -0.285 N 
ATOM      7  C   UNL     1       0.386  -0.719  -3.163  0.00  0.00    +0.076 A 
ATOM      8  C   UNL     1       1.276   0.082  -2.460  0.00  0.00    +0.077 A 
ATOM      9  C   UNL     1       1.876   1.158  -3.086  0.00  0.00    +0.164 A 
ATOM     10  C   UNL     1       1.593   1.447  -4.418  0.00  0.00    +0.164 A 
ATOM     11  C   UNL     1       0.709   0.663  -5.130  0.00  0.00    +0.079 A 
ATOM     12  C   UNL     1       0.095  -0.429  -4.509  0.00  0.00    +0.095 A 
ATOM     13  N   UNL     1      -0.801  -1.365  -4.946  0.00  0.00    -0.210 NA
ATOM     14  O   UNL     1       2.199   2.513  -5.020  0.00  0.00    -0.488 OA
ATOM     15  C   UNL     1       1.805   3.804  -4.548  0.00  0.00    +0.232 C 
ATOM     16  C   UNL     1       2.602   4.192  -3.312  0.00  0.00    +0.082 C 
ATOM     17  C   UNL     1       2.315   3.280  -2.129  0.00  0.00    +0.232 C 
ATOM     18  O   UNL     1       2.753   1.947  -2.398  0.00  0.00    -0.488 OA
ATOM     19  N   UNL     1      -2.677  -5.183  -2.900  0.00  0.00    -0.331 N 
ATOM     20  H   UNL     1      -0.578  -4.695  -1.442  0.00  0.00    +0.151 HD
ATOM     21  H   UNL     1      -2.644  -5.796  -2.149  0.00  0.00    +0.145 HD
ATOM     22  H   UNL     1      -3.317  -5.324  -3.615  0.00  0.00    +0.145 HD
ENDROOT
BRANCH   1  24
ATOM     23  C   UNL     1      -1.227  -0.909   0.266  0.00  0.00    +0.099 A 
ATOM     24  C   UNL     1      -1.491  -1.907  -0.692  0.00  0.00    +0.038 A 
ATOM     25  C   UNL     1      -2.817  -2.164  -0.667  0.00  0.00    +0.112 A 
ATOM     26  N   UNL     1      -3.379  -1.365   0.266  0.00  0.00    -0.284 N 
ATOM     27  H   UNL     1      -4.320  -1.337   0.498  0.00  0.00    +0.188 HD
ATOM     28  N   UNL     1      -2.366  -0.590   0.844  0.00  0.00    -0.174 NA
BRANCH  23  34
ATOM     29  C   UNL     1       0.238   1.052   0.743  0.00  0.00    +0.011 A 
ATOM     30  C   UNL     1       1.476   1.590   1.030  0.00  0.00    +0.020 A 
ATOM     31  C   UNL     1       2.581   0.766   1.150  0.00  0.00    +0.041 A 
ATOM     32  C   UNL     1       2.451  -0.603   0.984  0.00  0.00    +0.020 A 
ATOM     33  C   UNL     1       1.218  -1.151   0.697  0.00  0.00    +0.011 A 
ATOM     34  C   UNL     1       0.102  -0.325   0.575  0.00  0.00    +0.003 A 
ATOM     35 CL   UNL     1       4.136   1.449   1.510  0.00  0.00    -0.084 Cl
ENDBRANCH  23  34
ENDBRANCH   1  24
TORSDOF 2
