REMARK  Name = ZINC22830335
REMARK  10 active torsions:
REMARK  status: ('A' for Active; 'I' for Inactive)
REMARK    1  A    between atoms: C_1  and  C_2
REMARK    2  A    between atoms: C_2  and  C_3
REMARK    3  A    between atoms: C_2  and  C_4
REMARK    4  A    between atoms: C_7  and  C_10
REMARK    5  A    between atoms: C_11  and  C_12
REMARK    6  A    between atoms: N_14  and  C_15
REMARK    7  A    between atoms: C_15  and  N_17
REMARK    8  A    between atoms: N_20  and  C_23
REMARK    9  A    between atoms: C_26  and  C_32
REMARK   10  A    between atoms: C_28  and  N_29
REMARK                            x       y       z     vdW  Elec       q    Type
REMARK                         _______ _______ _______ _____ _____    ______ ____
ROOT
ATOM      1  N   UNL     1       2.212  -5.135   9.647  0.00  0.00    -0.309 N 
ATOM      2  C   UNL     1       0.811  -5.526   9.438  0.00  0.00    +0.125 C 
ATOM      3  C   UNL     1       0.699  -7.048   9.593  0.00  0.00    +0.124 C 
ATOM      4  N   UNL     1       1.367  -7.443  10.842  0.00  0.00    -0.325 N 
ATOM      5  C   UNL     1       2.768  -7.051  11.050  0.00  0.00    +0.124 C 
ATOM      6  C   UNL     1       2.881  -5.534  10.893  0.00  0.00    +0.125 C 
ENDROOT
BRANCH   4   7
ATOM      7  C   UNL     1       0.681  -8.177  11.813  0.00  0.00    +0.060 A 
ATOM      8  C   UNL     1       0.707  -9.566  11.782  0.00  0.00    +0.026 A 
ATOM      9  C   UNL     1       0.029 -10.288  12.744  0.00  0.00    +0.014 A 
ATOM     10  C   UNL     1      -0.675  -9.631  13.737  0.00  0.00    +0.057 A 
ATOM     11  C   UNL     1      -0.703  -8.249  13.769  0.00  0.00    +0.047 A 
ATOM     12  C   UNL     1      -0.022  -7.520  12.814  0.00  0.00    +0.148 A 
BRANCH  10  13
ATOM     13  C   UNL     1      -1.414 -10.423  14.784  0.00  0.00    +0.417 C 
ATOM     14  F   UNL     1      -1.240 -11.790  14.544  0.00  0.00    -0.166 F 
ATOM     15  F   UNL     1      -0.911 -10.104  16.050  0.00  0.00    -0.166 F 
ATOM     16  F   UNL     1      -2.776 -10.110  14.731  0.00  0.00    -0.166 F 
ENDBRANCH  10  13
BRANCH  12  17
ATOM     17  N   UNL     1      -0.048  -6.041  12.853  0.00  0.00    +0.058 N 
ATOM     18  O   UNL     1      -0.661  -5.470  13.725  0.00  0.00    -0.126 OA
ATOM     19  O   UNL     1       0.544  -5.404  12.013  0.00  0.00    -0.126 OA
ENDBRANCH  12  17
ENDBRANCH   4   7
BRANCH   1  20
ATOM     20  C   UNL     1       2.873  -4.426   8.710  0.00  0.00    +0.139 C 
ATOM     21  S   UNL     1       4.542  -4.099   8.904  0.00  0.00    -0.018 S 
BRANCH  20  24
ATOM     22  C   UNL     1       2.853  -3.179   6.737  0.00  0.00    +0.242 C 
ATOM     23  O   UNL     1       4.014  -2.867   6.922  0.00  0.00    -0.270 OA
ATOM     24  N   UNL     1       2.220  -3.976   7.620  0.00  0.00    -0.264 N 
ATOM     25  H   UNL     1       1.294  -4.225   7.472  0.00  0.00    +0.157 HD
BRANCH  22  27
ATOM     26  C   UNL     1       2.778  -1.893   4.669  0.00  0.00    +0.013 C 
ATOM     27  C   UNL     1       2.144  -2.690   5.554  0.00  0.00    +0.068 C 
BRANCH  26  31
ATOM     28  C   UNL     1       0.724  -0.476   1.239  0.00  0.00    -0.045 A 
ATOM     29  C   UNL     1       2.044  -0.118   1.448  0.00  0.00    +0.004 A 
ATOM     30  C   UNL     1       2.719  -0.574   2.560  0.00  0.00    +0.008 A 
ATOM     31  C   UNL     1       2.065  -1.401   3.479  0.00  0.00    -0.025 A 
ATOM     32  C   UNL     1       0.731  -1.758   3.262  0.00  0.00    +0.008 A 
ATOM     33  C   UNL     1       0.068  -1.290   2.147  0.00  0.00    +0.004 A 
BRANCH  28  35
ATOM     34  C   UNL     1      -0.029   1.557   0.035  0.00  0.00    +0.012 C 
ATOM     35  C   UNL     1      -0.006   0.027   0.021  0.00  0.00    +0.013 C 
ATOM     36  C   UNL     1       0.710  -0.461  -1.240  0.00  0.00    +0.012 C 
ENDBRANCH  28  35
ENDBRANCH  26  31
ENDBRANCH  22  27
ENDBRANCH  20  24
ENDBRANCH   1  20
TORSDOF 8
