REMARK  Name = ZINC27152693
REMARK  6 active torsions:
REMARK  status: ('A' for Active; 'I' for Inactive)
REMARK    1  A    between atoms: C_1  and  C_2
REMARK    2  A    between atoms: C_2  and  C_3
REMARK    3  A    between atoms: C_10  and  C_12
REMARK    4  A    between atoms: C_12  and  C_14
REMARK    5  A    between atoms: C_12  and  N_25
REMARK    6  A    between atoms: C_14  and  C_15
REMARK                            x       y       z     vdW  Elec       q    Type
REMARK                         _______ _______ _______ _____ _____    ______ ____
ROOT
ATOM      1  C   UNL     1      -1.111  -1.855  -1.858  0.00  0.00    +0.165 C 
ENDROOT
BRANCH   1   8
ATOM      2  C   UNL     1       2.124   1.587  -1.276  0.00  0.00    +0.006 C 
ATOM      3  C   UNL     1       1.419   2.053  -0.001  0.00  0.00    +0.006 C 
ATOM      4  C   UNL     1      -0.019   1.528   0.010  0.00  0.00    +0.019 C 
ATOM      5  C   UNL     1       0.002  -0.004   0.002  0.00  0.00    +0.108 C 
ATOM      6  N   UNL     1       0.803  -0.460  -1.143  0.00  0.00    -0.300 N 
ATOM      7  C   UNL     1       2.170   0.056  -1.299  0.00  0.00    +0.111 C 
ATOM      8  C   UNL     1       0.293  -1.335  -2.032  0.00  0.00    +0.236 C 
ATOM      9  O   UNL     1       0.964  -1.703  -2.973  0.00  0.00    -0.274 OA
BRANCH   2  11
ATOM     10  C   UNL     1       3.504   3.666  -1.405  0.00  0.00    +0.004 C 
ATOM     11  C   UNL     1       3.551   2.140  -1.302  0.00  0.00    +0.002 C 
ENDBRANCH   2  11
ENDBRANCH   1   8
BRANCH   1  12
ATOM     12  N   UNL     1      -1.599  -2.379  -3.136  0.00  0.00    -0.288 N 
ATOM     13  C   UNL     1      -0.949  -3.392  -3.742  0.00  0.00    +0.298 C 
ATOM     14  O   UNL     1       0.043  -3.872  -3.228  0.00  0.00    -0.253 OA
ATOM     15  N   UNL     1      -1.399  -3.874  -4.918  0.00  0.00    -0.313 N 
ATOM     16  H   UNL     1      -2.497  -1.945  -3.601  0.00  0.00    +0.151 HD
ATOM     17  H   UNL     1      -0.869  -4.701  -5.412  0.00  0.00    +0.146 HD
ATOM     18  H   UNL     1      -2.296  -3.440  -5.383  0.00  0.00    +0.146 HD
ENDBRANCH   1  12
BRANCH   1  19
ATOM     19  C   UNL     1      -1.114  -2.973  -0.814  0.00  0.00    +0.069 C 
BRANCH  19  20
ATOM     20  C   UNL     1      -2.532  -3.410  -0.550  0.00  0.00    -0.020 A 
ATOM     21  C   UNL     1      -3.330  -2.977   0.440  0.00  0.00    +0.087 A 
ATOM     22  N   UNL     1      -4.548  -3.594   0.360  0.00  0.00    -0.360 N 
ATOM     23  H   UNL     1      -5.335  -3.353   1.091  0.00  0.00    +0.165 HD
ATOM     24  C   UNL     1      -4.562  -4.468  -0.703  0.00  0.00    +0.047 A 
ATOM     25  C   UNL     1      -3.300  -4.391  -1.320  0.00  0.00    +0.003 A 
ATOM     26  C   UNL     1      -3.022  -5.178  -2.439  0.00  0.00    +0.010 A 
ATOM     27  C   UNL     1      -3.979  -6.020  -2.930  0.00  0.00    +0.001 A 
ATOM     28  C   UNL     1      -5.226  -6.099  -2.326  0.00  0.00    +0.002 A 
ATOM     29  C   UNL     1      -5.521  -5.332  -1.221  0.00  0.00    +0.026 A 
ENDBRANCH  19  20
ENDBRANCH   1  19
TORSDOF 5
