REMARK  Name = ZINC13064252
REMARK  11 active torsions:
REMARK  status: ('A' for Active; 'I' for Inactive)
REMARK    1  A    between atoms: C_1  and  C_2
REMARK    2  A    between atoms: C_2  and  C_3
REMARK    3  A    between atoms: C_3  and  C_5
REMARK    4  A    between atoms: C_3  and  N_70
REMARK    5  A    between atoms: N_9  and  C_10
REMARK    6  A    between atoms: C_15  and  C_16
REMARK    7  A    between atoms: C_15  and  N_70
REMARK    8  A    between atoms: C_25  and  C_26
REMARK    9  A    between atoms: C_25  and  N_70
REMARK   10  A    between atoms: C_31  and  O_38
REMARK   11  A    between atoms: O_38  and  C_39
REMARK                            x       y       z     vdW  Elec       q    Type
REMARK                         _______ _______ _______ _____ _____    ______ ____
ROOT
ATOM      1  N   UNL     1      -3.502   9.526   2.396  0.00  0.00    +0.392 N 
ATOM      2  H   UNL     1      -3.827   9.298   1.449  0.00  0.00    -0.080 HD
ENDROOT
BRANCH   1   3
ATOM      3  C   UNL     1      -3.651  10.979   2.618  0.00  0.00    +0.003 C 
BRANCH   3   4
ATOM      4  C   UNL     1      -3.384  11.694   1.318  0.00  0.00    +0.138 A 
ATOM      5  N   UNL     1      -2.435  11.422   0.456  0.00  0.00    -0.115 NA
ATOM      6  N   UNL     1      -2.538  12.252  -0.524  0.00  0.00    -0.023 NA
ATOM      7  N   UNL     1      -3.524  13.051  -0.306  0.00  0.00    -0.044 NA
ATOM      8  N   UNL     1      -4.071  12.739   0.820  0.00  0.00    -0.228 N 
BRANCH   8   9
ATOM      9  C   UNL     1      -5.223  13.398   1.440  0.00  0.00    +0.111 C 
ATOM     10  C   UNL     1      -6.435  13.350   0.487  0.00  0.00    +0.027 C 
ATOM     11  C   UNL     1      -7.137  14.715   0.696  0.00  0.00    +0.002 C 
ATOM     12  C   UNL     1      -5.946  15.690   0.867  0.00  0.00    +0.002 C 
ATOM     13  C   UNL     1      -4.912  14.886   1.682  0.00  0.00    +0.027 C 
ENDBRANCH   8   9
ENDBRANCH   3   4
BRANCH   3  15
ATOM     14  C   UNL     1      -3.015  10.839   5.030  0.00  0.00    +0.002 C 
ATOM     15  C   UNL     1      -2.659  11.462   3.678  0.00  0.00    -0.011 C 
ENDBRANCH   3  15
ENDBRANCH   1   3
BRANCH   1  16
ATOM     16  C   UNL     1      -4.319   8.779   3.376  0.00  0.00    -0.041 C 
BRANCH  16  17
ATOM     17  C   UNL     1      -5.775   8.963   3.035  0.00  0.00    -0.060 A 
ATOM     18  C   UNL     1      -6.517   9.935   3.679  0.00  0.00    +0.005 A 
ATOM     19  C   UNL     1      -7.852  10.112   3.366  0.00  0.00    +0.050 A 
ATOM     20  C   UNL     1      -8.452   9.306   2.412  0.00  0.00    +0.166 A 
ATOM     21  C   UNL     1      -7.706   8.323   1.766  0.00  0.00    +0.166 A 
ATOM     22  C   UNL     1      -6.367   8.156   2.082  0.00  0.00    +0.051 A 
ATOM     23  O   UNL     1      -8.516   7.671   0.881  0.00  0.00    -0.453 OA
ATOM     24  C   UNL     1      -9.861   7.991   1.284  0.00  0.00    +0.466 C 
ATOM     25  O   UNL     1      -9.729   9.270   1.932  0.00  0.00    -0.453 OA
ENDBRANCH  16  17
ENDBRANCH   1  16
BRANCH   1  26
ATOM     26  C   UNL     1      -2.082   9.139   2.522  0.00  0.00    -0.036 C 
BRANCH  26  27
ATOM     27  C   UNL     1      -1.911   7.741   1.985  0.00  0.00    +0.001 A 
ATOM     28  C   UNL     1      -1.536   7.554   0.694  0.00  0.00    +0.017 A 
ATOM     29  C   UNL     1      -1.379   6.185   0.203  0.00  0.00    -0.001 A 
ATOM     30  C   UNL     1      -0.995   5.931  -1.119  0.00  0.00    +0.013 A 
ATOM     31  C   UNL     1      -0.851   4.644  -1.548  0.00  0.00    +0.046 A 
ATOM     32  C   UNL     1      -1.095   3.579  -0.683  0.00  0.00    +0.122 A 
ATOM     33  C   UNL     1      -1.475   3.809   0.628  0.00  0.00    +0.072 A 
ATOM     34  C   UNL     1      -1.621   5.112   1.084  0.00  0.00    +0.053 A 
ATOM     35  N   UNL     1      -2.000   5.371   2.384  0.00  0.00    -0.322 N 
ATOM     36  H   UNL     1      -2.166   4.631   2.990  0.00  0.00    +0.169 HD
ATOM     37  C   UNL     1      -2.141   6.633   2.826  0.00  0.00    +0.251 A 
ATOM     38  O   UNL     1      -2.477   6.824   3.982  0.00  0.00    -0.268 OA
BRANCH  32  39
ATOM     39  O   UNL     1      -0.952   2.304  -1.128  0.00  0.00    -0.495 OA
ATOM     40  C   UNL     1      -0.557   2.134  -2.491  0.00  0.00    +0.277 C 
ENDBRANCH  32  39
ENDBRANCH  26  27
ENDBRANCH   1  26
TORSDOF 9
