REMARK  Name = ZINC39534338
REMARK  9 active torsions:
REMARK  status: ('A' for Active; 'I' for Inactive)
REMARK    1  A    between atoms: C_4  and  C_7
REMARK    2  A    between atoms: C_7  and  N_8
REMARK    3  A    between atoms: N_8  and  C_9
REMARK    4  A    between atoms: C_9  and  C_10
REMARK    5  A    between atoms: C_10  and  C_12
REMARK    6  A    between atoms: C_10  and  N_28
REMARK    7  A    between atoms: C_15  and  S_18
REMARK    8  A    between atoms: S_18  and  O_21
REMARK    9  A    between atoms: O_21  and  C_22
REMARK                            x       y       z     vdW  Elec       q    Type
REMARK                         _______ _______ _______ _____ _____    ______ ____
ROOT
ATOM      1  C   UNL     1       5.862  -1.907   2.814  0.00  0.00    -0.023 C 
ENDROOT
BRANCH   1   2
ATOM      2  N   UNL     1       4.744  -2.497   3.563  0.00  0.00    +0.388 N 
ATOM      3  C   UNL     1       3.560  -1.638   3.432  0.00  0.00    -0.062 C 
ATOM      4  C   UNL     1       2.390  -2.262   4.197  0.00  0.00    +0.064 C 
ATOM      5  N   UNL     1       2.756  -2.408   5.612  0.00  0.00    -0.304 NA
ATOM      6  C   UNL     1       3.955  -3.246   5.757  0.00  0.00    +0.130 C 
ATOM      7  C   UNL     1       5.112  -2.614   4.980  0.00  0.00    -0.043 C 
ATOM      8 CL   UNL     1       4.397  -3.368   7.501  0.00  0.00    -0.107 Cl
ATOM      9  H   UNL     1       2.890  -1.508   6.047  0.00  0.00    +0.123 HD
ATOM     10  H   UNL     1       4.537  -3.413   3.192  0.00  0.00    -0.081 HD
ENDBRANCH   1   2
BRANCH   1  11
ATOM     11  C   UNL     1       7.114  -2.705   3.070  0.00  0.00    -0.060 A 
ATOM     12  C   UNL     1       7.055  -4.085   3.132  0.00  0.00    +0.004 A 
ATOM     13  C   UNL     1       8.204  -4.816   3.367  0.00  0.00    +0.031 A 
ATOM     14  C   UNL     1       9.413  -4.168   3.540  0.00  0.00    +0.128 A 
ATOM     15  C   UNL     1       9.472  -2.788   3.477  0.00  0.00    +0.031 A 
ATOM     16  C   UNL     1       8.324  -2.057   3.238  0.00  0.00    +0.004 A 
BRANCH  14  17
ATOM     17  S   UNL     1      10.877  -5.100   3.841  0.00  0.00    +0.151 S 
ATOM     18  O   UNL     1      11.782  -4.231   4.509  0.00  0.00    -0.131 OA
ATOM     19  O   UNL     1      10.462  -6.341   4.396  0.00  0.00    -0.131 OA
BRANCH  17  20
ATOM     20  O   UNL     1      11.497  -5.414   2.487  0.00  0.00    -0.342 OA
BRANCH  20  21
ATOM     21  C   UNL     1      12.118  -4.355   1.904  0.00  0.00    +0.157 A 
ATOM     22  C   UNL     1      11.406  -3.506   1.069  0.00  0.00    +0.048 A 
ATOM     23  C   UNL     1      12.040  -2.430   0.478  0.00  0.00    +0.004 A 
ATOM     24  C   UNL     1      13.382  -2.200   0.717  0.00  0.00    +0.000 A 
ATOM     25  C   UNL     1      14.094  -3.045   1.548  0.00  0.00    +0.004 A 
ATOM     26  C   UNL     1      13.463  -4.119   2.147  0.00  0.00    +0.048 A 
ENDBRANCH  20  21
ENDBRANCH  17  20
ENDBRANCH  14  17
ENDBRANCH   1  11
BRANCH   1  27
ATOM     27  C   UNL     1       5.541  -1.929   1.318  0.00  0.00    +0.070 C 
BRANCH  27  28
ATOM     28  N   UNL     1       4.422  -1.017   1.044  0.00  0.00    -0.313 NA
ATOM     29  H   UNL     1       4.627  -0.085   1.371  0.00  0.00    +0.122 HD
BRANCH  28  30
ATOM     30  C   UNL     1       4.085  -1.011  -0.386  0.00  0.00    +0.116 C 
BRANCH  30  34
ATOM     31  C   UNL     1       0.827   1.665  -1.073  0.00  0.00    +0.000 A 
ATOM     32  C   UNL     1       2.128   2.128  -1.139  0.00  0.00    +0.000 A 
ATOM     33  C   UNL     1       3.182   1.262  -0.917  0.00  0.00    +0.005 A 
ATOM     34  C   UNL     1       2.936  -0.067  -0.627  0.00  0.00    -0.034 A 
ATOM     35  C   UNL     1       1.635  -0.530  -0.560  0.00  0.00    +0.005 A 
ATOM     36  C   UNL     1       0.581   0.336  -0.784  0.00  0.00    +0.000 A 
ENDBRANCH  30  34
ENDBRANCH  28  30
ENDBRANCH  27  28
ENDBRANCH   1  27
TORSDOF 9
