REMARK  Name = ZINC13787690
REMARK  10 active torsions:
REMARK  status: ('A' for Active; 'I' for Inactive)
REMARK    1  A    between atoms: C_1  and  C_2
REMARK    2  A    between atoms: C_2  and  C_3
REMARK    3  A    between atoms: C_3  and  C_28
REMARK    4  A    between atoms: N_4  and  N_5
REMARK    5  A    between atoms: C_6  and  C_8
REMARK    6  A    between atoms: C_9  and  C_19
REMARK    7  A    between atoms: C_19  and  S_20
REMARK    8  A    between atoms: S_20  and  C_21
REMARK    9  A    between atoms: C_24  and  C_27
REMARK   10  A    between atoms: C_31  and  C_34
REMARK                            x       y       z     vdW  Elec       q    Type
REMARK                         _______ _______ _______ _____ _____    ______ ____
ROOT
ATOM      1  C   UNL     1      -1.265  -0.759   0.010  0.00  0.00    +0.173 A 
ATOM      2  C   UNL     1      -1.384  -2.120   0.004  0.00  0.00    +0.089 A 
ATOM      3  N   UNL     1      -2.707  -2.396   0.015  0.00  0.00    -0.191 N 
ATOM      4  N   UNL     1      -3.377  -1.165   0.028  0.00  0.00    -0.058 NA
ATOM      5  N   UNL     1      -2.498  -0.224   0.031  0.00  0.00    -0.124 NA
ATOM      6  C   UNL     1      -3.294  -3.666   0.013  0.00  0.00    +0.240 A 
ATOM      7  C   UNL     1      -4.733  -3.946   0.026  0.00  0.00    +0.206 A 
ATOM      8  N   UNL     1      -4.899  -5.240   0.020  0.00  0.00    -0.032 NA
ATOM      9  O   UNL     1      -3.617  -5.842   0.004  0.00  0.00    -0.239 OA
ATOM     10  N   UNL     1      -2.656  -4.802  -0.005  0.00  0.00    -0.027 NA
ATOM     11  N   UNL     1      -5.747  -2.995   0.041  0.00  0.00    -0.337 N 
ATOM     12  H   UNL     1      -5.526  -2.050   0.045  0.00  0.00    +0.144 HD
ATOM     13  H   UNL     1      -6.675  -3.276   0.049  0.00  0.00    +0.144 HD
ENDROOT
BRANCH   1  15
ATOM     14  N   UNL     1      -0.016   1.344   0.009  0.00  0.00    -0.201 N 
ATOM     15  C   UNL     1       0.002  -0.004   0.002  0.00  0.00    +0.285 C 
ATOM     16  O   UNL     1       1.063  -0.598  -0.011  0.00  0.00    -0.267 OA
ATOM     17  H   UNL     1      -0.863   1.817   0.016  0.00  0.00    +0.178 HD
BRANCH  14  19
ATOM     18  C   UNL     1       1.170   3.358   0.009  0.00  0.00    +0.066 C 
ATOM     19  N   UNL     1       1.187   2.061   0.002  0.00  0.00    -0.184 NA
BRANCH  18  20
ATOM     20  C   UNL     1       2.437   4.113   0.001  0.00  0.00    -0.002 A 
ATOM     21  C   UNL     1       2.422   5.510   0.003  0.00  0.00    +0.010 A 
ATOM     22  C   UNL     1       3.611   6.209   0.002  0.00  0.00    +0.004 A 
ATOM     23  C   UNL     1       4.816   5.530  -0.014  0.00  0.00    -0.050 A 
ATOM     24  C   UNL     1       4.839   4.147  -0.022  0.00  0.00    +0.004 A 
ATOM     25  C   UNL     1       3.658   3.434  -0.014  0.00  0.00    +0.010 A 
ATOM     26  C   UNL     1       6.111   6.301  -0.022  0.00  0.00    +0.044 C 
ENDBRANCH  18  20
BRANCH  18  28
ATOM     27  C   UNL     1      -0.577   4.335   1.473  0.00  0.00    +0.010 C 
ATOM     28  C   UNL     1      -0.145   4.094   0.025  0.00  0.00    +0.054 C 
ENDBRANCH  18  28
ENDBRANCH  14  19
ENDBRANCH   1  15
BRANCH   2  29
ATOM     29  C   UNL     1      -0.257  -3.120  -0.013  0.00  0.00    +0.132 C 
BRANCH  29  30
ATOM     30  S   UNL     1       0.179  -3.512  -1.730  0.00  0.00    -0.119 S 
BRANCH  30  31
ATOM     31  C   UNL     1       1.492  -4.677  -1.581  0.00  0.00    +0.008 A 
ATOM     32  C   UNL     1       1.941  -5.064  -0.324  0.00  0.00    +0.015 A 
ATOM     33  C   UNL     1       2.966  -5.982  -0.211  0.00  0.00    +0.004 A 
ATOM     34  C   UNL     1       3.555  -6.507  -1.347  0.00  0.00    -0.050 A 
ATOM     35  C   UNL     1       3.114  -6.120  -2.600  0.00  0.00    +0.004 A 
ATOM     36  C   UNL     1       2.086  -5.207  -2.720  0.00  0.00    +0.015 A 
ATOM     37  C   UNL     1       4.678  -7.503  -1.220  0.00  0.00    +0.044 C 
ENDBRANCH  30  31
ENDBRANCH  29  30
ENDBRANCH   2  29
TORSDOF 7
