REMARK  Name = ZINC50308935
REMARK  5 active torsions:
REMARK  status: ('A' for Active; 'I' for Inactive)
REMARK    1  A    between atoms: C_1  and  C_2
REMARK    2  A    between atoms: C_2  and  C_3
REMARK    3  A    between atoms: C_2  and  C_4
REMARK    4  A    between atoms: C_6  and  C_10
REMARK    5  A    between atoms: C_7  and  N_9
REMARK                            x       y       z     vdW  Elec       q    Type
REMARK                         _______ _______ _______ _____ _____    ______ ____
ROOT
ATOM      1  C   UNL     1      -1.412  -0.526   0.013  0.00  0.00    +0.083 A 
ATOM      2  N   UNL     1      -2.020  -1.290  -0.864  0.00  0.00    -0.242 NA
ATOM      3  C   UNL     1      -3.281  -1.662  -0.704  0.00  0.00    +0.099 A 
ATOM      4  C   UNL     1      -3.966  -1.236   0.411  0.00  0.00    +0.091 A 
ATOM      5  S   UNL     1      -2.699  -0.273   1.227  0.00  0.00    -0.057 S 
ENDROOT
BRANCH   3   6
ATOM      6  C   UNL     1      -3.944  -2.525  -1.710  0.00  0.00    +0.008 A 
ATOM      7  C   UNL     1      -3.631  -2.390  -3.061  0.00  0.00    +0.059 A 
ATOM      8  C   UNL     1      -4.251  -3.197  -4.000  0.00  0.00    +0.164 A 
ATOM      9  C   UNL     1      -5.185  -4.144  -3.593  0.00  0.00    +0.180 A 
ATOM     10  C   UNL     1      -5.498  -4.277  -2.246  0.00  0.00    +0.087 A 
ATOM     11  C   UNL     1      -4.878  -3.478  -1.306  0.00  0.00    +0.034 A 
ATOM     12 CL   UNL     1      -6.667  -5.457  -1.743  0.00  0.00    -0.080 Cl
ATOM     13  O   UNL     1      -5.799  -4.952  -4.502  0.00  0.00    -0.483 OA
ATOM     14  C   UNL     1      -5.740  -4.540  -5.872  0.00  0.00    +0.270 C 
ATOM     15  C   UNL     1      -4.296  -4.128  -6.188  0.00  0.00    +0.270 C 
ATOM     16  O   UNL     1      -3.937  -3.050  -5.316  0.00  0.00    -0.485 OA
ENDBRANCH   3   6
BRANCH   1  18
ATOM     17  C   UNL     1      -0.019   1.526   0.010  0.00  0.00    +0.014 C 
ATOM     18  C   UNL     1       0.002  -0.004   0.002  0.00  0.00    +0.039 C 
ATOM     19  C   UNL     1       0.742  -0.511   1.242  0.00  0.00    +0.014 C 
ENDBRANCH   1  18
BRANCH   4  20
ATOM     20  N   UNL     1      -5.280  -1.488   0.799  0.00  0.00    -0.351 N 
ATOM     21  H   UNL     1      -5.852  -2.041   0.244  0.00  0.00    +0.143 HD
ATOM     22  H   UNL     1      -5.623  -1.112   1.625  0.00  0.00    +0.143 HD
ENDBRANCH   4  20
TORSDOF 3
