REMARK  Name = ZINC48234080
REMARK  4 active torsions:
REMARK  status: ('A' for Active; 'I' for Inactive)
REMARK    1  A    between atoms: C_6  and  C_7
REMARK    2  A    between atoms: C_7  and  N_8
REMARK    3  A    between atoms: N_8  and  C_9
REMARK    4  A    between atoms: C_9  and  C_10
REMARK                            x       y       z     vdW  Elec       q    Type
REMARK                         _______ _______ _______ _____ _____    ______ ____
ROOT
ATOM      1  C   UNL     1      -2.989  -1.770  -1.364  0.00  0.00    -0.046 C 
ENDROOT
BRANCH   1   2
ATOM      2  C   UNL     1      -3.434  -2.019  -2.782  0.00  0.00    -0.061 A 
ATOM      3  C   UNL     1      -4.246  -1.100  -3.421  0.00  0.00    +0.005 A 
ATOM      4  C   UNL     1      -4.659  -1.322  -4.723  0.00  0.00    +0.049 A 
ATOM      5  C   UNL     1      -4.254  -2.469  -5.384  0.00  0.00    +0.162 A 
ATOM      6  C   UNL     1      -3.439  -3.391  -4.743  0.00  0.00    +0.162 A 
ATOM      7  C   UNL     1      -3.024  -3.164  -3.442  0.00  0.00    +0.051 A 
ATOM      8  O   UNL     1      -3.045  -4.518  -5.405  0.00  0.00    -0.488 OA
ATOM      9  C   UNL     1      -4.074  -5.468  -5.689  0.00  0.00    +0.232 C 
ATOM     10  C   UNL     1      -4.805  -5.104  -6.972  0.00  0.00    +0.082 C 
ATOM     11  C   UNL     1      -5.559  -3.789  -6.856  0.00  0.00    +0.232 C 
ATOM     12  O   UNL     1      -4.652  -2.700  -6.669  0.00  0.00    -0.488 OA
ENDBRANCH   1   2
BRANCH   1  13
ATOM     13  N   UNL     1      -1.727  -1.018  -1.372  0.00  0.00    +0.384 N 
ATOM     14  H   UNL     1      -1.864  -0.136  -1.842  0.00  0.00    -0.085 HD
ATOM     15  H   UNL     1      -1.021  -1.551  -1.857  0.00  0.00    -0.085 HD
BRANCH  13  16
ATOM     16  C   UNL     1      -1.293  -0.775   0.010  0.00  0.00    -0.046 C 
BRANCH  16  22
ATOM     17  C   UNL     1      -0.017   1.378   0.010  0.00  0.00    +0.003 A 
ATOM     18  C   UNL     1       1.171   2.086   0.002  0.00  0.00    +0.015 A 
ATOM     19  C   UNL     1       2.378   1.411  -0.013  0.00  0.00    +0.018 A 
ATOM     20  C   UNL     1       2.396   0.027  -0.021  0.00  0.00    +0.015 A 
ATOM     21  C   UNL     1       1.208  -0.679  -0.013  0.00  0.00    +0.003 A 
ATOM     22  C   UNL     1       0.002  -0.004   0.002  0.00  0.00    -0.064 A 
ATOM     23 BR   UNL     1       4.003   2.378  -0.024  0.00  0.00    -0.050 Br
ENDBRANCH  16  22
ENDBRANCH  13  16
ENDBRANCH   1  13
TORSDOF 4
