REMARK  Name = ZINC36625644
REMARK  8 active torsions:
REMARK  status: ('A' for Active; 'I' for Inactive)
REMARK    1  A    between atoms: C_1  and  C_2
REMARK    2  A    between atoms: C_4  and  C_25
REMARK    3  A    between atoms: C_5  and  C_9
REMARK    4  A    between atoms: C_6  and  C_8
REMARK    5  A    between atoms: C_9  and  C_11
REMARK    6  A    between atoms: C_11  and  N_12
REMARK    7  A    between atoms: N_15  and  N_19
REMARK    8  A    between atoms: N_19  and  C_20
REMARK                            x       y       z     vdW  Elec       q    Type
REMARK                         _______ _______ _______ _____ _____    ______ ____
ROOT
ATOM      1  N   UNL     1      -0.246  -5.953   2.480  0.00  0.00    -0.230 N 
ATOM      2  C   UNL     1       0.805  -6.737   2.798  0.00  0.00    +0.197 A 
ATOM      3  S   UNL     1       2.408  -6.210   3.093  0.00  0.00    -0.010 S 
ATOM      4  N   UNL     1       0.364  -8.010   2.843  0.00  0.00    -0.206 N 
ATOM      5  C   UNL     1      -0.979  -8.013   2.548  0.00  0.00    +0.231 A 
ATOM      6  N   UNL     1      -1.362  -6.788   2.333  0.00  0.00    -0.133 NA
ATOM      7  N   UNL     1      -1.792  -9.136   2.494  0.00  0.00    -0.326 N 
ATOM      8  H   UNL     1      -1.420 -10.013   2.673  0.00  0.00    +0.145 HD
ATOM      9  H   UNL     1      -2.733  -9.043   2.276  0.00  0.00    +0.145 HD
ENDROOT
BRANCH   4  10
ATOM     10  N   UNL     1       1.142  -9.137   3.138  0.00  0.00    -0.242 N 
ATOM     11  H   UNL     1       1.759  -9.488   2.477  0.00  0.00    +0.174 HD
BRANCH  10  12
ATOM     12  C   UNL     1       1.029  -9.756   4.385  0.00  0.00    +0.084 A 
ATOM     13  C   UNL     1       1.691 -10.845   4.865  0.00  0.00    +0.032 A 
ATOM     14  C   UNL     1       1.411 -11.283   6.148  0.00  0.00    +0.009 A 
ATOM     15  C   UNL     1       0.490 -10.617   6.884  0.00  0.00    +0.047 A 
ATOM     16  S   UNL     1      -0.015  -9.320   5.766  0.00  0.00    -0.081 S 
ENDBRANCH  10  12
ENDBRANCH   4  10
BRANCH   1  17
ATOM     17  C   UNL     1      -0.225  -4.497   2.323  0.00  0.00    +0.225 C 
BRANCH  17  18
ATOM     18  C   UNL     1       0.078  -4.150   0.888  0.00  0.00    +0.185 C 
ATOM     19  O   UNL     1       0.354  -5.027   0.098  0.00  0.00    -0.290 OA
BRANCH  18  24
ATOM     20  C   UNL     1      -0.070   1.331  -0.841  0.00  0.00    +0.044 C 
ATOM     21  C   UNL     1      -0.031  -0.106  -0.387  0.00  0.00    -0.050 A 
ATOM     22  C   UNL     1       1.117  -0.613   0.197  0.00  0.00    +0.007 A 
ATOM     23  C   UNL     1       1.160  -1.926   0.614  0.00  0.00    -0.039 A 
ATOM     24  C   UNL     1       0.040  -2.747   0.446  0.00  0.00    +0.025 A 
ATOM     25  C   UNL     1      -1.116  -2.227  -0.144  0.00  0.00    -0.039 A 
ATOM     26  C   UNL     1      -1.145  -0.910  -0.552  0.00  0.00    +0.007 A 
ATOM     27  C   UNL     1      -2.328  -3.103  -0.331  0.00  0.00    +0.044 C 
ATOM     28  C   UNL     1       2.412  -2.477   1.249  0.00  0.00    +0.044 C 
ENDBRANCH  18  24
ENDBRANCH  17  18
ENDBRANCH   1  17
TORSDOF 5
