REMARK  Name = ZINC38519758
REMARK  5 active torsions:
REMARK  status: ('A' for Active; 'I' for Inactive)
REMARK    1  A    between atoms: C_1  and  N_2
REMARK    2  A    between atoms: C_8  and  C_10
REMARK    3  A    between atoms: C_13  and  S_16
REMARK    4  A    between atoms: S_16  and  N_19
REMARK    5  A    between atoms: C_24  and  C_30
REMARK                            x       y       z     vdW  Elec       q    Type
REMARK                         _______ _______ _______ _____ _____    ______ ____
ROOT
ATOM      1  C   UNL     1      -0.018   1.461   0.010  0.00  0.00    +0.174 C 
ATOM      2  N   UNL     1       0.002  -0.004   0.002  0.00  0.00    -0.251 N 
ATOM      3  C   UNL     1       0.008  -0.791  -1.090  0.00  0.00    +0.129 A 
ATOM      4  C   UNL     1       0.041  -2.092  -0.666  0.00  0.00    +0.042 A 
ATOM      5  C   UNL     1       0.042  -2.089   0.727  0.00  0.00    +0.153 A 
ATOM      6  N   UNL     1       0.025  -0.837   1.132  0.00  0.00    -0.154 NA
ATOM      7  N   UNL     1       0.064  -3.221   1.551  0.00  0.00    -0.265 N 
ATOM      8  C   UNL     1       0.062  -3.078   2.892  0.00  0.00    +0.249 C 
ATOM      9  O   UNL     1       0.042  -1.967   3.385  0.00  0.00    -0.270 OA
ATOM     10  C   UNL     1       0.078  -3.254  -1.626  0.00  0.00    +0.064 C 
ATOM     11  C   UNL     1      -0.624  -2.831  -2.920  0.00  0.00    +0.109 C 
ATOM     12  C   UNL     1      -0.204  -1.450  -3.340  0.00  0.00    +0.219 C 
ATOM     13  O   UNL     1      -0.044  -1.218  -4.520  0.00  0.00    -0.275 OA
ATOM     14  N   UNL     1       0.001  -0.461  -2.445  0.00  0.00    -0.270 N 
ATOM     15  H   UNL     1       0.080  -4.108   1.158  0.00  0.00    +0.157 HD
ATOM     16  H   UNL     1       0.139   0.454  -2.736  0.00  0.00    +0.156 HD
ENDROOT
BRANCH   8  17
ATOM     17  C   UNL     1       0.085  -4.273   3.762  0.00  0.00    +0.037 A 
ATOM     18  C   UNL     1       0.114  -5.550   3.200  0.00  0.00    +0.015 A 
ATOM     19  C   UNL     1       0.135  -6.660   4.018  0.00  0.00    +0.029 A 
ATOM     20  C   UNL     1       0.127  -6.510   5.393  0.00  0.00    +0.106 A 
ATOM     21  C   UNL     1       0.099  -5.247   5.957  0.00  0.00    +0.029 A 
ATOM     22  C   UNL     1       0.083  -4.128   5.151  0.00  0.00    +0.015 A 
BRANCH  20  23
ATOM     23  S   UNL     1       0.153  -7.934   6.431  0.00  0.00    +0.061 S 
ATOM     24  O   UNL     1      -0.410  -7.540   7.675  0.00  0.00    -0.153 OA
ATOM     25  O   UNL     1      -0.373  -9.007   5.662  0.00  0.00    -0.153 OA
BRANCH  23  26
ATOM     26  N   UNL     1       1.742  -8.297   6.725  0.00  0.00    -0.177 NA
ATOM     27  C   UNL     1       2.584  -9.183   5.908  0.00  0.00    +0.109 C 
ATOM     28  C   UNL     1       3.973  -9.240   6.577  0.00  0.00    +0.018 C 
ATOM     29  C   UNL     1       3.670  -8.833   8.043  0.00  0.00    +0.018 C 
ATOM     30  C   UNL     1       2.548  -7.780   7.845  0.00  0.00    +0.109 C 
ENDBRANCH  23  26
ENDBRANCH  20  23
ENDBRANCH   8  17
BRANCH  10  31
ATOM     31  C   UNL     1      -0.637  -4.435  -1.022  0.00  0.00    -0.039 A 
ATOM     32  C   UNL     1      -1.973  -4.335  -0.683  0.00  0.00    +0.004 A 
ATOM     33  C   UNL     1      -2.629  -5.418  -0.129  0.00  0.00    +0.000 A 
ATOM     34  C   UNL     1      -1.948  -6.602   0.085  0.00  0.00    +0.000 A 
ATOM     35  C   UNL     1      -0.612  -6.703  -0.254  0.00  0.00    +0.000 A 
ATOM     36  C   UNL     1       0.043  -5.621  -0.812  0.00  0.00    +0.004 A 
ENDBRANCH  10  31
TORSDOF 4
