REMARK  Name = ZINC53994131
REMARK  7 active torsions:
REMARK  status: ('A' for Active; 'I' for Inactive)
REMARK    1  A    between atoms: C_1  and  C_2
REMARK    2  A    between atoms: C_5  and  C_8
REMARK    3  A    between atoms: C_10  and  C_24
REMARK    4  A    between atoms: C_11  and  N_13
REMARK    5  A    between atoms: C_14  and  C_15
REMARK    6  A    between atoms: C_18  and  O_21
REMARK    7  A    between atoms: O_21  and  C_22
REMARK                            x       y       z     vdW  Elec       q    Type
REMARK                         _______ _______ _______ _____ _____    ______ ____
ROOT
ATOM      1  C   UNL     1       0.060  -4.233  -0.090  0.00  0.00    +0.111 A 
ATOM      2  N   UNL     1       0.060  -5.056   0.946  0.00  0.00    -0.236 NA
ATOM      3  C   UNL     1       0.076  -6.365   0.790  0.00  0.00    +0.111 A 
ATOM      4  C   UNL     1       0.093  -6.883  -0.513  0.00  0.00    +0.131 A 
ATOM      5  S   UNL     1       0.076  -5.371  -1.468  0.00  0.00    -0.047 S 
ENDROOT
BRANCH   1  10
ATOM      6  C   UNL     1      -0.006   1.520  -0.144  0.00  0.00    +0.044 C 
ATOM      7  C   UNL     1       0.012   0.013  -0.130  0.00  0.00    -0.050 A 
ATOM      8  C   UNL     1       0.024  -0.687  -1.323  0.00  0.00    +0.004 A 
ATOM      9  C   UNL     1       0.040  -2.066  -1.318  0.00  0.00    +0.011 A 
ATOM     10  C   UNL     1       0.043  -2.756  -0.103  0.00  0.00    +0.007 A 
ATOM     11  C   UNL     1       0.031  -2.043   1.097  0.00  0.00    +0.011 A 
ATOM     12  C   UNL     1       0.021  -0.664   1.077  0.00  0.00    +0.004 A 
ENDBRANCH   1  10
BRANCH   4  13
ATOM     13  N   UNL     1       0.111  -8.167  -0.932  0.00  0.00    -0.223 NA
ATOM     14  C   UNL     1       1.254  -8.746  -1.228  0.00  0.00    +0.125 C 
ATOM     15  N   UNL     1       2.442  -8.082  -1.006  0.00  0.00    -0.343 N 
ATOM     16  H   UNL     1       2.440  -7.221  -0.558  0.00  0.00    +0.144 HD
ATOM     17  H   UNL     1       3.280  -8.474  -1.298  0.00  0.00    +0.144 HD
BRANCH  14  18
ATOM     18  C   UNL     1       1.266 -10.106  -1.799  0.00  0.00    +0.015 A 
ATOM     19  C   UNL     1       0.062 -10.780  -2.030  0.00  0.00    +0.015 A 
ATOM     20  C   UNL     1       0.078 -12.050  -2.563  0.00  0.00    +0.046 A 
ATOM     21  C   UNL     1       1.287 -12.662  -2.870  0.00  0.00    +0.120 A 
ATOM     22  C   UNL     1       2.485 -11.996  -2.642  0.00  0.00    +0.046 A 
ATOM     23  C   UNL     1       2.479 -10.724  -2.115  0.00  0.00    +0.015 A 
BRANCH  21  24
ATOM     24  O   UNL     1       1.298 -13.915  -3.395  0.00  0.00    -0.495 OA
ATOM     25  C   UNL     1       2.575 -14.485  -3.687  0.00  0.00    +0.277 C 
ENDBRANCH  21  24
ENDBRANCH  14  18
ENDBRANCH   4  13
BRANCH   3  26
ATOM     26  C   UNL     1       0.077  -7.264   1.959  0.00  0.00    +0.040 A 
ATOM     27  C   UNL     1       0.671  -7.090   3.183  0.00  0.00    +0.018 A 
ATOM     28  C   UNL     1       0.532  -8.080   4.131  0.00  0.00    +0.008 A 
ATOM     29  C   UNL     1      -0.185  -9.192   3.828  0.00  0.00    +0.046 A 
ATOM     30  S   UNL     1      -0.702  -8.859   2.152  0.00  0.00    -0.095 S 
ENDBRANCH   3  26
TORSDOF 5
