REMARK  Name = ZINC15968077
REMARK  7 active torsions:
REMARK  status: ('A' for Active; 'I' for Inactive)
REMARK    1  A    between atoms: C_1  and  C_2
REMARK    2  A    between atoms: C_2  and  C_3
REMARK    3  A    between atoms: C_14  and  C_17
REMARK    4  A    between atoms: C_17  and  C_18
REMARK    5  A    between atoms: N_23  and  C_26
REMARK    6  A    between atoms: C_26  and  C_27
REMARK    7  A    between atoms: C_27  and  C_28
REMARK                            x       y       z     vdW  Elec       q    Type
REMARK                         _______ _______ _______ _____ _____    ______ ____
ROOT
ATOM      1  C   UNL     1      -1.412  -0.526   0.013  0.00  0.00    -0.047 A 
ATOM      2  C   UNL     1      -2.053  -0.767   1.214  0.00  0.00    +0.005 A 
ATOM      3  C   UNL     1      -3.347  -1.243   1.230  0.00  0.00    +0.024 A 
ATOM      4  C   UNL     1      -4.019  -1.486   0.035  0.00  0.00    +0.039 A 
ATOM      5  C   UNL     1      -3.364  -1.240  -1.169  0.00  0.00    +0.004 A 
ATOM      6  C   UNL     1      -2.074  -0.759  -1.179  0.00  0.00    +0.011 A 
ATOM      7  C   UNL     1      -4.344  -1.596  -2.250  0.00  0.00    +0.136 C 
ATOM      8  C   UNL     1      -4.637  -0.398  -3.161  0.00  0.00    +0.122 C 
ATOM      9  C   UNL     1      -3.726  -0.618  -4.400  0.00  0.00    +0.107 C 
ATOM     10  C   UNL     1      -2.951  -1.917  -4.098  0.00  0.00    +0.076 C 
ATOM     11  N   UNL     1      -3.817  -2.655  -3.131  0.00  0.00    -0.295 NA
ATOM     12  C   UNL     1      -4.713  -0.855  -5.521  0.00  0.00    +0.227 C 
ATOM     13  O   UNL     1      -4.420  -1.083  -6.675  0.00  0.00    -0.275 OA
ATOM     14  N   UNL     1      -5.959  -0.776  -5.040  0.00  0.00    -0.241 N 
ATOM     15  C   UNL     1      -6.039  -0.511  -3.715  0.00  0.00    +0.228 C 
ATOM     16  O   UNL     1      -7.059  -0.387  -3.072  0.00  0.00    -0.275 OA
ATOM     17  C   UNL     1      -5.580  -2.051  -1.523  0.00  0.00    +0.243 C 
ATOM     18  O   UNL     1      -6.618  -2.428  -2.025  0.00  0.00    -0.273 OA
ATOM     19  N   UNL     1      -5.311  -1.960  -0.207  0.00  0.00    -0.283 N 
ATOM     20  H   UNL     1      -3.276  -3.326  -2.607  0.00  0.00    +0.124 HD
ATOM     21  H   UNL     1      -5.940  -2.195   0.492  0.00  0.00    +0.155 HD
ENDROOT
BRANCH   1  23
ATOM     22  C   UNL     1      -0.019   1.526   0.010  0.00  0.00    +0.009 C 
ATOM     23  C   UNL     1       0.002  -0.004   0.002  0.00  0.00    +0.032 C 
ENDBRANCH   1  23
BRANCH  10  24
ATOM     24  C   UNL     1      -2.779  -2.743  -5.375  0.00  0.00    +0.115 C 
BRANCH  24  25
ATOM     25  C   UNL     1      -1.917  -3.944  -5.083  0.00  0.00    +0.212 C 
ATOM     26  O   UNL     1      -1.483  -4.122  -3.965  0.00  0.00    -0.276 OA
ATOM     27  N   UNL     1      -1.627  -4.820  -6.066  0.00  0.00    -0.329 N 
ATOM     28  H   UNL     1      -1.974  -4.678  -6.960  0.00  0.00    +0.145 HD
ATOM     29  H   UNL     1      -1.073  -5.593  -5.878  0.00  0.00    +0.145 HD
ENDBRANCH  24  25
ENDBRANCH  10  24
BRANCH  14  30
ATOM     30  C   UNL     1      -7.145  -0.954  -5.880  0.00  0.00    +0.121 C 
BRANCH  30  31
ATOM     31  C   UNL     1      -7.542  -2.432  -5.896  0.00  0.00    +0.054 C 
BRANCH  31  32
ATOM     32  C   UNL     1      -8.762  -2.615  -6.761  0.00  0.00    -0.046 A 
ATOM     33  C   UNL     1     -10.024  -2.515  -6.205  0.00  0.00    +0.004 A 
ATOM     34  C   UNL     1     -11.144  -2.683  -6.999  0.00  0.00    +0.000 A 
ATOM     35  C   UNL     1     -11.001  -2.951  -8.348  0.00  0.00    +0.000 A 
ATOM     36  C   UNL     1      -9.739  -3.050  -8.903  0.00  0.00    +0.000 A 
ATOM     37  C   UNL     1      -8.620  -2.878  -8.110  0.00  0.00    +0.004 A 
ENDBRANCH  31  32
ENDBRANCH  30  31
ENDBRANCH  14  30
TORSDOF 6
