REMARK  Name = ZINC13349758
REMARK  7 active torsions:
REMARK  status: ('A' for Active; 'I' for Inactive)
REMARK    1  A    between atoms: C_4  and  N_19
REMARK    2  A    between atoms: C_5  and  C_7
REMARK    3  A    between atoms: N_9  and  C_10
REMARK    4  A    between atoms: N_19  and  S_20
REMARK    5  A    between atoms: S_20  and  C_23
REMARK    6  A    between atoms: C_26  and  C_29
REMARK    7  A    between atoms: C_30  and  C_31
REMARK                            x       y       z     vdW  Elec       q    Type
REMARK                         _______ _______ _______ _____ _____    ______ ____
ROOT
ATOM      1  C   UNL     1       8.791  -0.828   4.152  0.00  0.00    +0.001 A 
ATOM      2  C   UNL     1       9.139  -1.966   4.862  0.00  0.00    +0.002 A 
ATOM      3  C   UNL     1       8.304  -3.064   4.875  0.00  0.00    +0.025 A 
ATOM      4  C   UNL     1       7.103  -3.034   4.177  0.00  0.00    +0.060 A 
ATOM      5  C   UNL     1       6.750  -1.885   3.452  0.00  0.00    +0.059 A 
ATOM      6  C   UNL     1       7.607  -0.780   3.449  0.00  0.00    +0.015 A 
ENDROOT
BRANCH   5   7
ATOM      7  C   UNL     1       5.482  -1.841   2.703  0.00  0.00    +0.250 C 
ATOM      8  O   UNL     1       4.739  -2.804   2.708  0.00  0.00    -0.270 OA
ATOM      9  N   UNL     1       5.144  -0.734   2.012  0.00  0.00    -0.281 N 
ATOM     10  H   UNL     1       5.770   0.005   1.945  0.00  0.00    +0.155 HD
BRANCH   9  11
ATOM     11  C   UNL     1       3.892  -0.649   1.393  0.00  0.00    +0.037 A 
ATOM     12  C   UNL     1       3.753   0.045   0.198  0.00  0.00    +0.027 A 
ATOM     13  C   UNL     1       2.518   0.130  -0.414  0.00  0.00    +0.051 A 
ATOM     14  C   UNL     1       1.414  -0.480   0.160  0.00  0.00    +0.166 A 
ATOM     15  C   UNL     1       1.549  -1.177   1.359  0.00  0.00    +0.168 A 
ATOM     16  C   UNL     1       2.788  -1.260   1.972  0.00  0.00    +0.072 A 
ATOM     17  O   UNL     1       0.330  -1.678   1.712  0.00  0.00    -0.453 OA
ATOM     18  C   UNL     1      -0.468  -1.629   0.515  0.00  0.00    +0.466 C 
ATOM     19  O   UNL     1       0.108  -0.544  -0.236  0.00  0.00    -0.453 OA
ENDBRANCH   9  11
ENDBRANCH   5   7
BRANCH   4  20
ATOM     20  N   UNL     1       6.258  -4.136   4.193  0.00  0.00    -0.216 N 
ATOM     21  H   UNL     1       5.749  -4.367   3.401  0.00  0.00    +0.174 HD
BRANCH  20  22
ATOM     22  S   UNL     1       6.122  -5.055   5.564  0.00  0.00    +0.072 S 
ATOM     23  O   UNL     1       5.100  -6.010   5.312  0.00  0.00    -0.150 OA
ATOM     24  O   UNL     1       7.441  -5.430   5.934  0.00  0.00    -0.150 OA
BRANCH  22  25
ATOM     25  C   UNL     1       5.521  -3.999   6.840  0.00  0.00    +0.109 A 
ATOM     26  C   UNL     1       6.415  -3.312   7.643  0.00  0.00    +0.029 A 
ATOM     27  C   UNL     1       5.952  -2.480   8.640  0.00  0.00    +0.010 A 
ATOM     28  C   UNL     1       4.576  -2.340   8.847  0.00  0.00    -0.025 A 
ATOM     29  C   UNL     1       3.680  -3.043   8.036  0.00  0.00    +0.010 A 
ATOM     30  C   UNL     1       4.158  -3.867   7.039  0.00  0.00    +0.029 A 
BRANCH  28  31
ATOM     31  C   UNL     1       4.074  -1.459   9.914  0.00  0.00    +0.015 C 
ATOM     32  C   UNL     1       4.943  -0.783  10.694  0.00  0.00    +0.096 C 
BRANCH  32  33
ATOM     33  C   UNL     1       4.444   0.093  11.754  0.00  0.00    +0.380 C 
ATOM     34  O   UNL     1       3.247   0.212  11.931  0.00  0.00    -0.241 OA
ATOM     35  O   UNL     1       5.312   0.769  12.535  0.00  0.00    -0.241 OA
ENDBRANCH  32  33
ENDBRANCH  28  31
ENDBRANCH  22  25
ENDBRANCH  20  22
ENDBRANCH   4  20
TORSDOF 7
