REMARK  Name = ZINC08791767
REMARK  12 active torsions:
REMARK  status: ('A' for Active; 'I' for Inactive)
REMARK    1  A    between atoms: C_1  and  C_2
REMARK    2  A    between atoms: C_12  and  C_13
REMARK    3  A    between atoms: C_13  and  C_14
REMARK    4  A    between atoms: C_14  and  C_15
REMARK    5  A    between atoms: N_17  and  C_18
REMARK    6  A    between atoms: C_18  and  C_20
REMARK    7  A    between atoms: C_18  and  C_21
REMARK    8  A    between atoms: N_23  and  C_24
REMARK    9  A    between atoms: C_24  and  C_25
REMARK   10  A    between atoms: C_25  and  C_26
REMARK   11  A    between atoms: C_26  and  C_27
REMARK   12  A    between atoms: C_31  and  C_32
REMARK                            x       y       z     vdW  Elec       q    Type
REMARK                         _______ _______ _______ _____ _____    ______ ____
ROOT
ATOM      1  C   UNL     1      -1.280  -0.795   0.009  0.00  0.00    +0.045 C 
ATOM      2  C   UNL     1       0.002  -0.004   0.002  0.00  0.00    -0.030 A 
ATOM      3  C   UNL     1      -0.018   1.462   0.010  0.00  0.00    +0.022 A 
ATOM      4  C   UNL     1      -1.226   2.160   0.020  0.00  0.00    +0.024 A 
ATOM      5  C   UNL     1      -1.210   3.545   0.035  0.00  0.00    +0.029 A 
ATOM      6  C   UNL     1       0.012   4.247   0.027  0.00  0.00    +0.139 A 
ATOM      7  C   UNL     1       1.210   3.547   0.011  0.00  0.00    +0.093 A 
ATOM      8  C   UNL     1       1.206   2.163   0.002  0.00  0.00    +0.143 A 
ATOM      9  O   UNL     1       2.370   1.476  -0.013  0.00  0.00    -0.422 OA
ATOM     10  C   UNL     1       2.393   0.134  -0.020  0.00  0.00    +0.341 A 
ATOM     11  O   UNL     1       3.467  -0.440  -0.033  0.00  0.00    -0.245 OA
ATOM     12  C   UNL     1       1.207  -0.629  -0.013  0.00  0.00    +0.041 A 
ATOM     13  O   UNL     1      -0.280   5.564   0.038  0.00  0.00    -0.462 OA
ATOM     14  C   UNL     1      -1.608   5.768   0.052  0.00  0.00    +0.204 A 
ATOM     15  C   UNL     1      -2.259   4.583   0.051  0.00  0.00    +0.028 A 
ENDROOT
BRANCH  15  16
ATOM     16  C   UNL     1      -3.726   4.370   0.065  0.00  0.00    -0.014 A 
ATOM     17  C   UNL     1      -4.317   3.512  -0.861  0.00  0.00    +0.008 A 
ATOM     18  C   UNL     1      -5.683   3.313  -0.840  0.00  0.00    +0.001 A 
ATOM     19  C   UNL     1      -6.466   3.972   0.090  0.00  0.00    +0.000 A 
ATOM     20  C   UNL     1      -5.886   4.829   1.009  0.00  0.00    +0.001 A 
ATOM     21  C   UNL     1      -4.521   5.031   1.001  0.00  0.00    +0.008 A 
ENDBRANCH  15  16
BRANCH  12  22
ATOM     22  C   UNL     1       1.277  -2.135  -0.021  0.00  0.00    +0.052 C 
BRANCH  22  23
ATOM     23  C   UNL     1       1.286  -2.637  -1.466  0.00  0.00    +0.100 C 
BRANCH  23  24
ATOM     24  C   UNL     1       1.357  -4.142  -1.475  0.00  0.00    +0.214 C 
ATOM     25  O   UNL     1       1.395  -4.753  -0.428  0.00  0.00    -0.276 OA
ATOM     26  N   UNL     1       1.377  -4.809  -2.645  0.00  0.00    -0.304 N 
ATOM     27  H   UNL     1       1.346  -4.321  -3.483  0.00  0.00    +0.149 HD
BRANCH  26  28
ATOM     28  C   UNL     1       1.445  -6.273  -2.653  0.00  0.00    +0.156 C 
ATOM     29  C   UNL     1       2.905  -6.716  -2.544  0.00  0.00    +0.038 C 
BRANCH  28  30
ATOM     30  C   UNL     1       0.856  -6.796  -3.938  0.00  0.00    +0.233 C 
ATOM     31  O   UNL     1       0.422  -6.023  -4.766  0.00  0.00    -0.274 OA
ATOM     32  N   UNL     1       0.811  -8.123  -4.168  0.00  0.00    -0.314 N 
ATOM     33  H   UNL     1       1.158  -8.742  -3.506  0.00  0.00    +0.149 HD
BRANCH  32  34
ATOM     34  C   UNL     1       0.239  -8.632  -5.416  0.00  0.00    +0.105 C 
BRANCH  34  35
ATOM     35  C   UNL     1       0.310 -10.160  -5.425  0.00  0.00    +0.030 C 
BRANCH  35  36
ATOM     36  C   UNL     1      -0.288 -10.692  -6.729  0.00  0.00    +0.126 C 
BRANCH  36  37
ATOM     37  C   UNL     1      -0.218 -12.197  -6.737  0.00  0.00    +0.356 C 
ATOM     38  O   UNL     1       0.261 -12.784  -5.796  0.00  0.00    -0.246 OA
ATOM     39  O   UNL     1      -0.688 -12.885  -7.790  0.00  0.00    -0.246 OA
ENDBRANCH  36  37
ENDBRANCH  35  36
ENDBRANCH  34  35
ENDBRANCH  32  34
ENDBRANCH  28  30
ENDBRANCH  26  28
ENDBRANCH  23  24
ENDBRANCH  22  23
ENDBRANCH  12  22
TORSDOF 10
