REMARK  Name = ZINC12563881
REMARK  6 active torsions:
REMARK  status: ('A' for Active; 'I' for Inactive)
REMARK    1  A    between atoms: C_6  and  C_7
REMARK    2  A    between atoms: N_8  and  N_9
REMARK    3  A    between atoms: N_9  and  C_10
REMARK    4  A    between atoms: C_13  and  C_16
REMARK    5  A    between atoms: N_18  and  N_19
REMARK    6  A    between atoms: C_20  and  C_21
REMARK                            x       y       z     vdW  Elec       q    Type
REMARK                         _______ _______ _______ _____ _____    ______ ____
ROOT
ATOM      1  C   UNL     1       1.179   2.081   0.002  0.00  0.00    +0.048 A 
ATOM      2  C   UNL     1      -0.017   1.367   0.010  0.00  0.00    +0.025 A 
ATOM      3  C   UNL     1       0.002  -0.004   0.002  0.00  0.00    +0.015 A 
ATOM      4  C   UNL     1       1.223  -0.685  -0.013  0.00  0.00    +0.038 A 
ATOM      5  C   UNL     1       2.422   0.034  -0.021  0.00  0.00    +0.015 A 
ATOM      6  C   UNL     1       2.397   1.405  -0.013  0.00  0.00    +0.025 A 
ENDROOT
BRANCH   4   7
ATOM      7  C   UNL     1       1.247  -2.160  -0.021  0.00  0.00    +0.263 C 
ATOM      8  O   UNL     1       0.203  -2.785  -0.014  0.00  0.00    -0.268 OA
ATOM      9  N   UNL     1       2.424  -2.815  -0.036  0.00  0.00    -0.203 N 
ATOM     10  H   UNL     1       3.256  -2.317  -0.041  0.00  0.00    +0.178 HD
BRANCH   9  11
ATOM     11  N   UNL     1       2.446  -4.216  -0.043  0.00  0.00    -0.187 NA
ATOM     12  C   UNL     1       3.581  -4.847  -0.057  0.00  0.00    +0.138 C 
BRANCH  12  13
ATOM     13  C   UNL     1       3.604  -6.321  -0.065  0.00  0.00    -0.005 A 
ATOM     14  C   UNL     1       2.407  -7.042  -0.051  0.00  0.00    +0.010 A 
ATOM     15  C   UNL     1       2.436  -8.421  -0.064  0.00  0.00    +0.016 A 
ATOM     16  C   UNL     1       3.648  -9.091  -0.079  0.00  0.00    +0.018 A 
ATOM     17  C   UNL     1       4.838  -8.382  -0.087  0.00  0.00    +0.016 A 
ATOM     18  C   UNL     1       4.823  -7.003  -0.080  0.00  0.00    +0.010 A 
ATOM     19 BR   UNL     1       3.678 -10.981  -0.088  0.00  0.00    -0.050 Br
ENDBRANCH  12  13
ENDBRANCH   9  11
ENDBRANCH   4   7
BRANCH   1  20
ATOM     20  N   UNL     1       1.157   3.470   0.009  0.00  0.00    -0.238 N 
ATOM     21  H   UNL     1       0.310   3.942   0.019  0.00  0.00    +0.174 HD
BRANCH  20  23
ATOM     22  C   UNL     1       2.339   5.488   0.008  0.00  0.00    +0.138 C 
ATOM     23  N   UNL     1       2.359   4.190   0.002  0.00  0.00    -0.190 NA
BRANCH  22  29
ATOM     24  C   UNL     1       4.826   5.569  -0.009  0.00  0.00    +0.010 A 
ATOM     25  C   UNL     1       6.006   6.284  -0.022  0.00  0.00    +0.016 A 
ATOM     26  C   UNL     1       5.980   7.668  -0.015  0.00  0.00    +0.018 A 
ATOM     27  C   UNL     1       4.772   8.345  -0.000  0.00  0.00    +0.016 A 
ATOM     28  C   UNL     1       3.585   7.642   0.007  0.00  0.00    +0.010 A 
ATOM     29  C   UNL     1       3.604   6.245   0.000  0.00  0.00    -0.005 A 
ATOM     30 BR   UNL     1       7.603   8.640  -0.026  0.00  0.00    -0.050 Br
ENDBRANCH  22  29
ENDBRANCH  20  23
ENDBRANCH   1  20
TORSDOF 6
