REMARK  Name = ZINC24608766
REMARK  10 active torsions:
REMARK  status: ('A' for Active; 'I' for Inactive)
REMARK    1  A    between atoms: C_1  and  C_2
REMARK    2  A    between atoms: C_2  and  C_3
REMARK    3  A    between atoms: C_2  and  C_4
REMARK    4  A    between atoms: C_4  and  N_5
REMARK    5  A    between atoms: C_6  and  C_8
REMARK    6  A    between atoms: C_13  and  N_14
REMARK    7  A    between atoms: C_15  and  C_17
REMARK    8  A    between atoms: N_20  and  S_23
REMARK    9  A    between atoms: S_23  and  C_26
REMARK   10  A    between atoms: C_26  and  C_27
REMARK                            x       y       z     vdW  Elec       q    Type
REMARK                         _______ _______ _______ _____ _____    ______ ____
ROOT
ATOM      1  N   UNL     1       0.111   0.742   0.059  0.00  0.00    -0.285 N 
ATOM      2  C   UNL     1       1.297   1.378   0.126  0.00  0.00    +0.220 C 
ATOM      3  O   UNL     1       1.339   2.590   0.080  0.00  0.00    -0.275 OA
ATOM      4  H   UNL     1       0.077  -0.357   0.030  0.00  0.00    +0.155 HD
ENDROOT
BRANCH   1  10
ATOM      5  C   UNL     1      -2.224   0.985   0.660  0.00  0.00    +0.058 A 
ATOM      6  C   UNL     1      -3.403   1.733   0.625  0.00  0.00    +0.015 A 
ATOM      7  C   UNL     1      -3.431   2.941  -0.039  0.00  0.00    +0.001 A 
ATOM      8  C   UNL     1      -2.294   3.420  -0.668  0.00  0.00    +0.002 A 
ATOM      9  C   UNL     1      -1.120   2.694  -0.637  0.00  0.00    +0.024 A 
ATOM     10  C   UNL     1      -1.073   1.476   0.027  0.00  0.00    +0.046 A 
BRANCH   5  12
ATOM     11  N   UNL     1      -3.321  -0.830   1.878  0.00  0.00    -0.311 N 
ATOM     12  C   UNL     1      -2.188  -0.311   1.364  0.00  0.00    +0.246 C 
ATOM     13  O   UNL     1      -1.137  -0.911   1.480  0.00  0.00    -0.270 OA
ATOM     14  H   UNL     1      -4.272  -0.287   1.773  0.00  0.00    +0.149 HD
BRANCH  11  15
ATOM     15  C   UNL     1      -3.286  -2.117   2.577  0.00  0.00    +0.107 C 
BRANCH  15  17
ATOM     16  C   UNL     1      -4.680  -3.873   3.678  0.00  0.00    +0.009 C 
ATOM     17  C   UNL     1      -4.693  -2.474   3.059  0.00  0.00    -0.000 C 
ATOM     18  C   UNL     1      -5.147  -1.456   4.107  0.00  0.00    +0.009 C 
ENDBRANCH  15  17
ENDBRANCH  11  15
ENDBRANCH   5  12
ENDBRANCH   1  10
BRANCH   2  19
ATOM     19  C   UNL     1       2.571   0.585   0.258  0.00  0.00    +0.078 C 
ATOM     20  C   UNL     1       2.524  -0.247   1.541  0.00  0.00    +0.030 C 
ATOM     21  C   UNL     1       3.806  -1.078   1.654  0.00  0.00    +0.110 C 
ATOM     22  N   UNL     1       4.963  -0.178   1.561  0.00  0.00    -0.181 NA
ATOM     23  C   UNL     1       5.060   0.731   0.411  0.00  0.00    +0.110 C 
ATOM     24  C   UNL     1       3.764   1.542   0.312  0.00  0.00    +0.030 C 
BRANCH  22  25
ATOM     25  S   UNL     1       6.136  -0.187   2.730  0.00  0.00    +0.036 S 
ATOM     26  O   UNL     1       6.082  -1.494   3.286  0.00  0.00    -0.158 OA
ATOM     27  O   UNL     1       7.308   0.273   2.072  0.00  0.00    -0.158 OA
BRANCH  25  28
ATOM     28  C   UNL     1       5.585   1.035   3.953  0.00  0.00    +0.220 C 
BRANCH  28  29
ATOM     29  C   UNL     1       6.588   1.110   5.075  0.00  0.00    -0.025 A 
ATOM     30  C   UNL     1       6.451   0.292   6.180  0.00  0.00    +0.007 A 
ATOM     31  C   UNL     1       7.374   0.357   7.207  0.00  0.00    +0.020 A 
ATOM     32  C   UNL     1       8.429   1.248   7.133  0.00  0.00    +0.041 A 
ATOM     33  C   UNL     1       8.563   2.071   6.029  0.00  0.00    +0.020 A 
ATOM     34  C   UNL     1       7.642   2.001   5.000  0.00  0.00    +0.007 A 
ATOM     35 CL   UNL     1       9.585   1.335   8.426  0.00  0.00    -0.084 Cl
ENDBRANCH  28  29
ENDBRANCH  25  28
ENDBRANCH  22  25
ENDBRANCH   2  19
TORSDOF 8
