REMARK  Name = ZINC15643231
REMARK  9 active torsions:
REMARK  status: ('A' for Active; 'I' for Inactive)
REMARK    1  A    between atoms: C_1  and  C_2
REMARK    2  A    between atoms: C_2  and  C_4
REMARK    3  A    between atoms: C_2  and  O_13
REMARK    4  A    between atoms: N_9  and  C_10
REMARK    5  A    between atoms: C_10  and  C_11
REMARK    6  A    between atoms: C_10  and  C_12
REMARK    7  A    between atoms: O_13  and  C_14
REMARK    8  A    between atoms: C_14  and  C_16
REMARK    9  A    between atoms: C_21  and  N_22
REMARK                            x       y       z     vdW  Elec       q    Type
REMARK                         _______ _______ _______ _____ _____    ______ ____
ROOT
ATOM      1  C   UNL     1      -3.303  -1.174   1.311  0.00  0.00    +0.080 A 
ATOM      2  C   UNL     1      -4.060  -1.338   0.152  0.00  0.00    +0.017 A 
ATOM      3  C   UNL     1      -5.336  -1.868   0.218  0.00  0.00    +0.013 A 
ATOM      4  C   UNL     1      -5.879  -2.244   1.444  0.00  0.00    +0.035 A 
ATOM      5  C   UNL     1      -5.129  -2.087   2.623  0.00  0.00    +0.054 A 
ATOM      6  C   UNL     1      -3.834  -1.555   2.557  0.00  0.00    +0.050 A 
ATOM      7  C   UNL     1      -5.700  -2.483   3.921  0.00  0.00    +0.196 C 
ATOM      8  O   UNL     1      -5.050  -2.345   4.939  0.00  0.00    -0.287 OA
ATOM      9  C   UNL     1      -7.065  -3.047   3.987  0.00  0.00    +0.033 A 
ATOM     10  C   UNL     1      -7.611  -3.423   5.210  0.00  0.00    +0.012 A 
ATOM     11  C   UNL     1      -8.890  -3.950   5.262  0.00  0.00    +0.001 A 
ATOM     12  C   UNL     1      -9.630  -4.108   4.104  0.00  0.00    +0.001 A 
ATOM     13  C   UNL     1      -9.102  -3.740   2.880  0.00  0.00    +0.012 A 
ATOM     14  C   UNL     1      -7.818  -3.207   2.810  0.00  0.00    +0.033 A 
ATOM     15  C   UNL     1      -7.245  -2.810   1.507  0.00  0.00    +0.195 C 
ATOM     16  O   UNL     1      -7.895  -2.947   0.490  0.00  0.00    -0.287 OA
ENDROOT
BRANCH   6  17
ATOM     17  N   UNL     1      -3.087  -1.400   3.707  0.00  0.00    -0.357 N 
ATOM     18  H   UNL     1      -2.459  -0.665   3.782  0.00  0.00    +0.142 HD
ATOM     19  H   UNL     1      -3.189  -2.027   4.440  0.00  0.00    +0.142 HD
ENDBRANCH   6  17
BRANCH   1  20
ATOM     20  C   UNL     1      -1.943  -0.609   1.230  0.00  0.00    +0.342 C 
ATOM     21  O   UNL     1      -1.296  -0.433   2.243  0.00  0.00    -0.245 OA
BRANCH  20  22
ATOM     22  O   UNL     1      -1.417  -0.287   0.031  0.00  0.00    -0.449 OA
BRANCH  22  24
ATOM     23  C   UNL     1      -0.171   1.780   0.143  0.00  0.00    +0.062 C 
ATOM     24  C   UNL     1      -0.096   0.257   0.027  0.00  0.00    +0.259 C 
BRANCH  24  25
ATOM     25  C   UNL     1       0.597  -0.116  -1.259  0.00  0.00    +0.261 C 
ATOM     26  O   UNL     1      -0.013  -0.703  -2.127  0.00  0.00    -0.271 OA
ATOM     27  N   UNL     1       1.893   0.203  -1.443  0.00  0.00    -0.237 N 
ATOM     28  C   UNL     1       2.512  -0.130  -2.593  0.00  0.00    +0.306 C 
ATOM     29  O   UNL     1       1.901  -0.718  -3.463  0.00  0.00    -0.252 OA
ATOM     30  N   UNL     1       3.808   0.189  -2.777  0.00  0.00    -0.297 N 
ATOM     31  H   UNL     1       2.380   0.673  -0.748  0.00  0.00    +0.159 HD
ATOM     32  H   UNL     1       4.296   0.658  -2.082  0.00  0.00    +0.151 HD
BRANCH  30  33
ATOM     33  C   UNL     1       4.481  -0.173  -4.027  0.00  0.00    +0.068 C 
ATOM     34  C   UNL     1       4.218   0.906  -5.079  0.00  0.00    +0.027 C 
ATOM     35  C   UNL     1       5.987  -0.289  -3.780  0.00  0.00    +0.027 C 
ENDBRANCH  30  33
ENDBRANCH  24  25
ENDBRANCH  22  24
ENDBRANCH  20  22
ENDBRANCH   1  20
TORSDOF 6
