REMARK  Name = ZINC66794769
REMARK  6 active torsions:
REMARK  status: ('A' for Active; 'I' for Inactive)
REMARK    1  A    between atoms: C_1  and  C_2
REMARK    2  A    between atoms: C_4  and  C_10
REMARK    3  A    between atoms: C_5  and  O_9
REMARK    4  A    between atoms: C_7  and  C_8
REMARK    5  A    between atoms: C_10  and  N_11
REMARK    6  A    between atoms: C_15  and  C_18
REMARK                            x       y       z     vdW  Elec       q    Type
REMARK                         _______ _______ _______ _____ _____    ______ ____
ROOT
ATOM      1  N   UNL     1       1.371  -3.349  -2.776  0.00  0.00    -0.293 NA
ATOM      2  C   UNL     1       2.337  -2.264  -2.996  0.00  0.00    +0.113 C 
ATOM      3  C   UNL     1       3.732  -2.863  -3.199  0.00  0.00    +0.176 C 
ATOM      4  O   UNL     1       3.695  -3.784  -4.292  0.00  0.00    -0.369 OA
ATOM      5  C   UNL     1       2.764  -4.855  -4.111  0.00  0.00    +0.162 C 
ATOM      6  C   UNL     1       1.360  -4.276  -3.917  0.00  0.00    +0.121 C 
ENDROOT
BRANCH   5   7
ATOM      7  C   UNL     1       2.779  -5.746  -5.327  0.00  0.00    -0.015 A 
ATOM      8  C   UNL     1       2.977  -5.199  -6.581  0.00  0.00    +0.009 A 
ATOM      9  C   UNL     1       2.991  -6.014  -7.697  0.00  0.00    +0.041 A 
ATOM     10  C   UNL     1       2.807  -7.379  -7.560  0.00  0.00    +0.158 A 
ATOM     11  C   UNL     1       2.608  -7.927  -6.302  0.00  0.00    +0.159 A 
ATOM     12  C   UNL     1       2.599  -7.109  -5.186  0.00  0.00    +0.047 A 
ATOM     13  F   UNL     1       2.427  -9.259  -6.166  0.00  0.00    -0.202 F 
ATOM     14  F   UNL     1       2.820  -8.176  -8.651  0.00  0.00    -0.202 F 
ENDBRANCH   5   7
BRANCH   1  15
ATOM     15  C   UNL     1       0.027  -2.813  -2.521  0.00  0.00    +0.123 C 
BRANCH  15  19
ATOM     16  C   UNL     1      -0.018   1.503   0.010  0.00  0.00    +0.044 C 
ATOM     17  C   UNL     1       0.002  -0.004   0.002  0.00  0.00    -0.047 A 
ATOM     18  C   UNL     1       0.006  -0.688  -1.200  0.00  0.00    +0.012 A 
ATOM     19  C   UNL     1       0.024  -2.069  -1.210  0.00  0.00    +0.008 A 
ATOM     20  C   UNL     1       0.039  -2.770  -0.013  0.00  0.00    +0.122 A 
ATOM     21  C   UNL     1       0.036  -2.082   1.191  0.00  0.00    +0.049 A 
ATOM     22  C   UNL     1       0.023  -0.701   1.196  0.00  0.00    -0.044 A 
ATOM     23  C   UNL     1       0.025   0.048   2.504  0.00  0.00    +0.044 C 
BRANCH  20  24
ATOM     24  O   UNL     1       0.057  -4.129  -0.021  0.00  0.00    -0.506 OA
ATOM     25  H   UNL     1       0.945  -4.511  -0.027  0.00  0.00    +0.292 HD
ENDBRANCH  20  24
ENDBRANCH  15  19
ENDBRANCH   1  15
TORSDOF 4
