REMARK  Name = ZINC67268129
REMARK  6 active torsions:
REMARK  status: ('A' for Active; 'I' for Inactive)
REMARK    1  A    between atoms: C_1  and  C_2
REMARK    2  A    between atoms: C_2  and  N_3
REMARK    3  A    between atoms: N_3  and  C_4
REMARK    4  A    between atoms: C_4  and  C_6
REMARK    5  A    between atoms: C_4  and  C_7
REMARK    6  A    between atoms: C_14  and  C_16
REMARK                            x       y       z     vdW  Elec       q    Type
REMARK                         _______ _______ _______ _____ _____    ______ ____
ROOT
ATOM      1  N   UNL     1       0.469  -0.511  -1.336  0.00  0.00    -0.295 N 
ATOM      2  C   UNL     1      -0.093  -0.052  -2.472  0.00  0.00    +0.219 C 
ATOM      3  O   UNL     1       0.548  -0.034  -3.501  0.00  0.00    -0.275 OA
ENDROOT
BRANCH   2   4
ATOM      4  C   UNL     1      -1.517   0.440  -2.462  0.00  0.00    +0.075 C 
ATOM      5  C   UNL     1      -1.546   1.909  -2.036  0.00  0.00    +0.015 C 
ATOM      6  C   UNL     1      -2.995   2.405  -2.017  0.00  0.00    +0.036 C 
ATOM      7  C   UNL     1      -3.606   2.248  -3.405  0.00  0.00    +0.112 C 
ATOM      8  C   UNL     1      -3.564   0.791  -3.852  0.00  0.00    +0.036 C 
ATOM      9  C   UNL     1      -2.114   0.301  -3.865  0.00  0.00    +0.015 C 
ATOM     10  C   UNL     1      -5.026   2.764  -3.418  0.00  0.00    +0.244 C 
ATOM     11  O   UNL     1      -5.962   2.353  -2.766  0.00  0.00    -0.273 OA
ATOM     12  N   UNL     1      -5.033   3.778  -4.308  0.00  0.00    -0.238 N 
ATOM     13  C   UNL     1      -3.824   3.967  -4.849  0.00  0.00    +0.307 C 
ATOM     14  O   UNL     1      -3.580   4.823  -5.677  0.00  0.00    -0.252 OA
ATOM     15  N   UNL     1      -2.907   3.103  -4.373  0.00  0.00    -0.285 N 
ATOM     16  H   UNL     1      -5.817   4.305  -4.528  0.00  0.00    +0.159 HD
ATOM     17  H   UNL     1      -1.970   3.055  -4.621  0.00  0.00    +0.151 HD
ENDBRANCH   2   4
BRANCH   1  19
ATOM     18  C   UNL     1       0.225   0.856   0.677  0.00  0.00    +0.024 C 
ATOM     19  C   UNL     1      -0.250  -0.396  -0.065  0.00  0.00    +0.105 C 
ENDBRANCH   1  19
BRANCH   1  20
ATOM     20  C   UNL     1       1.798  -1.126  -1.373  0.00  0.00    +0.103 C 
ATOM     21  C   UNL     1       2.408  -0.940  -2.764  0.00  0.00    +0.033 C 
BRANCH  20  22
ATOM     22  C   UNL     1       1.679  -2.598  -1.070  0.00  0.00    -0.027 A 
ATOM     23  C   UNL     1       0.706  -3.355  -1.694  0.00  0.00    +0.008 A 
ATOM     24  C   UNL     1       0.597  -4.705  -1.417  0.00  0.00    +0.038 A 
ATOM     25  C   UNL     1       1.462  -5.298  -0.513  0.00  0.00    +0.123 A 
ATOM     26  C   UNL     1       2.436  -4.538   0.112  0.00  0.00    +0.038 A 
ATOM     27  C   UNL     1       2.547  -3.190  -0.171  0.00  0.00    +0.008 A 
ATOM     28  F   UNL     1       1.356  -6.617  -0.241  0.00  0.00    -0.205 F 
ENDBRANCH  20  22
ENDBRANCH   1  20
TORSDOF 4
