REMARK  Name = ZINC24729385
REMARK  5 active torsions:
REMARK  status: ('A' for Active; 'I' for Inactive)
REMARK    1  A    between atoms: C_4  and  C_7
REMARK    2  A    between atoms: C_7  and  C_8
REMARK    3  A    between atoms: C_8  and  C_10
REMARK    4  A    between atoms: C_8  and  N_20
REMARK    5  A    between atoms: C_21  and  C_23
REMARK                            x       y       z     vdW  Elec       q    Type
REMARK                         _______ _______ _______ _____ _____    ______ ____
ROOT
ATOM      1  C   UNL     1      -2.945   0.711   1.462  0.00  0.00    +0.143 C 
ENDROOT
BRANCH   1   2
ATOM      2  C   UNL     1      -4.299   0.049   1.467  0.00  0.00    +0.129 A 
ATOM      3  N   UNL     1      -4.586  -1.134   2.076  0.00  0.00    -0.340 N 
ATOM      4  H   UNL     1      -3.798  -1.680   2.616  0.00  0.00    +0.167 HD
ATOM      5  C   UNL     1      -5.923  -1.396   1.853  0.00  0.00    +0.066 A 
ATOM      6  C   UNL     1      -6.779  -2.428   2.214  0.00  0.00    +0.028 A 
ATOM      7  C   UNL     1      -8.099  -2.389   1.820  0.00  0.00    +0.002 A 
ATOM      8  C   UNL     1      -8.577  -1.327   1.065  0.00  0.00    +0.002 A 
ATOM      9  C   UNL     1      -7.749  -0.303   0.701  0.00  0.00    +0.030 A 
ATOM     10  C   UNL     1      -6.407  -0.321   1.089  0.00  0.00    +0.089 A 
ATOM     11  N   UNL     1      -5.364   0.527   0.894  0.00  0.00    -0.231 NA
ENDBRANCH   1   2
BRANCH   1  12
ATOM     12  N   UNL     1      -1.968  -0.170   2.108  0.00  0.00    -0.301 N 
ATOM     13  C   UNL     1      -0.861   0.351   2.672  0.00  0.00    +0.251 C 
ATOM     14  O   UNL     1      -0.672   1.553   2.646  0.00  0.00    -0.270 OA
ATOM     15  H   UNL     1      -2.139  -1.256   2.132  0.00  0.00    +0.150 HD
BRANCH  13  16
ATOM     16  C   UNL     1       0.116  -0.530   3.318  0.00  0.00    +0.075 A 
ATOM     17  C   UNL     1       1.305  -0.201   3.950  0.00  0.00    +0.022 A 
ATOM     18  C   UNL     1       2.040  -1.234   4.476  0.00  0.00    +0.024 A 
ATOM     19  C   UNL     1       1.576  -2.507   4.356  0.00  0.00    +0.056 A 
ATOM     20  S   UNL     1       0.080  -2.304   3.503  0.00  0.00    -0.077 S 
ATOM     21 BR   UNL     1       2.366  -4.108   4.977  0.00  0.00    -0.043 Br
ENDBRANCH  13  16
ENDBRANCH   1  12
BRANCH   1  22
ATOM     22  C   UNL     1      -2.514   0.980   0.019  0.00  0.00    +0.065 C 
BRANCH  22  26
ATOM     23  C   UNL     1       1.156   3.165   0.008  0.00  0.00    +0.000 A 
ATOM     24  C   UNL     1       1.175   1.783   0.000  0.00  0.00    +0.000 A 
ATOM     25  C   UNL     1      -0.013   1.076   0.008  0.00  0.00    +0.004 A 
ATOM     26  C   UNL     1      -1.219   1.751   0.017  0.00  0.00    -0.045 A 
ATOM     27  C   UNL     1      -1.238   3.133   0.030  0.00  0.00    +0.004 A 
ATOM     28  C   UNL     1      -0.050   3.840   0.022  0.00  0.00    +0.000 A 
ENDBRANCH  22  26
ENDBRANCH   1  22
TORSDOF 5
