REMARK  Name = ZINC05345223
REMARK  8 active torsions:
REMARK  status: ('A' for Active; 'I' for Inactive)
REMARK    1  A    between atoms: C_1  and  C_2
REMARK    2  A    between atoms: C_2  and  O_3
REMARK    3  A    between atoms: O_3  and  C_4
REMARK    4  A    between atoms: N_9  and  S_10
REMARK    5  A    between atoms: S_10  and  C_13
REMARK    6  A    between atoms: C_16  and  N_19
REMARK    7  A    between atoms: C_20  and  C_21
REMARK    8  A    between atoms: C_30  and  O_31
REMARK                            x       y       z     vdW  Elec       q    Type
REMARK                         _______ _______ _______ _____ _____    ______ ____
ROOT
ATOM      1  C   UNL     1      -7.322   1.051   0.080  0.00  0.00    +0.109 A 
ATOM      2  C   UNL     1      -7.103  -0.013  -0.776  0.00  0.00    +0.031 A 
ATOM      3  C   UNL     1      -5.877  -0.645  -0.797  0.00  0.00    +0.029 A 
ATOM      4  C   UNL     1      -4.855  -0.207   0.049  0.00  0.00    +0.064 A 
ATOM      5  C   UNL     1      -5.085   0.864   0.915  0.00  0.00    +0.029 A 
ATOM      6  C   UNL     1      -6.314   1.490   0.921  0.00  0.00    +0.031 A 
ENDROOT
BRANCH   1   7
ATOM      7  S   UNL     1      -8.891   1.852   0.100  0.00  0.00    +0.074 S 
ATOM      8  O   UNL     1      -8.671   3.165   0.596  0.00  0.00    -0.150 OA
ATOM      9  O   UNL     1      -9.489   1.606  -1.165  0.00  0.00    -0.150 OA
BRANCH   7  15
ATOM     10  C   UNL     1      -9.152   0.941   5.231  0.00  0.00    +0.278 A 
ATOM     11  N   UNL     1      -8.285   1.620   4.509  0.00  0.00    -0.102 NA
ATOM     12  N   UNL     1      -8.447   1.708   3.146  0.00  0.00    -0.121 NA
ATOM     13  C   UNL     1      -9.472   1.112   2.568  0.00  0.00    +0.204 A 
ATOM     14  S   UNL     1     -10.290   0.376   3.975  0.00  0.00    +0.008 S 
ATOM     15  N   UNL     1      -9.824   1.072   1.224  0.00  0.00    -0.192 N 
ATOM     16  H   UNL     1     -10.617   0.588   0.945  0.00  0.00    +0.176 HD
BRANCH  10  17
ATOM     17  O   UNL     1      -9.178   0.732   6.572  0.00  0.00    -0.471 OA
BRANCH  17  19
ATOM     18  C   UNL     1      -8.322   0.975   8.819  0.00  0.00    +0.048 C 
ATOM     19  C   UNL     1      -8.126   1.318   7.340  0.00  0.00    +0.228 C 
ENDBRANCH  17  19
ENDBRANCH  10  17
ENDBRANCH   7  15
ENDBRANCH   1   7
BRANCH   4  20
ATOM     20  N   UNL     1      -3.637  -0.829   0.034  0.00  0.00    -0.255 NA
ATOM     21  C   UNL     1      -2.541  -0.118   0.027  0.00  0.00    +0.123 C 
BRANCH  21  22
ATOM     22  C   UNL     1      -1.236  -0.784   0.010  0.00  0.00    +0.042 A 
ATOM     23  C   UNL     1       0.002  -0.004   0.002  0.00  0.00    -0.006 A 
ATOM     24  C   UNL     1      -0.017   1.395   0.010  0.00  0.00    +0.009 A 
ATOM     25  C   UNL     1       1.159   2.085   0.002  0.00  0.00    +0.001 A 
ATOM     26  C   UNL     1       2.380   1.416  -0.014  0.00  0.00    +0.001 A 
ATOM     27  C   UNL     1       2.434   0.055  -0.021  0.00  0.00    +0.008 A 
ATOM     28  C   UNL     1       1.242  -0.688  -0.013  0.00  0.00    -0.017 A 
ATOM     29  C   UNL     1       1.259  -2.094  -0.021  0.00  0.00    +0.012 A 
ATOM     30  C   UNL     1       0.101  -2.805  -0.013  0.00  0.00    +0.046 A 
ATOM     31  C   UNL     1      -1.146  -2.179   0.002  0.00  0.00    +0.126 A 
BRANCH  31  32
ATOM     32  O   UNL     1      -2.276  -2.928   0.009  0.00  0.00    -0.506 OA
ATOM     33  H   UNL     1      -2.612  -3.140  -0.872  0.00  0.00    +0.292 HD
ENDBRANCH  31  32
ENDBRANCH  21  22
ENDBRANCH   4  20
TORSDOF 7
