REMARK  Name = ZINC39775589
REMARK  8 active torsions:
REMARK  status: ('A' for Active; 'I' for Inactive)
REMARK    1  A    between atoms: C_1  and  C_2
REMARK    2  A    between atoms: C_2  and  O_3
REMARK    3  A    between atoms: O_3  and  C_4
REMARK    4  A    between atoms: C_9  and  C_16
REMARK    5  A    between atoms: C_17  and  C_18
REMARK    6  A    between atoms: C_18  and  C_20
REMARK    7  A    between atoms: C_21  and  C_37
REMARK    8  A    between atoms: C_29  and  C_30
REMARK                            x       y       z     vdW  Elec       q    Type
REMARK                         _______ _______ _______ _____ _____    ______ ____
ROOT
ATOM      1  C   UNL     1       4.175  -9.438  -2.436  0.00  0.00    +0.188 C 
ATOM      2  O   UNL     1       5.126  -8.968  -1.840  0.00  0.00    -0.287 OA
ENDROOT
BRANCH   1   3
ATOM      3  C   UNL     1       4.144 -10.876  -2.758  0.00  0.00    +0.051 A 
ATOM      4  C   UNL     1       4.786 -11.360  -3.911  0.00  0.00    +0.050 A 
ATOM      5  N   UNL     1       4.775 -12.630  -4.221  0.00  0.00    -0.251 NA
ATOM      6  C   UNL     1       4.155 -13.542  -3.461  0.00  0.00    +0.072 A 
ATOM      7  C   UNL     1       4.162 -14.901  -3.820  0.00  0.00    +0.030 A 
ATOM      8  C   UNL     1       3.527 -15.813  -3.034  0.00  0.00    +0.022 A 
ATOM      9  C   UNL     1       2.865 -15.422  -1.871  0.00  0.00    +0.042 A 
ATOM     10  C   UNL     1       2.837 -14.112  -1.492  0.00  0.00    +0.030 A 
ATOM     11  C   UNL     1       3.482 -13.148  -2.279  0.00  0.00    +0.010 A 
ATOM     12  C   UNL     1       3.480 -11.780  -1.913  0.00  0.00    +0.004 A 
ATOM     13 CL   UNL     1       2.066 -16.615  -0.896  0.00  0.00    -0.084 Cl
ATOM     14  C   UNL     1       5.503 -10.389  -4.813  0.00  0.00    +0.066 C 
BRANCH  12  15
ATOM     15  C   UNL     1       2.796 -11.318  -0.686  0.00  0.00    -0.017 A 
ATOM     16  C   UNL     1       3.534 -10.760   0.360  0.00  0.00    +0.008 A 
ATOM     17  C   UNL     1       2.889 -10.331   1.502  0.00  0.00    +0.001 A 
ATOM     18  C   UNL     1       1.515 -10.453   1.612  0.00  0.00    +0.000 A 
ATOM     19  C   UNL     1       0.778 -11.005   0.579  0.00  0.00    +0.001 A 
ATOM     20  C   UNL     1       1.409 -11.432  -0.571  0.00  0.00    +0.008 A 
ENDBRANCH  12  15
ENDBRANCH   1   3
BRANCH   1  22
ATOM     21  C   UNL     1       3.030  -7.297  -2.449  0.00  0.00    -0.006 C 
ATOM     22  C   UNL     1       3.055  -8.572  -2.833  0.00  0.00    +0.048 C 
BRANCH  21  28
ATOM     23  C   UNL     1       0.987  -1.794  -1.050  0.00  0.00    +0.122 A 
ATOM     24  C   UNL     1       0.450  -2.652  -0.079  0.00  0.00    +0.046 A 
ATOM     25  C   UNL     1       0.504  -3.998  -0.222  0.00  0.00    +0.013 A 
ATOM     26  C   UNL     1       1.138  -4.562  -1.416  0.00  0.00    -0.006 A 
ATOM     27  C   UNL     1       1.210  -5.909  -1.593  0.00  0.00    -0.001 C 
ATOM     28  C   UNL     1       1.882  -6.410  -2.857  0.00  0.00    +0.121 C 
ATOM     29  C   UNL     1       2.418  -5.373  -3.818  0.00  0.00    +0.228 C 
ATOM     30  O   UNL     1       2.966  -5.720  -4.848  0.00  0.00    -0.274 OA
ATOM     31  N   UNL     1       2.288  -4.089  -3.536  0.00  0.00    -0.284 N 
ATOM     32  C   UNL     1       1.697  -3.643  -2.425  0.00  0.00    +0.044 A 
ATOM     33  C   UNL     1       1.590  -2.265  -2.196  0.00  0.00    +0.069 A 
ATOM     34  H   UNL     1       2.638  -3.439  -4.166  0.00  0.00    +0.155 HD
BRANCH  23  35
ATOM     35  O   UNL     1       0.906  -0.456  -0.857  0.00  0.00    -0.492 OA
BRANCH  35  37
ATOM     36  C   UNL     1       0.276   1.519   0.386  0.00  0.00    +0.048 C 
ATOM     37  C   UNL     1       0.273  -0.011   0.344  0.00  0.00    +0.225 C 
ENDBRANCH  35  37
ENDBRANCH  23  35
ENDBRANCH  21  28
ENDBRANCH   1  22
TORSDOF 6
