REMARK  Name = ZINC12438520
REMARK  4 active torsions:
REMARK  status: ('A' for Active; 'I' for Inactive)
REMARK    1  A    between atoms: C_1  and  C_2
REMARK    2  A    between atoms: C_11  and  C_12
REMARK    3  A    between atoms: C_12  and  N_46
REMARK    4  A    between atoms: C_13  and  N_46
REMARK                            x       y       z     vdW  Elec       q    Type
REMARK                         _______ _______ _______ _____ _____    ______ ____
ROOT
ATOM      1  N   UNL     1      -1.342   0.024   2.906  0.00  0.00    +0.386 N 
ATOM      2  H   UNL     1      -1.950  -0.798   2.812  0.00  0.00    -0.085 HD
ATOM      3  H   UNL     1      -1.685   0.775   2.295  0.00  0.00    -0.085 HD
ENDROOT
BRANCH   1   4
ATOM      4  C   UNL     1      -1.365   0.488   4.306  0.00  0.00    -0.054 C 
ATOM      5  C   UNL     1      -2.573   1.406   4.513  0.00  0.00    -0.013 C 
ATOM      6  C   UNL     1      -2.632   1.836   5.981  0.00  0.00    +0.017 C 
ATOM      7  C   UNL     1      -2.709   0.592   6.869  0.00  0.00    +0.108 C 
ATOM      8  N   UNL     1      -1.531  -0.252   6.635  0.00  0.00    -0.301 N 
ATOM      9  C   UNL     1      -1.479  -0.716   5.243  0.00  0.00    +0.092 C 
ATOM     10  C   UNL     1      -1.503  -1.320   7.515  0.00  0.00    +0.218 A 
ATOM     11  N   UNL     1      -1.443  -2.553   7.034  0.00  0.00    -0.223 NA
ATOM     12  C   UNL     1      -1.409  -3.595   7.848  0.00  0.00    +0.116 A 
ATOM     13  C   UNL     1      -1.449  -3.385   9.218  0.00  0.00    +0.039 A 
ATOM     14  C   UNL     1      -1.518  -2.083   9.687  0.00  0.00    +0.116 A 
ATOM     15  N   UNL     1      -1.543  -1.085   8.819  0.00  0.00    -0.223 NA
ENDBRANCH   1   4
BRANCH   1  16
ATOM     16  C   UNL     1       0.031  -0.339   2.509  0.00  0.00    -0.028 C 
BRANCH  16  27
ATOM     17  C   UNL     1      -0.018   1.503   0.010  0.00  0.00    +0.046 C 
ATOM     18  C   UNL     1       0.002  -0.004   0.002  0.00  0.00    -0.024 A 
ATOM     19  C   UNL     1      -0.004  -0.869  -1.180  0.00  0.00    +0.004 A 
ATOM     20  C   UNL     1      -0.015  -0.631  -2.556  0.00  0.00    +0.030 A 
ATOM     21  C   UNL     1      -0.010  -1.686  -3.427  0.00  0.00    +0.042 A 
ATOM     22  C   UNL     1       0.012  -2.991  -2.953  0.00  0.00    +0.022 A 
ATOM     23  C   UNL     1       0.029  -3.247  -1.600  0.00  0.00    +0.027 A 
ATOM     24  C   UNL     1       0.024  -2.189  -0.696  0.00  0.00    +0.047 A 
ATOM     25  N   UNL     1       0.036  -2.117   0.679  0.00  0.00    -0.359 N 
ATOM     26  H   UNL     1       0.053  -2.881   1.277  0.00  0.00    +0.166 HD
ATOM     27  C   UNL     1       0.023  -0.808   1.077  0.00  0.00    +0.003 A 
ATOM     28 CL   UNL     1      -0.031  -1.390  -5.137  0.00  0.00    -0.084 Cl
ENDBRANCH  16  27
ENDBRANCH   1  16
TORSDOF 3
