REMARK  Name = ZINC64175188
REMARK  8 active torsions:
REMARK  status: ('A' for Active; 'I' for Inactive)
REMARK    1  A    between atoms: C_1  and  C_2
REMARK    2  A    between atoms: C_2  and  C_3
REMARK    3  A    between atoms: C_2  and  N_4
REMARK    4  A    between atoms: N_4  and  S_5
REMARK    5  A    between atoms: S_5  and  C_8
REMARK    6  A    between atoms: N_14  and  C_15
REMARK    7  A    between atoms: C_15  and  C_16
REMARK    8  A    between atoms: C_16  and  C_17
REMARK                            x       y       z     vdW  Elec       q    Type
REMARK                         _______ _______ _______ _____ _____    ______ ____
ROOT
ATOM      1  C   UNL     1      -0.878  -3.218  -0.043  0.00  0.00    +0.123 A 
ATOM      2  C   UNL     1       0.401  -3.555  -0.466  0.00  0.00    +0.033 A 
ATOM      3  C   UNL     1       1.051  -4.600   0.166  0.00  0.00    +0.045 A 
ATOM      4  C   UNL     1       0.406  -5.272   1.199  0.00  0.00    +0.119 A 
ATOM      5  N   UNL     1      -0.814  -4.920   1.574  0.00  0.00    -0.239 NA
ATOM      6  C   UNL     1      -1.456  -3.924   0.993  0.00  0.00    +0.141 A 
ATOM      7  N   UNL     1       1.048  -6.324   1.843  0.00  0.00    -0.329 N 
ATOM      8  H   UNL     1       0.602  -6.796   2.563  0.00  0.00    +0.147 HD
ENDROOT
BRANCH   1   9
ATOM      9  S   UNL     1      -1.750  -1.895  -0.814  0.00  0.00    +0.060 S 
ATOM     10  O   UNL     1      -3.133  -2.137  -0.591  0.00  0.00    -0.153 OA
ATOM     11  O   UNL     1      -1.202  -1.753  -2.117  0.00  0.00    -0.153 OA
BRANCH   9  12
ATOM     12  N   UNL     1      -1.372  -0.511   0.012  0.00  0.00    -0.187 NA
ATOM     13  H   UNL     1      -2.061  -0.036   0.503  0.00  0.00    +0.148 HD
BRANCH  12  15
ATOM     14  C   UNL     1      -0.019   1.526   0.010  0.00  0.00    +0.025 C 
ATOM     15  C   UNL     1       0.002  -0.004   0.002  0.00  0.00    +0.070 C 
ATOM     16  C   UNL     1       0.742  -0.511   1.242  0.00  0.00    +0.025 C 
ENDBRANCH  12  15
ENDBRANCH   9  12
ENDBRANCH   1   9
BRANCH   7  17
ATOM     17  C   UNL     1       2.397  -6.720   1.433  0.00  0.00    +0.107 C 
BRANCH  17  18
ATOM     18  C   UNL     1       2.869  -7.893   2.294  0.00  0.00    +0.052 C 
BRANCH  18  19
ATOM     19  C   UNL     1       4.257  -8.300   1.873  0.00  0.00    -0.040 C 
ATOM     20  C   UNL     1       5.425  -7.900   2.426  0.00  0.00    -0.001 A 
ATOM     21  C   UNL     1       5.740  -7.000   3.542  0.00  0.00    +0.010 A 
ATOM     22  C   UNL     1       7.035  -6.790   3.870  0.00  0.00    +0.001 A 
ATOM     23  C   UNL     1       8.082  -7.408   3.171  0.00  0.00    +0.002 A 
ATOM     24  C   UNL     1       7.872  -8.247   2.135  0.00  0.00    +0.026 A 
ATOM     25  C   UNL     1       6.548  -8.540   1.705  0.00  0.00    +0.043 A 
ATOM     26  N   UNL     1       6.092  -9.306   0.743  0.00  0.00    -0.380 N 
ATOM     27  C   UNL     1       4.627  -9.243   0.750  0.00  0.00    +0.144 C 
ATOM     28  H   UNL     1       6.634  -9.830   0.132  0.00  0.00    +0.160 HD
ENDBRANCH  18  19
ENDBRANCH  17  18
ENDBRANCH   7  17
TORSDOF 6
