REMARK  Name = ZINC67129005
REMARK  7 active torsions:
REMARK  status: ('A' for Active; 'I' for Inactive)
REMARK    1  A    between atoms: C_4  and  C_7
REMARK    2  A    between atoms: C_7  and  C_9
REMARK    3  A    between atoms: C_7  and  N_16
REMARK    4  A    between atoms: C_17  and  C_19
REMARK    5  A    between atoms: C_19  and  N_20
REMARK    6  A    between atoms: C_22  and  O_30
REMARK    7  A    between atoms: C_25  and  C_27
REMARK                            x       y       z     vdW  Elec       q    Type
REMARK                         _______ _______ _______ _____ _____    ______ ____
ROOT
ATOM      1  N   UNL     1       3.630  -1.873   0.845  0.00  0.00    -0.306 N 
ATOM      2  C   UNL     1       3.871  -1.738   2.164  0.00  0.00    +0.197 C 
ATOM      3  O   UNL     1       4.155  -0.651   2.621  0.00  0.00    -0.278 OA
ATOM      4  H   UNL     1       3.403  -2.743   0.480  0.00  0.00    +0.150 HD
ENDROOT
BRANCH   1   5
ATOM      5  C   UNL     1       3.711  -0.707  -0.038  0.00  0.00    +0.133 C 
BRANCH   5   6
ATOM      6  C   UNL     1       4.014  -1.161  -1.442  0.00  0.00    -0.023 A 
ATOM      7  C   UNL     1       3.407  -2.294  -1.949  0.00  0.00    +0.007 A 
ATOM      8  C   UNL     1       3.684  -2.711  -3.237  0.00  0.00    +0.020 A 
ATOM      9  C   UNL     1       4.571  -1.993  -4.020  0.00  0.00    +0.041 A 
ATOM     10  C   UNL     1       5.179  -0.858  -3.513  0.00  0.00    +0.020 A 
ATOM     11  C   UNL     1       4.896  -0.440  -2.226  0.00  0.00    +0.007 A 
ATOM     12 CL   UNL     1       4.921  -2.516  -5.638  0.00  0.00    -0.084 Cl
ENDBRANCH   5   6
BRANCH   5  16
ATOM     13  C   UNL     1      -0.017   1.378   0.010  0.00  0.00    +0.000 A 
ATOM     14  C   UNL     1       1.171   2.086   0.002  0.00  0.00    +0.000 A 
ATOM     15  C   UNL     1       2.377   1.411  -0.013  0.00  0.00    +0.006 A 
ATOM     16  C   UNL     1       2.396   0.029  -0.020  0.00  0.00    -0.023 A 
ATOM     17  C   UNL     1       1.208  -0.679  -0.012  0.00  0.00    +0.006 A 
ATOM     18  C   UNL     1       0.002  -0.004   0.002  0.00  0.00    +0.000 A 
ENDBRANCH   5  16
ENDBRANCH   1   5
BRANCH   2  19
ATOM     19  C   UNL     1       3.788  -2.938   3.073  0.00  0.00    +0.020 C 
BRANCH  19  20
ATOM     20  N   UNL     1       4.090  -2.530   4.451  0.00  0.00    +0.395 N 
ATOM     21  C   UNL     1       3.009  -1.670   4.978  0.00  0.00    -0.045 C 
ATOM     22  C   UNL     1       2.855  -2.003   6.474  0.00  0.00    +0.097 C 
ATOM     23  C   UNL     1       3.889  -3.119   6.747  0.00  0.00    +0.023 C 
ATOM     24  C   UNL     1       4.131  -3.720   5.340  0.00  0.00    +0.022 C 
ATOM     25  H   UNL     1       4.972  -2.041   4.484  0.00  0.00    -0.080 HD
BRANCH  24  26
ATOM     26  C   UNL     1       5.480  -4.389   5.272  0.00  0.00    +0.197 C 
ATOM     27  O   UNL     1       6.346  -3.934   4.555  0.00  0.00    -0.278 OA
ATOM     28  N   UNL     1       5.723  -5.491   6.007  0.00  0.00    -0.331 N 
ATOM     29  H   UNL     1       5.030  -5.854   6.581  0.00  0.00    +0.145 HD
ATOM     30  H   UNL     1       6.591  -5.922   5.963  0.00  0.00    +0.145 HD
ENDBRANCH  24  26
BRANCH  22  31
ATOM     31  O   UNL     1       3.142  -0.852   7.270  0.00  0.00    -0.394 OA
ATOM     32  H   UNL     1       3.062  -1.002   8.222  0.00  0.00    +0.210 HD
ENDBRANCH  22  31
ENDBRANCH  19  20
ENDBRANCH   2  19
TORSDOF 7
