REMARK  Name = ZINC40365171
REMARK  5 active torsions:
REMARK  status: ('A' for Active; 'I' for Inactive)
REMARK    1  A    between atoms: C_1  and  C_2
REMARK    2  A    between atoms: C_2  and  C_3
REMARK    3  A    between atoms: C_3  and  C_5
REMARK    4  A    between atoms: C_3  and  N_8
REMARK    5  A    between atoms: C_5  and  N_7
REMARK                            x       y       z     vdW  Elec       q    Type
REMARK                         _______ _______ _______ _____ _____    ______ ____
ROOT
ATOM      1  N   UNL     1       2.148  -0.104   1.172  0.00  0.00    -0.225 N 
ATOM      2  C   UNL     1       2.893  -0.521   0.131  0.00  0.00    +0.254 C 
ATOM      3  O   UNL     1       2.393  -1.224  -0.728  0.00  0.00    -0.270 OA
ATOM      4  C   UNL     1       4.307  -0.133   0.025  0.00  0.00    +0.046 A 
ATOM      5  C   UNL     1       5.110  -0.540  -1.030  0.00  0.00    +0.014 A 
ATOM      6  C   UNL     1       6.442  -0.147  -1.085  0.00  0.00    +0.001 A 
ATOM      7  C   UNL     1       6.996   0.641  -0.117  0.00  0.00    +0.008 A 
ATOM      8  C   UNL     1       6.216   1.076   0.968  0.00  0.00    -0.016 A 
ATOM      9  C   UNL     1       4.863   0.684   1.036  0.00  0.00    +0.006 A 
ATOM     10  C   UNL     1       4.053   1.104   2.115  0.00  0.00    +0.046 A 
ATOM     11  C   UNL     1       4.607   1.905   3.102  0.00  0.00    +0.014 A 
ATOM     12  C   UNL     1       5.942   2.285   3.024  0.00  0.00    +0.001 A 
ATOM     13  C   UNL     1       6.740   1.889   1.989  0.00  0.00    +0.008 A 
ATOM     14  C   UNL     1       2.645   0.679   2.148  0.00  0.00    +0.254 C 
ATOM     15  O   UNL     1       1.928   1.032   3.064  0.00  0.00    -0.270 OA
ENDROOT
BRANCH   1  16
ATOM     16  C   UNL     1       0.742  -0.511   1.242  0.00  0.00    +0.135 C 
BRANCH  16  18
ATOM     17  C   UNL     1      -0.019   1.526   0.010  0.00  0.00    +0.006 C 
ATOM     18  C   UNL     1       0.002  -0.004   0.002  0.00  0.00    +0.026 C 
ENDBRANCH  16  18
BRANCH  16  19
ATOM     19  C   UNL     1       0.657  -2.014   1.298  0.00  0.00    +0.067 C 
ATOM     20  S   UNL     1       1.983  -2.896   1.155  0.00  0.00    -0.039 S 
BRANCH  19  21
ATOM     21  N   UNL     1      -0.537  -2.616   1.468  0.00  0.00    -0.354 N 
ATOM     22  H   UNL     1      -1.342  -2.081   1.554  0.00  0.00    +0.143 HD
ATOM     23  H   UNL     1      -0.592  -3.583   1.504  0.00  0.00    +0.143 HD
ENDBRANCH  19  21
ENDBRANCH  16  19
ENDBRANCH   1  16
TORSDOF 4
