REMARK  Name = ZINC21233540
REMARK  9 active torsions:
REMARK  status: ('A' for Active; 'I' for Inactive)
REMARK    1  A    between atoms: C_1  and  C_2
REMARK    2  A    between atoms: C_11  and  N_31
REMARK    3  A    between atoms: C_13  and  S_15
REMARK    4  A    between atoms: S_15  and  C_16
REMARK    5  A    between atoms: C_16  and  C_18
REMARK    6  A    between atoms: C_16  and  C_19
REMARK    7  A    between atoms: N_21  and  C_22
REMARK    8  A    between atoms: C_25  and  C_28
REMARK    9  A    between atoms: C_28  and  C_30
REMARK                            x       y       z     vdW  Elec       q    Type
REMARK                         _______ _______ _______ _____ _____    ______ ____
ROOT
ATOM      1  C   UNL     1      -3.528  -4.744  -0.433  0.00  0.00    +0.008 C 
ATOM      2  C   UNL     1      -3.205  -3.255  -0.577  0.00  0.00    -0.009 C 
ATOM      3  C   UNL     1      -1.865  -2.949   0.099  0.00  0.00    +0.008 C 
ATOM      4  C   UNL     1      -1.418  -1.530  -0.253  0.00  0.00    +0.037 C 
ATOM      5  C   UNL     1      -2.554  -0.561   0.067  0.00  0.00    -0.025 A 
ATOM      6  C   UNL     1      -3.818  -1.007   0.215  0.00  0.00    -0.004 A 
ATOM      7  S   UNL     1      -4.780   0.438   0.571  0.00  0.00    -0.073 S 
ATOM      8  C   UNL     1      -3.480   1.644   0.519  0.00  0.00    +0.115 A 
ATOM      9  C   UNL     1      -2.335   0.878   0.226  0.00  0.00    +0.051 A 
ATOM     10  C   UNL     1      -1.118   1.608   0.124  0.00  0.00    +0.129 A 
ATOM     11  N   UNL     1      -1.132   2.918   0.309  0.00  0.00    -0.207 NA
ATOM     12  C   UNL     1      -2.252   3.580   0.577  0.00  0.00    +0.192 A 
ATOM     13  N   UNL     1      -3.414   2.951   0.684  0.00  0.00    -0.214 NA
ATOM     14  C   UNL     1      -4.300  -2.421   0.103  0.00  0.00    +0.046 C 
ENDROOT
BRANCH  10  15
ATOM     15  N   UNL     1       0.068   0.956  -0.161  0.00  0.00    -0.343 N 
ATOM     16  H   UNL     1       1.005   1.526  -0.238  0.00  0.00    +0.144 HD
ATOM     17  H   UNL     1       0.074  -0.134  -0.309  0.00  0.00    +0.144 HD
ENDBRANCH  10  15
BRANCH  12  18
ATOM     18  S   UNL     1      -2.189   5.327   0.801  0.00  0.00    -0.073 S 
BRANCH  18  19
ATOM     19  C   UNL     1      -0.420   5.614   0.547  0.00  0.00    +0.137 C 
ATOM     20  C   UNL     1       0.373   4.926   1.661  0.00  0.00    +0.029 C 
BRANCH  19  21
ATOM     21  C   UNL     1      -0.143   7.095   0.574  0.00  0.00    +0.230 C 
ATOM     22  O   UNL     1      -0.890   7.841   1.171  0.00  0.00    -0.274 OA
ATOM     23  N   UNL     1       0.935   7.590  -0.065  0.00  0.00    -0.285 N 
ATOM     24  H   UNL     1       1.571   6.925  -0.669  0.00  0.00    +0.155 HD
BRANCH  23  25
ATOM     25  C   UNL     1       1.246   8.944   0.038  0.00  0.00    +0.033 A 
ATOM     26  C   UNL     1       2.576   9.349   0.091  0.00  0.00    +0.024 A 
ATOM     27  C   UNL     1       2.887  10.681   0.188  0.00  0.00    +0.013 A 
ATOM     28  C   UNL     1       1.862  11.634   0.245  0.00  0.00    +0.017 A 
ATOM     29  C   UNL     1       0.524  11.221   0.197  0.00  0.00    +0.013 A 
ATOM     30  C   UNL     1       0.224   9.888   0.095  0.00  0.00    +0.024 A 
BRANCH  28  31
ATOM     31  C   UNL     1       2.189  13.061   0.354  0.00  0.00    +0.160 C 
ATOM     32  O   UNL     1       1.306  13.891   0.302  0.00  0.00    -0.292 OA
ATOM     33  C   UNL     1       3.621  13.495   0.531  0.00  0.00    +0.091 C 
ENDBRANCH  28  31
ENDBRANCH  23  25
ENDBRANCH  19  21
ENDBRANCH  18  19
ENDBRANCH  12  18
TORSDOF 6
