REMARK  Name = ZINC16673855
REMARK  6 active torsions:
REMARK  status: ('A' for Active; 'I' for Inactive)
REMARK    1  A    between atoms: C_1  and  C_2
REMARK    2  A    between atoms: C_6  and  S_10
REMARK    3  A    between atoms: C_7  and  C_8
REMARK    4  A    between atoms: S_10  and  C_11
REMARK    5  A    between atoms: C_11  and  C_12
REMARK    6  A    between atoms: N_18  and  C_19
REMARK                            x       y       z     vdW  Elec       q    Type
REMARK                         _______ _______ _______ _____ _____    ______ ____
ROOT
ATOM      1  C   UNL     1      -5.246   1.780   0.028  0.00  0.00    +0.146 A 
ATOM      2  N   UNL     1      -5.820   1.393  -1.098  0.00  0.00    -0.199 NA
ATOM      3  C   UNL     1      -7.058   0.906  -1.083  0.00  0.00    +0.217 A 
ATOM      4  N   UNL     1      -7.722   0.819   0.064  0.00  0.00    -0.181 NA
ATOM      5  C   UNL     1      -7.145   1.214   1.193  0.00  0.00    +0.224 A 
ATOM      6  N   UNL     1      -5.903   1.695   1.171  0.00  0.00    -0.198 NA
ATOM      7  N   UNL     1      -7.830   1.125   2.389  0.00  0.00    -0.284 N 
ATOM      8  N   UNL     1      -7.654   0.497  -2.259  0.00  0.00    -0.327 N 
ATOM      9  H   UNL     1      -7.382   1.337   3.222  0.00  0.00    +0.155 HD
ATOM     10  H   UNL     1      -8.559   0.146  -2.248  0.00  0.00    +0.145 HD
ATOM     11  H   UNL     1      -7.169   0.561  -3.096  0.00  0.00    +0.145 HD
ENDROOT
BRANCH   7  12
ATOM     12  C   UNL     1      -9.173   0.729   2.398  0.00  0.00    +0.034 A 
ATOM     13  C   UNL     1     -10.007   1.075   1.343  0.00  0.00    +0.026 A 
ATOM     14  C   UNL     1     -11.330   0.678   1.351  0.00  0.00    +0.040 A 
ATOM     15  C   UNL     1     -11.828  -0.054   2.416  0.00  0.00    +0.124 A 
ATOM     16  C   UNL     1     -10.999  -0.395   3.471  0.00  0.00    +0.040 A 
ATOM     17  C   UNL     1      -9.674  -0.006   3.464  0.00  0.00    +0.026 A 
ATOM     18  F   UNL     1     -13.123  -0.437   2.424  0.00  0.00    -0.205 F 
ENDBRANCH   7  12
BRANCH   1  19
ATOM     19  C   UNL     1      -3.841   2.324   0.007  0.00  0.00    +0.152 C 
BRANCH  19  20
ATOM     20  S   UNL     1      -2.665   0.968   0.235  0.00  0.00    -0.097 S 
BRANCH  20  26
ATOM     21  C   UNL     1       2.597   1.235   0.384  0.00  0.00    +0.045 C 
ATOM     22  C   UNL     1       1.261   1.918   0.248  0.00  0.00    -0.026 A 
ATOM     23  C   UNL     1       1.182   3.288   0.060  0.00  0.00    -0.022 A 
ATOM     24  C   UNL     1      -0.056   3.893  -0.062  0.00  0.00    +0.046 A 
ATOM     25  N   UNL     1      -1.167   3.175  -0.001  0.00  0.00    -0.244 NA
ATOM     26  C   UNL     1      -1.149   1.864   0.171  0.00  0.00    +0.115 A 
ATOM     27  C   UNL     1       0.073   1.182   0.310  0.00  0.00    +0.087 A 
ATOM     28  C   UNL     1       0.126   5.385  -0.258  0.00  0.00    +0.056 C 
ATOM     29  C   UNL     1       1.599   5.561  -0.681  0.00  0.00    +0.011 C 
ATOM     30  C   UNL     1       2.276   4.328  -0.047  0.00  0.00    +0.037 C 
BRANCH  27  31
ATOM     31  C   UNL     1       0.101  -0.237   0.504  0.00  0.00    +0.102 C 
ATOM     32  N   UNL     1       0.123  -1.362   0.657  0.00  0.00    -0.191 NA
ENDBRANCH  27  31
ENDBRANCH  20  26
ENDBRANCH  19  20
ENDBRANCH   1  19
TORSDOF 5
