REMARK  Name = ZINC63515589
REMARK  5 active torsions:
REMARK  status: ('A' for Active; 'I' for Inactive)
REMARK    1  A    between atoms: C_1  and  C_2
REMARK    2  A    between atoms: C_2  and  O_24
REMARK    3  A    between atoms: N_12  and  C_13
REMARK    4  A    between atoms: C_13  and  C_14
REMARK    5  A    between atoms: C_14  and  C_15
REMARK                            x       y       z     vdW  Elec       q    Type
REMARK                         _______ _______ _______ _____ _____    ______ ____
ROOT
ATOM      1  C   UNL     1      -0.019   1.526   0.010  0.00  0.00    +0.068 C 
ATOM      2  C   UNL     1       0.002  -0.004   0.002  0.00  0.00    +0.175 C 
ATOM      3  C   UNL     1      -1.421  -0.574   0.160  0.00  0.00    +0.160 C 
ATOM      4  C   UNL     1      -2.455   0.446  -0.295  0.00  0.00    +0.053 C 
ATOM      5  C   UNL     1      -3.861  -0.129  -0.106  0.00  0.00    +0.004 C 
ATOM      6  C   UNL     1      -3.995  -1.420  -0.915  0.00  0.00    +0.000 C 
ATOM      7  C   UNL     1      -2.969  -2.442  -0.422  0.00  0.00    +0.004 C 
ATOM      8  C   UNL     1      -1.558  -1.879  -0.613  0.00  0.00    +0.053 C 
ATOM      9  O   UNL     1      -1.515  -0.804   1.572  0.00  0.00    -0.439 OA
ATOM     10  C   UNL     1      -0.269  -0.984   2.046  0.00  0.00    +0.406 C 
ATOM     11  O   UNL     1      -0.026  -1.501   3.118  0.00  0.00    -0.226 OA
ATOM     12  N   UNL     1       0.680  -0.529   1.205  0.00  0.00    -0.235 N 
ENDROOT
BRANCH   2  13
ATOM     13  O   UNL     1       0.621  -0.497  -1.188  0.00  0.00    -0.368 OA
ATOM     14  H   UNL     1       1.534  -0.202  -1.308  0.00  0.00    +0.212 HD
ENDBRANCH   2  13
BRANCH  12  15
ATOM     15  C   UNL     1       2.126  -0.552   1.441  0.00  0.00    +0.118 C 
BRANCH  15  16
ATOM     16  C   UNL     1       2.550   0.743   2.137  0.00  0.00    +0.052 C 
BRANCH  16  17
ATOM     17  C   UNL     1       4.037   0.720   2.380  0.00  0.00    -0.040 C 
ATOM     18  C   UNL     1       4.997   1.259   1.595  0.00  0.00    -0.001 A 
ATOM     19  C   UNL     1       4.947   1.998   0.328  0.00  0.00    +0.010 A 
ATOM     20  C   UNL     1       6.104   2.419  -0.232  0.00  0.00    +0.001 A 
ATOM     21  C   UNL     1       7.347   2.168   0.366  0.00  0.00    +0.002 A 
ATOM     22  C   UNL     1       7.473   1.495   1.529  0.00  0.00    +0.026 A 
ATOM     23  C   UNL     1       6.322   1.006   2.206  0.00  0.00    +0.043 A 
ATOM     24  N   UNL     1       6.185   0.338   3.325  0.00  0.00    -0.380 N 
ATOM     25  C   UNL     1       4.757   0.095   3.554  0.00  0.00    +0.144 C 
ATOM     26  H   UNL     1       6.908   0.054   3.907  0.00  0.00    +0.160 HD
ENDBRANCH  16  17
ENDBRANCH  15  16
ENDBRANCH  12  15
TORSDOF 4
