REMARK  Name = ZINC43247576
REMARK  6 active torsions:
REMARK  status: ('A' for Active; 'I' for Inactive)
REMARK    1  A    between atoms: C_1  and  C_2
REMARK    2  A    between atoms: C_6  and  C_7
REMARK    3  A    between atoms: C_7  and  C_9
REMARK    4  A    between atoms: C_7  and  N_13
REMARK    5  A    between atoms: C_9  and  C_11
REMARK    6  A    between atoms: C_9  and  N_12
REMARK                            x       y       z     vdW  Elec       q    Type
REMARK                         _______ _______ _______ _____ _____    ______ ____
ROOT
ATOM      1  C   UNL     1       0.020  -0.180   2.590  0.00  0.00    +0.079 C 
ENDROOT
BRANCH   1   2
ATOM      2  N   UNL     1       0.927  -1.041   3.361  0.00  0.00    -0.294 NA
ATOM      3  C   UNL     1       0.757  -0.825   4.804  0.00  0.00    +0.104 C 
ATOM      4  C   UNL     1       1.583  -1.862   5.572  0.00  0.00    +0.122 C 
ATOM      5  N   UNL     1       2.973  -1.801   5.093  0.00  0.00    -0.307 N 
ATOM      6  C   UNL     1       3.212  -1.873   3.644  0.00  0.00    +0.122 C 
ATOM      7  C   UNL     1       2.322  -0.836   2.951  0.00  0.00    +0.104 C 
ATOM      8  C   UNL     1       4.028  -1.679   5.984  0.00  0.00    +0.161 A 
ATOM      9  N   UNL     1       3.985  -1.608   7.297  0.00  0.00    -0.233 NA
ATOM     10  C   UNL     1       5.092  -1.493   8.010  0.00  0.00    +0.120 A 
ATOM     11  C   UNL     1       6.262  -1.452   7.329  0.00  0.00    +0.068 A 
ATOM     12  S   UNL     1       5.675  -1.593   5.648  0.00  0.00    -0.061 S 
ENDBRANCH   1   2
BRANCH   1  18
ATOM     13  C   UNL     1       0.261   1.960   0.399  0.00  0.00    +0.044 C 
ATOM     14  C   UNL     1       0.344   0.483   0.112  0.00  0.00    -0.039 A 
ATOM     15  C   UNL     1       0.542   0.029  -1.178  0.00  0.00    +0.011 A 
ATOM     16  C   UNL     1       0.612  -1.306  -1.402  0.00  0.00    +0.046 A 
ATOM     17  S   UNL     1       0.394  -1.968   0.242  0.00  0.00    -0.100 S 
ATOM     18  C   UNL     1       0.231  -0.420   1.117  0.00  0.00    +0.008 A 
ENDBRANCH   1  18
BRANCH   1  19
ATOM     19  C   UNL     1      -1.429  -0.507   2.957  0.00  0.00    -0.056 C 
ATOM     20  C   UNL     1      -1.680  -2.003   2.760  0.00  0.00    -0.012 C 
BRANCH  19  21
ATOM     21  N   UNL     1      -2.338   0.260   2.095  0.00  0.00    +0.381 N 
ATOM     22  H   UNL     1      -2.233  -0.046   1.140  0.00  0.00    -0.090 HD
ATOM     23  H   UNL     1      -3.290   0.111   2.394  0.00  0.00    -0.090 HD
ATOM     24  H   UNL     1      -2.115   1.242   2.161  0.00  0.00    -0.090 HD
ENDBRANCH  19  21
ENDBRANCH   1  19
TORSDOF 4
