REMARK  Name = ZINC19891090
REMARK  4 active torsions:
REMARK  status: ('A' for Active; 'I' for Inactive)
REMARK    1  A    between atoms: C_5  and  N_7
REMARK    2  A    between atoms: N_10  and  C_13
REMARK    3  A    between atoms: C_13  and  C_14
REMARK    4  A    between atoms: N_20  and  C_21
REMARK                            x       y       z     vdW  Elec       q    Type
REMARK                         _______ _______ _______ _____ _____    ______ ____
ROOT
ATOM      1  C   UNL     1      -3.456   1.850   0.183  0.00  0.00    +0.120 A 
ATOM      2  N   UNL     1      -3.389   3.168   0.114  0.00  0.00    -0.202 NA
ATOM      3  C   UNL     1      -2.208   3.772   0.010  0.00  0.00    +0.217 A 
ATOM      4  N   UNL     1      -1.095   3.048  -0.025  0.00  0.00    -0.181 NA
ATOM      5  C   UNL     1      -1.166   1.723   0.044  0.00  0.00    +0.224 A 
ATOM      6  N   UNL     1      -2.352   1.126   0.143  0.00  0.00    -0.201 NA
ATOM      7  N   UNL     1      -0.011   0.966   0.007  0.00  0.00    -0.284 N 
ATOM      8  N   UNL     1      -2.139   5.149  -0.061  0.00  0.00    -0.327 N 
ATOM      9  H   UNL     1      -0.062  -0.123   0.158  0.00  0.00    +0.155 HD
ATOM     10  H   UNL     1      -1.163   5.647  -0.148  0.00  0.00    +0.145 HD
ATOM     11  H   UNL     1      -3.062   5.747  -0.032  0.00  0.00    +0.145 HD
ENDROOT
BRANCH   7  12
ATOM     12  C   UNL     1       1.223   1.583  -0.221  0.00  0.00    +0.034 A 
ATOM     13  C   UNL     1       1.315   2.648  -1.107  0.00  0.00    +0.025 A 
ATOM     14  C   UNL     1       2.534   3.260  -1.326  0.00  0.00    +0.022 A 
ATOM     15  C   UNL     1       3.666   2.804  -0.673  0.00  0.00    +0.041 A 
ATOM     16  C   UNL     1       3.578   1.739   0.206  0.00  0.00    +0.022 A 
ATOM     17  C   UNL     1       2.360   1.128   0.434  0.00  0.00    +0.025 A 
ATOM     18 CL   UNL     1       5.197   3.570  -0.956  0.00  0.00    -0.084 Cl
ENDBRANCH   7  12
BRANCH   1  19
ATOM     19  C   UNL     1      -4.796   1.171   0.301  0.00  0.00    -0.001 C 
BRANCH  19  23
ATOM     20  N   UNL     1      -7.271   0.915  -3.113  0.00  0.00    -0.331 N 
ATOM     21  C   UNL     1      -6.967  -0.327  -2.388  0.00  0.00    +0.086 C 
ATOM     22  C   UNL     1      -6.502   0.014  -0.971  0.00  0.00    -0.059 C 
ATOM     23  N   UNL     1      -5.319   0.882  -1.041  0.00  0.00    +0.386 N 
ATOM     24  C   UNL     1      -5.622   2.124  -1.766  0.00  0.00    -0.059 C 
ATOM     25  C   UNL     1      -6.088   1.783  -3.184  0.00  0.00    +0.086 C 
ATOM     26  H   UNL     1      -4.537   0.346  -1.599  0.00  0.00    -0.081 HD
BRANCH  20  31
ATOM     27  C   UNL     1      -9.421  -0.371  -5.804  0.00  0.00    +0.002 A 
ATOM     28  C   UNL     1      -8.753   0.096  -6.920  0.00  0.00    +0.003 A 
ATOM     29  C   UNL     1      -7.593   0.835  -6.777  0.00  0.00    +0.040 A 
ATOM     30  C   UNL     1      -7.098   1.109  -5.516  0.00  0.00    +0.144 A 
ATOM     31  C   UNL     1      -7.769   0.641  -4.391  0.00  0.00    +0.065 A 
ATOM     32  C   UNL     1      -8.930  -0.105  -4.540  0.00  0.00    +0.026 A 
ATOM     33  F   UNL     1      -5.964   1.830  -5.376  0.00  0.00    -0.204 F 
ENDBRANCH  20  31
ENDBRANCH  19  23
ENDBRANCH   1  19
TORSDOF 4
