REMARK  Name = ZINC43090229
REMARK  8 active torsions:
REMARK  status: ('A' for Active; 'I' for Inactive)
REMARK    1  A    between atoms: C_1  and  C_2
REMARK    2  A    between atoms: C_2  and  C_3
REMARK    3  A    between atoms: C_3  and  C_5
REMARK    4  A    between atoms: C_3  and  N_22
REMARK    5  A    between atoms: C_5  and  C_7
REMARK    6  A    between atoms: C_5  and  S_14
REMARK    7  A    between atoms: S_14  and  C_15
REMARK    8  A    between atoms: C_18  and  C_21
REMARK                            x       y       z     vdW  Elec       q    Type
REMARK                         _______ _______ _______ _____ _____    ______ ____
ROOT
ATOM      1  C   UNL     1       0.713  -1.902  -1.355  0.00  0.00    +0.071 C 
ENDROOT
BRANCH   1   2
ATOM      2  C   UNL     1      -0.717  -2.374  -1.309  0.00  0.00    -0.017 A 
ATOM      3  C   UNL     1      -1.390  -2.656  -2.483  0.00  0.00    +0.006 A 
ATOM      4  C   UNL     1      -2.702  -3.090  -2.441  0.00  0.00    +0.000 A 
ATOM      5  C   UNL     1      -3.342  -3.241  -1.224  0.00  0.00    +0.001 A 
ATOM      6  C   UNL     1      -2.670  -2.959  -0.050  0.00  0.00    +0.020 A 
ATOM      7  C   UNL     1      -1.355  -2.531  -0.091  0.00  0.00    +0.045 A 
ATOM      8 CL   UNL     1      -0.508  -2.183   1.383  0.00  0.00    -0.083 Cl
ENDBRANCH   1   2
BRANCH   1   9
ATOM      9  C   UNL     1       0.747  -0.373  -1.307  0.00  0.00    -0.057 C 
BRANCH   9  10
ATOM     10  N   UNL     1       0.080   0.093  -0.084  0.00  0.00    +0.381 N 
ATOM     11  H   UNL     1      -0.874  -0.237  -0.075  0.00  0.00    -0.090 HD
ATOM     12  H   UNL     1       0.568  -0.265   0.723  0.00  0.00    -0.090 HD
ATOM     13  H   UNL     1       0.086   1.102  -0.061  0.00  0.00    -0.090 HD
ENDBRANCH   9  10
BRANCH   9  15
ATOM     14  C   UNL     1       0.164   1.716  -2.548  0.00  0.00    +0.002 C 
ATOM     15  C   UNL     1       0.023   0.193  -2.530  0.00  0.00    -0.018 C 
ENDBRANCH   9  15
ENDBRANCH   1   9
BRANCH   1  16
ATOM     16  S   UNL     1       1.490  -2.475  -2.891  0.00  0.00    -0.080 S 
BRANCH  16  17
ATOM     17  C   UNL     1       3.188  -2.044  -2.697  0.00  0.00    +0.185 A 
ATOM     18  N   UNL     1       3.707  -1.373  -1.690  0.00  0.00    -0.206 NA
ATOM     19  H   UNL     1       4.113  -2.841  -4.383  0.00  0.00    +0.191 HD
ATOM     20  C   UNL     1       5.020  -1.231  -1.875  0.00  0.00    +0.149 A 
ATOM     21  N   UNL     1       5.359  -1.805  -2.998  0.00  0.00    -0.157 NA
ATOM     22  N   UNL     1       4.188  -2.348  -3.551  0.00  0.00    -0.254 N 
ATOM     23  C   UNL     1       5.962  -0.519  -0.938  0.00  0.00    +0.090 C 
ENDBRANCH  16  17
ENDBRANCH   1  16
TORSDOF 6
