REMARK  Name = ZINC24507837
REMARK  7 active torsions:
REMARK  status: ('A' for Active; 'I' for Inactive)
REMARK    1  A    between atoms: C_1  and  C_2
REMARK    2  A    between atoms: C_5  and  N_8
REMARK    3  A    between atoms: C_12  and  S_13
REMARK    4  A    between atoms: S_13  and  C_14
REMARK    5  A    between atoms: C_14  and  C_15
REMARK    6  A    between atoms: N_25  and  C_26
REMARK    7  A    between atoms: C_26  and  C_27
REMARK                            x       y       z     vdW  Elec       q    Type
REMARK                         _______ _______ _______ _____ _____    ______ ____
ROOT
ATOM      1  S   UNL     1      -3.167   0.293   3.896  0.00  0.00    -0.078 S 
ENDROOT
BRANCH   1   6
ATOM      2  N   UNL     1      -2.645   0.732   6.607  0.00  0.00    -0.259 N 
ATOM      3  C   UNL     1      -1.790   1.470   7.381  0.00  0.00    +0.225 A 
ATOM      4  N   UNL     1      -1.014   2.160   6.582  0.00  0.00    -0.112 NA
ATOM      5  N   UNL     1      -1.371   1.858   5.262  0.00  0.00    -0.120 NA
ATOM      6  C   UNL     1      -2.355   0.992   5.295  0.00  0.00    +0.198 A 
ATOM      7  N   UNL     1      -1.756   1.488   8.770  0.00  0.00    -0.299 N 
ATOM      8  C   UNL     1      -1.408   0.149   9.311  0.00  0.00    +0.108 C 
ATOM      9  C   UNL     1      -0.907   0.464  10.742  0.00  0.00    +0.020 C 
ATOM     10  C   UNL     1      -0.139   1.793  10.555  0.00  0.00    +0.020 C 
ATOM     11  C   UNL     1      -0.707   2.407   9.262  0.00  0.00    +0.108 C 
BRANCH   2  16
ATOM     12  C   UNL     1      -6.672  -2.789   8.505  0.00  0.00    +0.044 C 
ATOM     13  C   UNL     1      -5.603  -1.854   8.001  0.00  0.00    -0.050 A 
ATOM     14  C   UNL     1      -4.528  -2.355   7.289  0.00  0.00    +0.005 A 
ATOM     15  C   UNL     1      -3.547  -1.500   6.825  0.00  0.00    +0.026 A 
ATOM     16  C   UNL     1      -3.640  -0.138   7.076  0.00  0.00    +0.052 A 
ATOM     17  C   UNL     1      -4.717   0.361   7.796  0.00  0.00    +0.026 A 
ATOM     18  C   UNL     1      -5.698  -0.498   8.252  0.00  0.00    +0.005 A 
ENDBRANCH   2  16
ENDBRANCH   1   6
BRANCH   1  19
ATOM     19  C   UNL     1      -2.324   1.046   2.477  0.00  0.00    +0.151 C 
BRANCH  19  20
ATOM     20  C   UNL     1      -2.930   0.527   1.199  0.00  0.00    +0.124 A 
ATOM     21  N   UNL     1      -3.903  -0.329   1.282  0.00  0.00    -0.233 NA
ATOM     22  C   UNL     1      -4.497  -0.840   0.175  0.00  0.00    +0.078 A 
ATOM     23  C   UNL     1      -5.544  -1.760   0.263  0.00  0.00    +0.028 A 
ATOM     24  C   UNL     1      -6.118  -2.252  -0.887  0.00  0.00    +0.002 A 
ATOM     25  C   UNL     1      -5.669  -1.846  -2.137  0.00  0.00    +0.001 A 
ATOM     26  C   UNL     1      -4.638  -0.939  -2.250  0.00  0.00    +0.015 A 
ATOM     27  C   UNL     1      -4.043  -0.429  -1.098  0.00  0.00    +0.065 A 
ATOM     28  C   UNL     1      -2.943   0.545  -1.157  0.00  0.00    +0.262 A 
ATOM     29  O   UNL     1      -2.508   0.945  -2.221  0.00  0.00    -0.267 OA
ATOM     30  N   UNL     1      -2.430   0.977   0.019  0.00  0.00    -0.287 N 
BRANCH  30  31
ATOM     31  C   UNL     1      -1.330   1.944   0.019  0.00  0.00    +0.222 C 
BRANCH  31  32
ATOM     32  C   UNL     1      -0.014   1.209   0.009  0.00  0.00    +0.230 C 
ATOM     33  O   UNL     1       0.002  -0.004   0.002  0.00  0.00    -0.274 OA
ATOM     34  N   UNL     1       1.143   1.898   0.001  0.00  0.00    -0.328 N 
ATOM     35  H   UNL     1       2.103   1.361  -0.006  0.00  0.00    +0.145 HD
ATOM     36  H   UNL     1       1.129   2.998   0.003  0.00  0.00    +0.145 HD
ENDBRANCH  31  32
ENDBRANCH  30  31
ENDBRANCH  19  20
ENDBRANCH   1  19
TORSDOF 6
