REMARK  Name = ZINC02188052
REMARK  11 active torsions:
REMARK  status: ('A' for Active; 'I' for Inactive)
REMARK    1  A    between atoms: C_1  and  O_2
REMARK    2  A    between atoms: O_2  and  C_3
REMARK    3  A    between atoms: C_3  and  C_5
REMARK    4  A    between atoms: C_5  and  N_6
REMARK    5  A    between atoms: C_7  and  C_9
REMARK    6  A    between atoms: C_9  and  C_11
REMARK    7  A    between atoms: C_9  and  N_22
REMARK    8  A    between atoms: C_11  and  C_12
REMARK    9  A    between atoms: C_23  and  O_25
REMARK   10  A    between atoms: O_25  and  C_26
REMARK   11  A    between atoms: C_26  and  C_27
REMARK                            x       y       z     vdW  Elec       q    Type
REMARK                         _______ _______ _______ _____ _____    ______ ____
ROOT
ATOM      1  C   UNL     1      -0.172   1.201   4.824  0.00  0.00    +0.166 C 
ENDROOT
BRANCH   1   3
ATOM      2  N   UNL     1      -0.152   2.045   7.149  0.00  0.00    -0.303 N 
ATOM      3  C   UNL     1      -0.569   2.203   5.877  0.00  0.00    +0.234 C 
ATOM      4  O   UNL     1      -1.263   3.152   5.580  0.00  0.00    -0.274 OA
ATOM      5  H   UNL     1       0.403   1.286   7.387  0.00  0.00    +0.149 HD
BRANCH   2   6
ATOM      6  C   UNL     1      -0.538   3.019   8.173  0.00  0.00    +0.225 C 
BRANCH   6   7
ATOM      7  C   UNL     1       0.053   2.615   9.499  0.00  0.00    +0.324 C 
ATOM      8  O   UNL     1       0.727   1.616   9.581  0.00  0.00    -0.249 OA
BRANCH   7  10
ATOM      9  C   UNL     1       0.430   2.916  11.833  0.00  0.00    +0.280 C 
ATOM     10  O   UNL     1      -0.170   3.365  10.590  0.00  0.00    -0.467 OA
ENDBRANCH   7  10
ENDBRANCH   6   7
ENDBRANCH   2   6
ENDBRANCH   1   3
BRANCH   1  11
ATOM     11  N   UNL     1      -0.747   1.594   3.535  0.00  0.00    -0.269 N 
ATOM     12  C   UNL     1      -0.165   1.193   2.387  0.00  0.00    +0.401 C 
ATOM     13  O   UNL     1       0.837   0.505   2.422  0.00  0.00    -0.226 OA
ATOM     14  H   UNL     1      -1.546   2.143   3.507  0.00  0.00    +0.153 HD
BRANCH  12  15
ATOM     15  O   UNL     1      -0.692   1.554   1.203  0.00  0.00    -0.446 OA
BRANCH  15  16
ATOM     16  C   UNL     1      -0.013   1.086   0.008  0.00  0.00    +0.269 C 
BRANCH  16  17
ATOM     17  C   UNL     1      -0.742   1.585  -1.213  0.00  0.00    -0.010 A 
ATOM     18  C   UNL     1      -1.750   0.825  -1.775  0.00  0.00    +0.007 A 
ATOM     19  C   UNL     1      -2.422   1.285  -2.892  0.00  0.00    +0.000 A 
ATOM     20  C   UNL     1      -2.079   2.501  -3.453  0.00  0.00    +0.000 A 
ATOM     21  C   UNL     1      -1.066   3.259  -2.894  0.00  0.00    +0.000 A 
ATOM     22  C   UNL     1      -0.398   2.801  -1.774  0.00  0.00    +0.007 A 
ENDBRANCH  16  17
ENDBRANCH  15  16
ENDBRANCH  12  15
ENDBRANCH   1  11
BRANCH   1  23
ATOM     23  C   UNL     1      -0.695  -0.183   5.215  0.00  0.00    +0.069 C 
BRANCH  23  24
ATOM     24  C   UNL     1      -0.195  -1.206   4.227  0.00  0.00    -0.020 A 
ATOM     25  C   UNL     1      -0.851  -1.661   3.148  0.00  0.00    +0.087 A 
ATOM     26  N   UNL     1      -0.082  -2.580   2.488  0.00  0.00    -0.360 N 
ATOM     27  H   UNL     1      -0.343  -3.046   1.678  0.00  0.00    +0.165 HD
ATOM     28  C   UNL     1       1.115  -2.750   3.148  0.00  0.00    +0.047 A 
ATOM     29  C   UNL     1       1.096  -1.896   4.266  0.00  0.00    +0.003 A 
ATOM     30  C   UNL     1       2.193  -1.855   5.129  0.00  0.00    +0.010 A 
ATOM     31  C   UNL     1       3.280  -2.646   4.883  0.00  0.00    +0.001 A 
ATOM     32  C   UNL     1       3.302  -3.491   3.782  0.00  0.00    +0.002 A 
ATOM     33  C   UNL     1       2.231  -3.546   2.917  0.00  0.00    +0.026 A 
ENDBRANCH  23  24
ENDBRANCH   1  23
TORSDOF 10
