REMARK  Name = ZINC00997662
REMARK  8 active torsions:
REMARK  status: ('A' for Active; 'I' for Inactive)
REMARK    1  A    between atoms: C_1  and  C_2
REMARK    2  A    between atoms: C_2  and  C_3
REMARK    3  A    between atoms: C_3  and  C_4
REMARK    4  A    between atoms: C_11  and  N_16
REMARK    5  A    between atoms: C_12  and  C_13
REMARK    6  A    between atoms: C_17  and  C_19
REMARK    7  A    between atoms: C_20  and  C_30
REMARK    8  A    between atoms: C_23  and  C_24
REMARK                            x       y       z     vdW  Elec       q    Type
REMARK                         _______ _______ _______ _____ _____    ______ ____
ROOT
ATOM      1  C   UNL     1       0.011   1.072   2.506  0.00  0.00    -0.006 C 
ATOM      2  C   UNL     1      -0.771   1.459   3.765  0.00  0.00    +0.008 C 
ATOM      3  C   UNL     1      -0.177   0.751   4.984  0.00  0.00    +0.037 C 
ATOM      4  C   UNL     1       1.322   1.020   5.026  0.00  0.00    -0.023 A 
ATOM      5  C   UNL     1       1.982   1.449   3.929  0.00  0.00    -0.004 A 
ATOM      6  S   UNL     1       3.665   1.620   4.451  0.00  0.00    -0.077 S 
ATOM      7  C   UNL     1       3.496   1.129   6.104  0.00  0.00    +0.085 A 
ATOM      8  C   UNL     1       2.142   0.844   6.213  0.00  0.00    +0.068 A 
ATOM      9  C   UNL     1       1.404   1.715   2.573  0.00  0.00    +0.046 C 
ENDROOT
BRANCH   8  10
ATOM     10  C   UNL     1       1.560   0.383   7.477  0.00  0.00    +0.244 C 
ATOM     11  O   UNL     1       1.507  -0.808   7.724  0.00  0.00    -0.270 OA
ATOM     12  N   UNL     1       1.085   1.278   8.366  0.00  0.00    -0.325 N 
ATOM     13  H   UNL     1       1.127   2.226   8.169  0.00  0.00    +0.145 HD
ATOM     14  H   UNL     1       0.701   0.972   9.203  0.00  0.00    +0.145 HD
ENDBRANCH   8  10
BRANCH   7  15
ATOM     15  N   UNL     1       4.475   1.041   7.081  0.00  0.00    -0.275 N 
ATOM     16  C   UNL     1       5.750   1.363   6.787  0.00  0.00    +0.254 C 
ATOM     17  O   UNL     1       6.042   1.730   5.665  0.00  0.00    -0.270 OA
ATOM     18  H   UNL     1       4.242   0.749   7.976  0.00  0.00    +0.156 HD
BRANCH  16  19
ATOM     19  C   UNL     1       6.791   1.270   7.825  0.00  0.00    +0.106 A 
ATOM     20  C   UNL     1       7.204   2.233   8.711  0.00  0.00    +0.147 A 
ATOM     21  O   UNL     1       8.167   1.680   9.452  0.00  0.00    -0.359 OA
ATOM     22  N   UNL     1       8.403   0.534   9.154  0.00  0.00    -0.077 NA
ATOM     23  C   UNL     1       7.644   0.114   8.174  0.00  0.00    +0.126 A 
ATOM     24  C   UNL     1       6.674   3.639   8.826  0.00  0.00    +0.090 C 
BRANCH  23  25
ATOM     25  C   UNL     1       7.642  -1.230   7.547  0.00  0.00    +0.004 A 
ATOM     26  C   UNL     1       6.447  -1.792   7.100  0.00  0.00    +0.010 A 
ATOM     27  C   UNL     1       6.452  -3.040   6.512  0.00  0.00    +0.001 A 
ATOM     28  C   UNL     1       7.638  -3.740   6.378  0.00  0.00    +0.000 A 
ATOM     29  C   UNL     1       8.826  -3.189   6.825  0.00  0.00    +0.001 A 
ATOM     30  C   UNL     1       8.834  -1.939   7.409  0.00  0.00    +0.010 A 
ENDBRANCH  23  25
ENDBRANCH  16  19
ENDBRANCH   7  15
BRANCH   1  31
ATOM     31  C   UNL     1      -0.729   1.579   1.267  0.00  0.00    +0.003 C 
BRANCH  31  33
ATOM     32  C   UNL     1      -0.753   1.593  -1.232  0.00  0.00    +0.004 C 
ATOM     33  C   UNL     1      -0.013   1.086   0.008  0.00  0.00    -0.003 C 
ENDBRANCH  31  33
ENDBRANCH   1  31
TORSDOF 6
