REMARK  Name = ZINC43217896
REMARK  10 active torsions:
REMARK  status: ('A' for Active; 'I' for Inactive)
REMARK    1  A    between atoms: C_1  and  C_2
REMARK    2  A    between atoms: C_2  and  C_3
REMARK    3  A    between atoms: C_3  and  C_4
REMARK    4  A    between atoms: C_4  and  C_6
REMARK    5  A    between atoms: C_4  and  N_28
REMARK    6  A    between atoms: C_8  and  C_11
REMARK    7  A    between atoms: N_13  and  C_14
REMARK    8  A    between atoms: C_22  and  C_24
REMARK    9  A    between atoms: C_25  and  C_26
REMARK   10  A    between atoms: C_25  and  C_27
REMARK                            x       y       z     vdW  Elec       q    Type
REMARK                         _______ _______ _______ _____ _____    ______ ____
ROOT
ATOM      1  C   UNL     1       4.460  -4.118   3.971  0.00  0.00    +0.266 C 
ATOM      2  O   UNL     1       4.749  -4.371   5.126  0.00  0.00    -0.268 OA
ATOM      3  N   UNL     1       5.358  -4.336   2.990  0.00  0.00    -0.307 N 
ATOM      4  H   UNL     1       5.128  -4.134   2.069  0.00  0.00    +0.149 HD
ENDROOT
BRANCH   3   5
ATOM      5  C   UNL     1       6.690  -4.881   3.315  0.00  0.00    +0.077 C 
ATOM      6  C   UNL     1       6.585  -6.398   3.419  0.00  0.00    +0.026 C 
ATOM      7  C   UNL     1       7.806  -7.116   2.845  0.00  0.00    -0.003 C 
ATOM      8  C   UNL     1       8.029  -6.749   1.363  0.00  0.00    +0.008 C 
ATOM      9  C   UNL     1       8.729  -5.494   1.941  0.00  0.00    -0.000 C 
ATOM     10  C   UNL     1       7.679  -4.428   2.249  0.00  0.00    +0.010 C 
ATOM     11  C   UNL     1       8.345  -3.109   2.655  0.00  0.00    +0.009 C 
ATOM     12  C   UNL     1       9.133  -6.392   3.111  0.00  0.00    -0.029 C 
ATOM     13  C   UNL     1      10.366  -7.267   2.807  0.00  0.00    +0.011 C 
ATOM     14  C   UNL     1       9.258  -5.736   4.482  0.00  0.00    +0.011 C 
ENDBRANCH   3   5
BRANCH   1  17
ATOM     15  C   UNL     1       1.456  -2.799   2.524  0.00  0.00    +0.182 A 
ATOM     16  N   UNL     1       2.671  -3.245   2.408  0.00  0.00    -0.210 NA
ATOM     17  C   UNL     1       3.130  -3.573   3.647  0.00  0.00    +0.163 A 
ATOM     18  C   UNL     1       2.129  -3.304   4.529  0.00  0.00    +0.230 A 
ATOM     19  O   UNL     1       1.099  -2.820   3.816  0.00  0.00    -0.449 OA
BRANCH  15  20
ATOM     20  C   UNL     1       0.588  -2.327   1.386  0.00  0.00    +0.013 C 
BRANCH  20  21
ATOM     21  N   UNL     1      -0.763  -2.884   1.538  0.00  0.00    +0.386 N 
ATOM     22  H   UNL     1      -1.345  -2.568   0.777  0.00  0.00    -0.089 HD
ATOM     23  H   UNL     1      -0.715  -3.892   1.529  0.00  0.00    -0.089 HD
ATOM     24  H   UNL     1      -1.158  -2.574   2.414  0.00  0.00    -0.089 HD
ENDBRANCH  20  21
BRANCH  20  25
ATOM     25  C   UNL     1       0.514  -0.799   1.400  0.00  0.00    -0.007 C 
BRANCH  25  27
ATOM     26  C   UNL     1      -0.337   1.214   0.189  0.00  0.00    +0.004 C 
ATOM     27  C   UNL     1      -0.263  -0.315   0.175  0.00  0.00    -0.005 C 
ENDBRANCH  25  27
ENDBRANCH  20  25
ENDBRANCH  15  20
ENDBRANCH   1  17
TORSDOF 6
