REMARK  Name = ZINC37427467
REMARK  9 active torsions:
REMARK  status: ('A' for Active; 'I' for Inactive)
REMARK    1  A    between atoms: C_1  and  C_2
REMARK    2  A    between atoms: C_2  and  N_3
REMARK    3  A    between atoms: N_3  and  C_4
REMARK    4  A    between atoms: C_4  and  C_5
REMARK    5  A    between atoms: C_15  and  C_17
REMARK    6  A    between atoms: N_26  and  C_27
REMARK    7  A    between atoms: C_27  and  C_28
REMARK    8  A    between atoms: C_27  and  C_29
REMARK    9  A    between atoms: C_27  and  C_30
REMARK                            x       y       z     vdW  Elec       q    Type
REMARK                         _______ _______ _______ _____ _____    ______ ____
ROOT
ATOM      1  C   UNL     1      -1.835  -2.158  -1.713  0.00  0.00    +0.234 C 
ATOM      2  O   UNL     1      -1.144  -2.881  -1.029  0.00  0.00    -0.274 OA
ATOM      3  N   UNL     1      -2.373  -2.626  -2.857  0.00  0.00    -0.286 N 
ATOM      4  C   UNL     1      -3.211  -1.766  -3.707  0.00  0.00    +0.130 C 
ATOM      5  C   UNL     1      -2.520  -1.564  -5.060  0.00  0.00    +0.140 C 
ATOM      6  N   UNL     1      -2.041  -2.859  -5.556  0.00  0.00    -0.347 N 
ATOM      7  C   UNL     1      -1.705  -3.170  -6.837  0.00  0.00    +0.086 A 
ATOM      8  C   UNL     1      -1.306  -4.459  -6.869  0.00  0.00    +0.019 A 
ATOM      9  C   UNL     1      -1.403  -4.965  -5.556  0.00  0.00    +0.025 A 
ATOM     10  C   UNL     1      -1.857  -3.969  -4.778  0.00  0.00    +0.044 A 
ATOM     11  C   UNL     1      -2.135  -4.013  -3.297  0.00  0.00    +0.155 C 
ENDROOT
BRANCH  11  12
ATOM     12  C   UNL     1      -3.357  -4.854  -3.032  0.00  0.00    -0.003 A 
ATOM     13  C   UNL     1      -4.245  -5.125  -4.056  0.00  0.00    +0.007 A 
ATOM     14  C   UNL     1      -5.366  -5.896  -3.813  0.00  0.00    +0.000 A 
ATOM     15  C   UNL     1      -5.600  -6.397  -2.546  0.00  0.00    +0.001 A 
ATOM     16  C   UNL     1      -4.713  -6.126  -1.521  0.00  0.00    +0.020 A 
ATOM     17  C   UNL     1      -3.588  -5.359  -1.765  0.00  0.00    +0.046 A 
ATOM     18 CL   UNL     1      -2.470  -5.024  -0.480  0.00  0.00    -0.083 Cl
ENDBRANCH  11  12
BRANCH   1  19
ATOM     19  C   UNL     1      -2.094  -0.736  -1.285  0.00  0.00    +0.205 C 
BRANCH  19  20
ATOM     20  N   UNL     1      -1.404  -0.475  -0.019  0.00  0.00    -0.277 N 
ATOM     21  C   UNL     1      -2.033  -0.703   1.151  0.00  0.00    +0.303 C 
ATOM     22  O   UNL     1      -3.173  -1.127   1.155  0.00  0.00    -0.253 OA
ATOM     23  N   UNL     1      -1.399  -0.462   2.315  0.00  0.00    -0.294 N 
ATOM     24  H   UNL     1      -0.490  -0.125   2.311  0.00  0.00    +0.151 HD
BRANCH  23  25
ATOM     25  C   UNL     1      -2.083  -0.711   3.587  0.00  0.00    +0.028 C 
ATOM     26  C   UNL     1      -2.472  -2.188   3.676  0.00  0.00    +0.031 C 
ATOM     27  C   UNL     1      -1.148  -0.359   4.746  0.00  0.00    +0.031 C 
ATOM     28  C   UNL     1      -3.342   0.154   3.666  0.00  0.00    +0.031 C 
ENDBRANCH  23  25
BRANCH  20  30
ATOM     29  C   UNL     1      -0.055   1.565  -0.033  0.00  0.00    +0.024 C 
ATOM     30  C   UNL     1      -0.031   0.035  -0.025  0.00  0.00    +0.106 C 
ENDBRANCH  20  30
ENDBRANCH  19  20
ENDBRANCH   1  19
TORSDOF 5
