REMARK  Name = ZINC42111004
REMARK  12 active torsions:
REMARK  status: ('A' for Active; 'I' for Inactive)
REMARK    1  A    between atoms: C_1  and  C_2
REMARK    2  A    between atoms: C_2  and  C_4
REMARK    3  A    between atoms: C_2  and  N_14
REMARK    4  A    between atoms: C_7  and  O_12
REMARK    5  A    between atoms: C_9  and  O_10
REMARK    6  A    between atoms: O_10  and  C_11
REMARK    7  A    between atoms: O_12  and  C_13
REMARK    8  A    between atoms: N_14  and  C_15
REMARK    9  A    between atoms: C_18  and  S_24
REMARK   10  A    between atoms: C_20  and  N_21
REMARK   11  A    between atoms: S_24  and  N_27
REMARK   12  A    between atoms: N_27  and  C_28
REMARK                            x       y       z     vdW  Elec       q    Type
REMARK                         _______ _______ _______ _____ _____    ______ ____
ROOT
ATOM      1  C   UNL     1      -0.284  -0.554   2.499  0.00  0.00    +0.058 A 
ATOM      2  C   UNL     1      -1.645  -0.410   2.261  0.00  0.00    +0.027 A 
ATOM      3  C   UNL     1      -2.548  -0.609   3.286  0.00  0.00    +0.030 A 
ATOM      4  C   UNL     1      -2.099  -0.952   4.548  0.00  0.00    +0.108 A 
ATOM      5  C   UNL     1      -0.745  -1.096   4.788  0.00  0.00    +0.063 A 
ATOM      6  C   UNL     1       0.163  -0.904   3.766  0.00  0.00    +0.149 A 
ENDROOT
BRANCH   6   7
ATOM      7  N   UNL     1       1.612  -1.065   4.023  0.00  0.00    +0.058 N 
ATOM      8  O   UNL     1       2.324  -1.560   3.180  0.00  0.00    -0.126 OA
ATOM      9  O   UNL     1       2.084  -0.700   5.075  0.00  0.00    -0.126 OA
ENDBRANCH   6   7
BRANCH   4  10
ATOM     10  S   UNL     1      -3.256  -1.206   5.853  0.00  0.00    +0.058 S 
ATOM     11  O   UNL     1      -2.552  -0.984   7.068  0.00  0.00    -0.153 OA
ATOM     12  O   UNL     1      -4.426  -0.477   5.507  0.00  0.00    -0.153 OA
BRANCH  10  13
ATOM     13  N   UNL     1      -3.673  -2.808   5.834  0.00  0.00    -0.193 NA
ATOM     14  C   UNL     1      -2.666  -3.831   6.128  0.00  0.00    +0.127 C 
ATOM     15  H   UNL     1      -4.584  -3.070   5.627  0.00  0.00    +0.148 HD
ENDBRANCH  10  13
ENDBRANCH   4  10
BRANCH   1  16
ATOM     16  N   UNL     1       0.633  -0.354   1.464  0.00  0.00    -0.335 N 
ATOM     17  H   UNL     1       1.581  -0.480   1.625  0.00  0.00    +0.147 HD
BRANCH  16  19
ATOM     18  C   UNL     1      -0.002   1.567   0.089  0.00  0.00    +0.033 C 
ATOM     19  C   UNL     1       0.162   0.046   0.136  0.00  0.00    +0.101 C 
BRANCH  19  20
ATOM     20  C   UNL     1       1.166  -0.382  -0.903  0.00  0.00    +0.014 A 
ATOM     21  C   UNL     1       2.502  -0.493  -0.568  0.00  0.00    +0.012 A 
ATOM     22  C   UNL     1       3.425  -0.886  -1.518  0.00  0.00    +0.046 A 
ATOM     23  C   UNL     1       3.012  -1.170  -2.813  0.00  0.00    +0.124 A 
ATOM     24  C   UNL     1       1.672  -1.059  -3.151  0.00  0.00    +0.091 A 
ATOM     25  C   UNL     1       0.747  -0.670  -2.195  0.00  0.00    +0.128 A 
BRANCH  25  26
ATOM     26  O   UNL     1      -0.567  -0.567  -2.522  0.00  0.00    -0.495 OA
ATOM     27  C   UNL     1      -0.927  -0.879  -3.870  0.00  0.00    +0.277 C 
ENDBRANCH  25  26
BRANCH  23  28
ATOM     28  O   UNL     1       3.920  -1.556  -3.747  0.00  0.00    -0.495 OA
ATOM     29  C   UNL     1       5.283  -1.648  -3.328  0.00  0.00    +0.277 C 
ENDBRANCH  23  28
ENDBRANCH  19  20
ENDBRANCH  16  19
ENDBRANCH   1  16
TORSDOF 8
