REMARK  Name = ZINC25540542
REMARK  2 active torsions:
REMARK  status: ('A' for Active; 'I' for Inactive)
REMARK    1  A    between atoms: C_4  and  C_7
REMARK    2  A    between atoms: C_8  and  C_35
REMARK                            x       y       z     vdW  Elec       q    Type
REMARK                         _______ _______ _______ _____ _____    ______ ____
ROOT
ATOM      1  C   UNL     1       3.736  -0.610  -0.088  0.00  0.00    -0.025 C 
ATOM      2  C   UNL     1       4.769  -0.729   0.758  0.00  0.00    -0.025 C 
ATOM      3  C   UNL     1       5.517  -1.797  -0.007  0.00  0.00    +0.101 C 
ATOM      4  C   UNL     1       4.356  -1.665  -0.977  0.00  0.00    +0.101 C 
ATOM      5  C   UNL     1       3.487  -2.873  -1.153  0.00  0.00    +0.146 C 
ATOM      6  O   UNL     1       2.671  -2.851  -2.076  0.00  0.00    -0.296 OA
ATOM      7  C   UNL     1       3.531  -4.100  -0.309  0.00  0.00    +0.079 C 
ATOM      8  C   UNL     1       4.658  -4.215   0.683  0.00  0.00    +0.079 C 
ATOM      9  C   UNL     1       5.632  -3.089   0.741  0.00  0.00    +0.146 C 
ATOM     10  O   UNL     1       6.619  -3.237   1.463  0.00  0.00    -0.296 OA
ATOM     11  C   UNL     1       4.133  -4.507   2.112  0.00  0.00    +0.060 C 
ATOM     12  C   UNL     1       3.288  -5.764   1.971  0.00  0.00    -0.035 A 
ATOM     13  C   UNL     1       3.491  -6.923   2.663  0.00  0.00    +0.004 A 
ATOM     14  C   UNL     1       2.636  -7.995   2.437  0.00  0.00    +0.000 A 
ATOM     15  C   UNL     1       1.601  -7.886   1.528  0.00  0.00    +0.000 A 
ATOM     16  C   UNL     1       1.401  -6.704   0.826  0.00  0.00    +0.004 A 
ATOM     17  C   UNL     1       2.244  -5.655   1.054  0.00  0.00    -0.035 A 
ATOM     18  C   UNL     1       2.152  -4.299   0.369  0.00  0.00    +0.060 C 
ATOM     19  C   UNL     1       2.096  -3.292   1.505  0.00  0.00    -0.035 A 
ATOM     20  C   UNL     1       3.140  -3.401   2.422  0.00  0.00    -0.035 A 
ATOM     21  C   UNL     1       3.212  -2.565   3.500  0.00  0.00    +0.004 A 
ATOM     22  C   UNL     1       2.224  -1.604   3.669  0.00  0.00    +0.000 A 
ATOM     23  C   UNL     1       1.188  -1.497   2.761  0.00  0.00    +0.000 A 
ATOM     24  C   UNL     1       1.121  -2.350   1.666  0.00  0.00    +0.004 A 
ENDROOT
BRANCH   1  28
ATOM     25  C   UNL     1       0.214   1.750  -0.252  0.00  0.00    +0.000 A 
ATOM     26  C   UNL     1       1.444   2.360  -0.077  0.00  0.00    +0.001 A 
ATOM     27  C   UNL     1       2.594   1.599  -0.023  0.00  0.00    +0.008 A 
ATOM     28  C   UNL     1       2.513   0.209  -0.144  0.00  0.00    -0.021 A 
ATOM     29  C   UNL     1       1.268  -0.400  -0.320  0.00  0.00    +0.008 A 
ATOM     30  C   UNL     1       0.127   0.374  -0.373  0.00  0.00    +0.001 A 
ENDBRANCH   1  28
BRANCH   2  31
ATOM     31  C   UNL     1       5.089  -0.038   2.019  0.00  0.00    -0.021 A 
ATOM     32  C   UNL     1       5.347  -0.775   3.178  0.00  0.00    +0.008 A 
ATOM     33  C   UNL     1       5.647  -0.122   4.355  0.00  0.00    +0.001 A 
ATOM     34  C   UNL     1       5.691   1.261   4.391  0.00  0.00    +0.000 A 
ATOM     35  C   UNL     1       5.436   1.998   3.247  0.00  0.00    +0.001 A 
ATOM     36  C   UNL     1       5.141   1.358   2.062  0.00  0.00    +0.008 A 
ENDBRANCH   2  31
TORSDOF 2
