REMARK  Name = ZINC55913213
REMARK  8 active torsions:
REMARK  status: ('A' for Active; 'I' for Inactive)
REMARK    1  A    between atoms: C_1  and  C_2
REMARK    2  A    between atoms: C_2  and  C_4
REMARK    3  A    between atoms: C_2  and  N_14
REMARK    4  A    between atoms: C_15  and  C_17
REMARK    5  A    between atoms: C_17  and  C_19
REMARK    6  A    between atoms: C_17  and  N_20
REMARK    7  A    between atoms: C_23  and  C_26
REMARK    8  A    between atoms: N_28  and  C_29
REMARK                            x       y       z     vdW  Elec       q    Type
REMARK                         _______ _______ _______ _____ _____    ______ ____
ROOT
ATOM      1  N   UNL     1       0.773  -1.141   0.966  0.00  0.00    -0.310 N 
ATOM      2  C   UNL     1       2.011  -0.726   1.296  0.00  0.00    +0.200 C 
ATOM      3  O   UNL     1       2.572   0.107   0.616  0.00  0.00    -0.278 OA
ATOM      4  H   UNL     1       0.324  -1.808   1.510  0.00  0.00    +0.149 HD
ENDROOT
BRANCH   1   6
ATOM      5  C   UNL     1      -0.648   0.686   0.178  0.00  0.00    +0.033 C 
ATOM      6  C   UNL     1       0.104  -0.588  -0.213  0.00  0.00    +0.101 C 
BRANCH   6   7
ATOM      7  C   UNL     1      -0.872  -1.599  -0.759  0.00  0.00    -0.020 A 
ATOM      8  C   UNL     1      -1.414  -2.539   0.063  0.00  0.00    +0.006 A 
ATOM      9  C   UNL     1      -2.317  -3.482  -0.424  0.00  0.00    +0.001 A 
ATOM     10  C   UNL     1      -2.683  -3.490  -1.735  0.00  0.00    +0.008 A 
ATOM     11  C   UNL     1      -2.144  -2.535  -2.613  0.00  0.00    -0.018 A 
ATOM     12  C   UNL     1      -1.230  -1.572  -2.117  0.00  0.00    -0.013 A 
ATOM     13  C   UNL     1      -0.696  -0.613  -2.995  0.00  0.00    +0.009 A 
ATOM     14  C   UNL     1      -1.067  -0.618  -4.304  0.00  0.00    +0.001 A 
ATOM     15  C   UNL     1      -1.970  -1.561  -4.791  0.00  0.00    +0.001 A 
ATOM     16  C   UNL     1      -2.498  -2.513  -3.973  0.00  0.00    +0.008 A 
ENDBRANCH   6   7
ENDBRANCH   1   6
BRANCH   2  17
ATOM     17  C   UNL     1       2.700  -1.296   2.509  0.00  0.00    +0.016 C 
ATOM     18  C   UNL     1       2.224  -0.555   3.761  0.00  0.00    -0.004 C 
BRANCH  17  19
ATOM     19  N   UNL     1       4.153  -1.135   2.368  0.00  0.00    +0.387 N 
ATOM     20  C   UNL     1       4.620  -1.910   1.212  0.00  0.00    -0.077 C 
ATOM     21  C   UNL     1       6.119  -1.682   1.012  0.00  0.00    -0.006 C 
ATOM     22  C   UNL     1       6.871  -2.134   2.268  0.00  0.00    +0.071 C 
ATOM     23  C   UNL     1       6.324  -1.372   3.479  0.00  0.00    -0.006 C 
ATOM     24  C   UNL     1       4.817  -1.612   3.588  0.00  0.00    -0.077 C 
ATOM     25  H   UNL     1       4.371  -0.160   2.227  0.00  0.00    -0.081 HD
BRANCH  22  26
ATOM     26  C   UNL     1       8.340  -1.840   2.109  0.00  0.00    +0.216 C 
ATOM     27  O   UNL     1       8.748  -1.321   1.092  0.00  0.00    -0.276 OA
ATOM     28  N   UNL     1       9.201  -2.155   3.097  0.00  0.00    -0.312 N 
ATOM     29  H   UNL     1       8.875  -2.570   3.911  0.00  0.00    +0.149 HD
BRANCH  28  30
ATOM     30  C   UNL     1      10.630  -1.869   2.943  0.00  0.00    +0.073 C 
ATOM     31  C   UNL     1      11.618  -2.953   3.379  0.00  0.00    +0.024 C 
ATOM     32  C   UNL     1      11.455  -1.683   4.218  0.00  0.00    +0.024 C 
ENDBRANCH  28  30
ENDBRANCH  22  26
ENDBRANCH  17  19
ENDBRANCH   2  17
TORSDOF 6
