REMARK  Name = ZINC05830599
REMARK  6 active torsions:
REMARK  status: ('A' for Active; 'I' for Inactive)
REMARK    1  A    between atoms: C_1  and  N_2
REMARK    2  A    between atoms: N_2  and  C_3
REMARK    3  A    between atoms: N_2  and  C_4
REMARK    4  A    between atoms: C_7  and  C_13
REMARK    5  A    between atoms: C_9  and  N_10
REMARK    6  A    between atoms: C_14  and  C_15
REMARK                            x       y       z     vdW  Elec       q    Type
REMARK                         _______ _______ _______ _____ _____    ______ ____
ROOT
ATOM      1  C   UNL     1       1.330  12.321   0.052  0.00  0.00    +0.060 A 
ATOM      2  C   UNL     1       2.375  11.401   0.038  0.00  0.00    +0.026 A 
ATOM      3  C   UNL     1       2.106  10.051   0.034  0.00  0.00    +0.010 A 
ATOM      4  C   UNL     1       0.780   9.604   0.045  0.00  0.00    -0.023 A 
ATOM      5  C   UNL     1      -0.267  10.531   0.055  0.00  0.00    +0.042 A 
ATOM      6  C   UNL     1       0.010  11.880   0.063  0.00  0.00    +0.148 A 
ENDROOT
BRANCH   1   8
ATOM      7  C   UNL     1       2.394  14.061   1.238  0.00  0.00    +0.129 C 
ATOM      8  N   UNL     1       1.607  13.686   0.056  0.00  0.00    -0.334 N 
ATOM      9  C   UNL     1       2.289  14.089  -1.181  0.00  0.00    +0.129 C 
ENDBRANCH   1   8
BRANCH   6  10
ATOM     10  N   UNL     1      -1.097  12.862   0.078  0.00  0.00    +0.058 N 
ATOM     11  O   UNL     1      -2.252  12.477   0.088  0.00  0.00    -0.126 OA
ATOM     12  O   UNL     1      -0.852  14.056   0.081  0.00  0.00    -0.126 OA
ENDBRANCH   6  10
BRANCH   4  13
ATOM     13  C   UNL     1       0.488   8.162   0.041  0.00  0.00    +0.010 C 
ATOM     14  C   UNL     1       1.498   7.270   0.026  0.00  0.00    +0.035 C 
BRANCH  14  15
ATOM     15  C   UNL     1       1.207   5.834   0.022  0.00  0.00    +0.102 A 
ATOM     16  N   UNL     1       0.036   5.225   0.030  0.00  0.00    -0.240 NA
ATOM     17  C   UNL     1      -0.083   3.890   0.024  0.00  0.00    +0.079 A 
ATOM     18  C   UNL     1      -1.271   3.119   0.032  0.00  0.00    +0.029 A 
ATOM     19  C   UNL     1      -1.220   1.760   0.017  0.00  0.00    +0.002 A 
ATOM     20  C   UNL     1      -0.013   1.076   0.008  0.00  0.00    +0.001 A 
ATOM     21  C   UNL     1       1.171   1.790   0.001  0.00  0.00    +0.017 A 
ATOM     22  C   UNL     1       1.132   3.163   0.008  0.00  0.00    +0.040 A 
ATOM     23  S   UNL     1       2.348   4.457   0.004  0.00  0.00    -0.068 S 
ENDBRANCH  14  15
ENDBRANCH   4  13
TORSDOF 4
