REMARK  Name = ZINC16953157
REMARK  6 active torsions:
REMARK  status: ('A' for Active; 'I' for Inactive)
REMARK    1  A    between atoms: C_4  and  C_7
REMARK    2  A    between atoms: C_9  and  C_32
REMARK    3  A    between atoms: C_11  and  C_25
REMARK    4  A    between atoms: C_11  and  O_31
REMARK    5  A    between atoms: C_12  and  O_24
REMARK    6  A    between atoms: C_15  and  O_23
REMARK                            x       y       z     vdW  Elec       q    Type
REMARK                         _______ _______ _______ _____ _____    ______ ____
ROOT
ATOM      1  C   UNL     1       2.715  -3.537   1.421  0.00  0.00    +0.039 C 
ATOM      2  C   UNL     1       1.540  -2.553   1.289  0.00  0.00    +0.066 C 
ATOM      3  C   UNL     1       1.464  -2.136  -0.186  0.00  0.00    +0.131 C 
ATOM      4  C   UNL     1       2.595  -2.861  -0.933  0.00  0.00    +0.130 C 
ATOM      5  C   UNL     1       3.579  -3.345   0.165  0.00  0.00    +0.069 C 
ATOM      6  C   UNL     1       4.493  -2.117   0.346  0.00  0.00    +0.152 C 
ATOM      7  C   UNL     1       4.473  -1.413  -0.995  0.00  0.00    -0.013 A 
ATOM      8  C   UNL     1       3.385  -1.843  -1.731  0.00  0.00    -0.007 A 
ATOM      9  C   UNL     1       3.168  -1.336  -3.001  0.00  0.00    +0.007 A 
ATOM     10  C   UNL     1       4.034  -0.400  -3.533  0.00  0.00    +0.000 A 
ATOM     11  C   UNL     1       5.120   0.032  -2.796  0.00  0.00    +0.000 A 
ATOM     12  C   UNL     1       5.339  -0.474  -1.529  0.00  0.00    +0.006 A 
ENDROOT
BRANCH   1  16
ATOM     13  C   UNL     1       4.994  -2.649   4.922  0.00  0.00    +0.000 A 
ATOM     14  C   UNL     1       3.713  -2.148   4.786  0.00  0.00    +0.000 A 
ATOM     15  C   UNL     1       2.975  -2.435   3.653  0.00  0.00    +0.004 A 
ATOM     16  C   UNL     1       3.519  -3.223   2.656  0.00  0.00    -0.043 A 
ATOM     17  C   UNL     1       4.798  -3.728   2.794  0.00  0.00    +0.004 A 
ATOM     18  C   UNL     1       5.538  -3.437   3.925  0.00  0.00    +0.000 A 
ENDBRANCH   1  16
BRANCH   3  19
ATOM     19  C   UNL     1       1.645  -0.644  -0.306  0.00  0.00    -0.012 A 
ATOM     20  C   UNL     1       1.078   0.038  -1.367  0.00  0.00    +0.006 A 
ATOM     21  C   UNL     1       1.244   1.406  -1.476  0.00  0.00    +0.000 A 
ATOM     22  C   UNL     1       1.976   2.092  -0.526  0.00  0.00    +0.000 A 
ATOM     23  C   UNL     1       2.545   1.409   0.534  0.00  0.00    +0.000 A 
ATOM     24  C   UNL     1       2.378   0.042   0.644  0.00  0.00    +0.006 A 
ENDBRANCH   3  19
BRANCH   2  25
ATOM     25  C   UNL     1       0.255  -3.226   1.698  0.00  0.00    -0.041 A 
ATOM     26  C   UNL     1      -0.160  -4.374   1.049  0.00  0.00    +0.004 A 
ATOM     27  C   UNL     1      -1.336  -4.994   1.427  0.00  0.00    +0.000 A 
ATOM     28  C   UNL     1      -2.102  -4.462   2.448  0.00  0.00    +0.000 A 
ATOM     29  C   UNL     1      -1.688  -3.311   3.093  0.00  0.00    +0.000 A 
ATOM     30  C   UNL     1      -0.510  -2.693   2.718  0.00  0.00    +0.004 A 
ENDBRANCH   2  25
BRANCH   6  31
ATOM     31  O   UNL     1       5.822  -2.531   0.670  0.00  0.00    -0.387 OA
ATOM     32  H   UNL     1       6.452  -1.802   0.750  0.00  0.00    +0.210 HD
ENDBRANCH   6  31
BRANCH   4  33
ATOM     33  O   UNL     1       2.103  -3.923  -1.752  0.00  0.00    -0.380 OA
ATOM     34  H   UNL     1       1.493  -3.635  -2.445  0.00  0.00    +0.211 HD
ENDBRANCH   4  33
BRANCH   3  35
ATOM     35  O   UNL     1       0.200  -2.516  -0.733  0.00  0.00    -0.380 OA
ATOM     36  H   UNL     1      -0.557  -2.095  -0.304  0.00  0.00    +0.211 HD
ENDBRANCH   3  35
TORSDOF 6
