REMARK  Name = ZINC20837659
REMARK  6 active torsions:
REMARK  status: ('A' for Active; 'I' for Inactive)
REMARK    1  A    between atoms: C_12  and  C_14
REMARK    2  A    between atoms: C_14  and  C_15
REMARK    3  A    between atoms: C_15  and  S_16
REMARK    4  A    between atoms: S_16  and  C_17
REMARK    5  A    between atoms: N_22  and  N_23
REMARK    6  A    between atoms: C_24  and  C_25
REMARK                            x       y       z     vdW  Elec       q    Type
REMARK                         _______ _______ _______ _____ _____    ______ ____
ROOT
ATOM      1  S   UNL     1      -0.888   1.685  -1.458  0.00  0.00    -0.084 S 
ENDROOT
BRANCH   1   2
ATOM      2  C   UNL     1       0.122   0.990  -2.724  0.00  0.00    +0.210 A 
ATOM      3  N   UNL     1      -0.072   1.122  -4.069  0.00  0.00    -0.186 NA
ATOM      4  C   UNL     1       0.924   0.437  -4.709  0.00  0.00    +0.232 A 
ATOM      5  N   UNL     1       1.700  -0.095  -3.796  0.00  0.00    -0.245 N 
ATOM      6  N   UNL     1       1.196   0.260  -2.538  0.00  0.00    -0.144 NA
ATOM      7  N   UNL     1       1.084   0.325  -6.082  0.00  0.00    -0.205 N 
ATOM      8  H   UNL     1       0.370   0.815  -6.761  0.00  0.00    +0.177 HD
ATOM      9  H   UNL     1       2.570  -0.698  -4.098  0.00  0.00    +0.192 HD
BRANCH   7  10
ATOM     10  N   UNL     1       2.155  -0.411  -6.605  0.00  0.00    -0.188 NA
ATOM     11  C   UNL     1       2.305  -0.516  -7.891  0.00  0.00    +0.138 C 
BRANCH  11  12
ATOM     12  C   UNL     1       3.432  -1.290  -8.441  0.00  0.00    -0.003 A 
ATOM     13  C   UNL     1       4.356  -1.917  -7.594  0.00  0.00    +0.029 A 
ATOM     14  C   UNL     1       5.392  -2.636  -8.152  0.00  0.00    +0.111 A 
ATOM     15  N   UNL     1       5.524  -2.729  -9.462  0.00  0.00    -0.263 NA
ATOM     16  C   UNL     1       4.680  -2.150 -10.295  0.00  0.00    +0.111 A 
ATOM     17  C   UNL     1       3.612  -1.416  -9.825  0.00  0.00    +0.029 A 
ENDBRANCH  11  12
ENDBRANCH   7  10
ENDBRANCH   1   2
BRANCH   1  18
ATOM     18  C   UNL     1      -0.013   1.086   0.008  0.00  0.00    +0.086 C 
BRANCH  18  19
ATOM     19  C   UNL     1      -0.729   1.579   1.267  0.00  0.00    +0.107 C 
BRANCH  19  31
ATOM     20  C   UNL     1       1.347   0.162   9.389  0.00  0.00    +0.017 A 
ATOM     21  C   UNL     1       0.486   0.753   8.501  0.00  0.00    +0.030 A 
ATOM     22  C   UNL     1       0.681   0.618   7.107  0.00  0.00    +0.080 A 
ATOM     23  C   UNL     1       1.798  -0.150   6.704  0.00  0.00    +0.042 A 
ATOM     24  C   UNL     1       2.655  -0.738   7.600  0.00  0.00    +0.032 A 
ATOM     25  C   UNL     1       2.434  -0.586   8.958  0.00  0.00    +0.019 A 
ATOM     26 BR   UNL     1       3.600  -1.387  10.212  0.00  0.00    -0.050 Br
ATOM     27  S   UNL     1       1.684  -0.083   4.932  0.00  0.00    -0.052 S 
ATOM     28  C   UNL     1       0.217   0.934   4.840  0.00  0.00    +0.165 A 
ATOM     29  N   UNL     1      -0.067   1.131   6.106  0.00  0.00    -0.225 NA
ATOM     30  N   UNL     1      -0.453   1.393   3.718  0.00  0.00    -0.265 N 
ATOM     31  C   UNL     1       0.000   1.080   2.488  0.00  0.00    +0.219 C 
ATOM     32  O   UNL     1       0.994   0.397   2.363  0.00  0.00    -0.275 OA
ATOM     33  H   UNL     1      -1.355   2.012   3.831  0.00  0.00    +0.157 HD
ENDBRANCH  19  31
ENDBRANCH  18  19
ENDBRANCH   1  18
TORSDOF 6
