REMARK  Name = ZINC16576145
REMARK  8 active torsions:
REMARK  status: ('A' for Active; 'I' for Inactive)
REMARK    1  A    between atoms: C_1  and  C_2
REMARK    2  A    between atoms: C_2  and  C_4
REMARK    3  A    between atoms: C_2  and  N_60
REMARK    4  A    between atoms: C_14  and  C_15
REMARK    5  A    between atoms: C_14  and  N_60
REMARK    6  A    between atoms: C_20  and  O_21
REMARK    7  A    between atoms: O_21  and  C_22
REMARK    8  A    between atoms: C_22  and  C_23
REMARK                            x       y       z     vdW  Elec       q    Type
REMARK                         _______ _______ _______ _____ _____    ______ ____
ROOT
ATOM      1  C   UNL     1      -1.239   3.140   0.032  0.00  0.00    -0.022 A 
ATOM      2  C   UNL     1      -0.050   3.844   0.024  0.00  0.00    +0.020 A 
ATOM      3  C   UNL     1       1.156   3.167   0.008  0.00  0.00    +0.018 A 
ATOM      4  C   UNL     1       1.174   1.783   0.000  0.00  0.00    +0.019 A 
ATOM      5  C   UNL     1      -0.013   1.076   0.008  0.00  0.00    +0.047 A 
ATOM      6  C   UNL     1      -1.223   1.754   0.017  0.00  0.00    +0.122 A 
ATOM      7 BR   UNL     1       2.781   4.132  -0.002  0.00  0.00    -0.050 Br
ENDROOT
BRANCH   1   8
ATOM      8  C   UNL     1      -2.553   3.879   0.049  0.00  0.00    -0.043 C 
BRANCH   8   9
ATOM      9  N   UNL     1      -3.079   3.897   1.427  0.00  0.00    +0.384 N 
ATOM     10  H   UNL     1      -3.217   2.933   1.750  0.00  0.00    -0.085 HD
ATOM     11  H   UNL     1      -2.405   4.370   2.041  0.00  0.00    -0.085 HD
BRANCH   9  13
ATOM     12  C   UNL     1      -4.109   6.117   1.620  0.00  0.00    -0.013 C 
ATOM     13  C   UNL     1      -4.366   4.616   1.474  0.00  0.00    -0.068 C 
BRANCH  13  14
ATOM     14  C   UNL     1      -5.175   4.119   2.675  0.00  0.00    -0.041 C 
ATOM     15  C   UNL     1      -4.390   4.379   3.962  0.00  0.00    +0.009 C 
ATOM     16  C   UNL     1      -5.198   3.882   5.162  0.00  0.00    -0.010 C 
ATOM     17  C   UNL     1      -6.534   4.626   5.220  0.00  0.00    +0.007 C 
ATOM     18  C   UNL     1      -7.319   4.365   3.933  0.00  0.00    -0.010 C 
ATOM     19  C   UNL     1      -6.511   4.862   2.732  0.00  0.00    +0.009 C 
ATOM     20  C   UNL     1      -7.577   2.864   3.787  0.00  0.00    +0.007 C 
ATOM     21  C   UNL     1      -6.241   2.120   3.729  0.00  0.00    -0.010 C 
ATOM     22  C   UNL     1      -5.456   2.381   5.017  0.00  0.00    +0.007 C 
ATOM     23  C   UNL     1      -5.432   2.618   2.529  0.00  0.00    +0.009 C 
ENDBRANCH  13  14
ENDBRANCH   9  13
ENDBRANCH   8   9
ENDBRANCH   1   8
BRANCH   6  24
ATOM     24  O   UNL     1      -2.392   1.060   0.019  0.00  0.00    -0.487 OA
BRANCH  24  25
ATOM     25  C   UNL     1      -2.299  -0.366   0.011  0.00  0.00    +0.266 C 
BRANCH  25  26
ATOM     26  C   UNL     1      -3.685  -0.960   0.014  0.00  0.00    +0.008 A 
ATOM     27  C   UNL     1      -4.791  -0.131   0.024  0.00  0.00    +0.010 A 
ATOM     28  C   UNL     1      -6.062  -0.674   0.026  0.00  0.00    +0.020 A 
ATOM     29  C   UNL     1      -6.227  -2.048   0.019  0.00  0.00    +0.042 A 
ATOM     30  C   UNL     1      -5.121  -2.878   0.009  0.00  0.00    +0.040 A 
ATOM     31  C   UNL     1      -3.849  -2.333   0.002  0.00  0.00    +0.049 A 
ATOM     32 CL   UNL     1      -2.459  -3.373  -0.017  0.00  0.00    -0.083 Cl
ATOM     33 CL   UNL     1      -7.824  -2.731   0.023  0.00  0.00    -0.083 Cl
ENDBRANCH  25  26
ENDBRANCH  24  25
ENDBRANCH   6  24
TORSDOF 7
