REMARK  Name = ZINC12183726
REMARK  10 active torsions:
REMARK  status: ('A' for Active; 'I' for Inactive)
REMARK    1  A    between atoms: C_1  and  C_2
REMARK    2  A    between atoms: C_4  and  C_8
REMARK    3  A    between atoms: C_5  and  C_7
REMARK    4  A    between atoms: C_10  and  N_30
REMARK    5  A    between atoms: N_13  and  C_15
REMARK    6  A    between atoms: C_15  and  C_17
REMARK    7  A    between atoms: C_15  and  C_18
REMARK    8  A    between atoms: N_20  and  C_21
REMARK    9  A    between atoms: C_26  and  O_27
REMARK   10  A    between atoms: O_27  and  C_28
REMARK                            x       y       z     vdW  Elec       q    Type
REMARK                         _______ _______ _______ _____ _____    ______ ____
ROOT
ATOM      1  C   UNL     1      -5.835   1.833   1.548  0.00  0.00    +0.097 A 
ATOM      2  C   UNL     1      -6.882   1.841   0.605  0.00  0.00    +0.058 A 
ATOM      3  C   UNL     1      -6.855   0.965  -0.442  0.00  0.00    +0.094 A 
ATOM      4  C   UNL     1      -5.769   0.061  -0.559  0.00  0.00    +0.289 A 
ATOM      5  O   UNL     1      -5.725  -0.731  -1.487  0.00  0.00    -0.264 OA
ATOM      6  N   UNL     1      -4.785   0.082   0.362  0.00  0.00    -0.216 N 
ATOM      7  N   UNL     1      -4.837   0.985   1.430  0.00  0.00    -0.167 NA
ENDROOT
BRANCH   1  11
ATOM      8  C   UNL     1      -7.240   5.524   4.791  0.00  0.00    +0.086 C 
ATOM      9  C   UNL     1      -6.497   4.409   4.101  0.00  0.00    +0.103 A 
ATOM     10  C   UNL     1      -6.893   3.786   2.978  0.00  0.00    +0.054 A 
ATOM     11  C   UNL     1      -5.863   2.783   2.687  0.00  0.00    +0.043 A 
ATOM     12  C   UNL     1      -4.942   2.901   3.679  0.00  0.00    +0.111 A 
ATOM     13  O   UNL     1      -5.335   3.878   4.508  0.00  0.00    -0.464 OA
ATOM     14  C   UNL     1      -3.690   2.074   3.822  0.00  0.00    +0.087 C 
ENDBRANCH   1  11
BRANCH   3  15
ATOM     15  N   UNL     1      -7.882   0.960  -1.385  0.00  0.00    -0.354 N 
ATOM     16  H   UNL     1      -7.857   0.336  -2.127  0.00  0.00    +0.142 HD
ATOM     17  H   UNL     1      -8.623   1.581  -1.299  0.00  0.00    +0.142 HD
ENDBRANCH   3  15
BRANCH   6  18
ATOM     18  C   UNL     1      -3.659  -0.849   0.249  0.00  0.00    +0.194 C 
ATOM     19  C   UNL     1      -3.603  -1.735   1.495  0.00  0.00    +0.043 C 
BRANCH  18  20
ATOM     20  C   UNL     1      -2.374  -0.071   0.127  0.00  0.00    +0.242 C 
ATOM     21  O   UNL     1      -2.397   1.142   0.134  0.00  0.00    -0.273 OA
ATOM     22  N   UNL     1      -1.201  -0.723   0.010  0.00  0.00    -0.281 N 
ATOM     23  H   UNL     1      -1.188  -1.690  -0.060  0.00  0.00    +0.155 HD
BRANCH  22  24
ATOM     24  C   UNL     1       0.001  -0.003  -0.010  0.00  0.00    +0.077 A 
ATOM     25  C   UNL     1       0.053   1.248  -0.607  0.00  0.00    +0.047 A 
ATOM     26  C   UNL     1       1.241   1.956  -0.625  0.00  0.00    +0.043 A 
ATOM     27  C   UNL     1       2.378   1.420  -0.048  0.00  0.00    +0.024 A 
ATOM     28  C   UNL     1       2.333   0.174   0.549  0.00  0.00    +0.049 A 
ATOM     29  C   UNL     1       1.147  -0.542   0.571  0.00  0.00    +0.141 A 
ATOM     30 CL   UNL     1       1.304   3.521  -1.373  0.00  0.00    -0.083 Cl
BRANCH  29  31
ATOM     31  O   UNL     1       1.102  -1.768   1.158  0.00  0.00    -0.493 OA
ATOM     32  C   UNL     1       2.315  -2.257   1.733  0.00  0.00    +0.277 C 
ENDBRANCH  29  31
ENDBRANCH  22  24
ENDBRANCH  18  20
ENDBRANCH   6  18
TORSDOF 6
