REMARK  Name = ZINC04188572
REMARK  11 active torsions:
REMARK  status: ('A' for Active; 'I' for Inactive)
REMARK    1  A    between atoms: C_1  and  C_2
REMARK    2  A    between atoms: C_2  and  O_3
REMARK    3  A    between atoms: O_3  and  C_4
REMARK    4  A    between atoms: C_8  and  C_11
REMARK    5  A    between atoms: C_9  and  O_10
REMARK    6  A    between atoms: C_20  and  O_29
REMARK    7  A    between atoms: C_21  and  O_26
REMARK    8  A    between atoms: O_26  and  C_27
REMARK    9  A    between atoms: C_27  and  C_28
REMARK   10  A    between atoms: O_29  and  C_30
REMARK   11  A    between atoms: C_30  and  C_31
REMARK                            x       y       z     vdW  Elec       q    Type
REMARK                         _______ _______ _______ _____ _____    ______ ____
ROOT
ATOM      1  C   UNL     1       2.224  -4.267  -3.827  0.00  0.00    +0.011 C 
ATOM      2  C   UNL     1       3.709  -4.198  -3.618  0.00  0.00    +0.014 A 
ATOM      3  C   UNL     1       4.385  -3.991  -2.476  0.00  0.00    +0.022 A 
ATOM      4  C   UNL     1       5.761  -4.005  -2.791  0.00  0.00    +0.020 A 
ATOM      5  C   UNL     1       5.872  -4.224  -4.121  0.00  0.00    +0.091 A 
ATOM      6  N   UNL     1       4.624  -4.346  -4.625  0.00  0.00    -0.321 N 
ATOM      7  C   UNL     1       4.188  -4.592  -5.940  0.00  0.00    +0.051 A 
ATOM      8  C   UNL     1       4.724  -3.938  -7.031  0.00  0.00    +0.075 A 
ATOM      9  C   UNL     1       4.205  -4.179  -8.294  0.00  0.00    +0.164 A 
ATOM     10  C   UNL     1       3.150  -5.074  -8.450  0.00  0.00    +0.162 A 
ATOM     11  C   UNL     1       2.633  -5.745  -7.353  0.00  0.00    +0.053 A 
ATOM     12  C   UNL     1       3.170  -5.528  -6.100  0.00  0.00    -0.037 A 
ATOM     13  C   UNL     1       2.746  -6.343  -4.917  0.00  0.00    -0.043 C 
ATOM     14  N   UNL     1       1.789  -5.660  -4.030  0.00  0.00    +0.390 N 
ATOM     15  H   UNL     1       1.754  -6.135  -3.141  0.00  0.00    -0.084 HD
ATOM     16  H   UNL     1       0.873  -5.668  -4.454  0.00  0.00    -0.084 HD
ENDROOT
BRANCH   1  21
ATOM     17  C   UNL     1       0.656  -1.819  -1.402  0.00  0.00    +0.162 A 
ATOM     18  C   UNL     1       0.244  -2.669  -0.388  0.00  0.00    +0.049 A 
ATOM     19  C   UNL     1       0.473  -4.028  -0.489  0.00  0.00    +0.004 A 
ATOM     20  C   UNL     1       1.112  -4.544  -1.601  0.00  0.00    +0.006 A 
ATOM     21  C   UNL     1       1.526  -3.702  -2.616  0.00  0.00    -0.011 A 
ATOM     22  C   UNL     1       1.295  -2.339  -2.524  0.00  0.00    +0.160 A 
BRANCH  22  23
ATOM     23  O   UNL     1       1.696  -1.510  -3.524  0.00  0.00    -0.503 OA
ATOM     24  H   UNL     1       2.594  -1.168  -3.416  0.00  0.00    +0.292 HD
ENDBRANCH  22  23
BRANCH  17  25
ATOM     25  O   UNL     1       0.432  -0.482  -1.304  0.00  0.00    -0.489 OA
BRANCH  25  27
ATOM     26  C   UNL     1      -0.392   1.500  -0.193  0.00  0.00    +0.048 C 
ATOM     27  C   UNL     1      -0.229  -0.020  -0.124  0.00  0.00    +0.226 C 
ENDBRANCH  25  27
ENDBRANCH  17  25
ENDBRANCH   1  21
BRANCH  10  28
ATOM     28  O   UNL     1       2.623  -5.290  -9.686  0.00  0.00    -0.489 OA
BRANCH  28  29
ATOM     29  C   UNL     1       1.542  -6.220  -9.776  0.00  0.00    +0.226 C 
ATOM     30  C   UNL     1       1.085  -6.331 -11.232  0.00  0.00    +0.048 C 
ENDBRANCH  28  29
ENDBRANCH  10  28
BRANCH   9  31
ATOM     31  O   UNL     1       4.726  -3.544  -9.378  0.00  0.00    -0.489 OA
BRANCH  31  32
ATOM     32  C   UNL     1       5.808  -2.640  -9.143  0.00  0.00    +0.226 C 
ATOM     33  C   UNL     1       6.258  -2.026 -10.470  0.00  0.00    +0.048 C 
ENDBRANCH  31  32
ENDBRANCH   9  31
TORSDOF 8
