REMARK  Name = ZINC36963814
REMARK  6 active torsions:
REMARK  status: ('A' for Active; 'I' for Inactive)
REMARK    1  A    between atoms: C_1  and  C_2
REMARK    2  A    between atoms: C_2  and  C_4
REMARK    3  A    between atoms: C_2  and  N_12
REMARK    4  A    between atoms: C_6  and  O_11
REMARK    5  A    between atoms: C_9  and  O_10
REMARK    6  A    between atoms: N_12  and  C_13
REMARK                            x       y       z     vdW  Elec       q    Type
REMARK                         _______ _______ _______ _____ _____    ______ ____
ROOT
ATOM      1  C   UNL     1      -0.001   1.501  -0.216  0.00  0.00    +0.033 C 
ATOM      2  C   UNL     1       0.005  -0.013   0.002  0.00  0.00    +0.101 C 
ENDROOT
BRANCH   2   3
ATOM      3  C   UNL     1       0.771  -0.678  -1.113  0.00  0.00    +0.017 A 
ATOM      4  C   UNL     1       0.099  -1.166  -2.217  0.00  0.00    +0.054 A 
ATOM      5  C   UNL     1       0.804  -1.777  -3.243  0.00  0.00    +0.117 A 
ATOM      6  C   UNL     1       2.183  -1.898  -3.161  0.00  0.00    +0.049 A 
ATOM      7  C   UNL     1       2.855  -1.410  -2.058  0.00  0.00    +0.049 A 
ATOM      8  C   UNL     1       2.151  -0.794  -1.033  0.00  0.00    +0.122 A 
BRANCH   8   9
ATOM      9  O   UNL     1       2.813  -0.309   0.051  0.00  0.00    -0.506 OA
ATOM     10  H   UNL     1       2.915  -0.949   0.768  0.00  0.00    +0.292 HD
ENDBRANCH   8   9
BRANCH   5  11
ATOM     11  O   UNL     1       0.143  -2.258  -4.330  0.00  0.00    -0.507 OA
ATOM     12  H   UNL     1       0.044  -1.616  -5.046  0.00  0.00    +0.292 HD
ENDBRANCH   5  11
ENDBRANCH   2   3
BRANCH   2  13
ATOM     13  N   UNL     1      -1.372  -0.511   0.012  0.00  0.00    -0.334 N 
ATOM     14  H   UNL     1      -1.838  -0.668  -0.824  0.00  0.00    +0.147 HD
BRANCH  13  15
ATOM     15  C   UNL     1      -2.018  -0.760   1.230  0.00  0.00    +0.078 A 
ATOM     16  C   UNL     1      -1.560  -0.157   2.397  0.00  0.00    +0.148 A 
ATOM     17  C   UNL     1      -2.200  -0.405   3.598  0.00  0.00    +0.078 A 
ATOM     18  C   UNL     1      -3.294  -1.252   3.638  0.00  0.00    +0.127 A 
ATOM     19  C   UNL     1      -3.751  -1.854   2.478  0.00  0.00    +0.055 A 
ATOM     20  C   UNL     1      -3.119  -1.605   1.274  0.00  0.00    +0.044 A 
ATOM     21 BR   UNL     1      -3.749  -2.420  -0.312  0.00  0.00    -0.048 Br
ATOM     22  F   UNL     1      -3.917  -1.493   4.813  0.00  0.00    -0.205 F 
ATOM     23  F   UNL     1      -0.492   0.669   2.357  0.00  0.00    -0.203 F 
ENDBRANCH  13  15
ENDBRANCH   2  13
TORSDOF 5
