REMARK  Name = ZINC43746365
REMARK  6 active torsions:
REMARK  status: ('A' for Active; 'I' for Inactive)
REMARK    1  A    between atoms: C_1  and  C_2
REMARK    2  A    between atoms: C_18  and  C_20
REMARK    3  A    between atoms: C_20  and  N_21
REMARK    4  A    between atoms: N_21  and  C_22
REMARK    5  A    between atoms: C_22  and  C_23
REMARK    6  A    between atoms: C_23  and  C_24
REMARK                            x       y       z     vdW  Elec       q    Type
REMARK                         _______ _______ _______ _____ _____    ______ ____
ROOT
ATOM      1  C   UNL     1      -0.019   1.526   0.010  0.00  0.00    +0.011 C 
ATOM      2  C   UNL     1       0.002  -0.004   0.002  0.00  0.00    -0.023 C 
ATOM      3  C   UNL     1       0.725  -0.494  -1.251  0.00  0.00    +0.007 C 
ATOM      4  C   UNL     1       2.123   0.126  -1.312  0.00  0.00    +0.003 C 
ATOM      5  C   UNL     1       2.942  -0.332  -0.101  0.00  0.00    +0.037 C 
ATOM      6  C   UNL     1       2.184   0.017   1.181  0.00  0.00    +0.096 C 
ATOM      7  C   UNL     1       0.745  -0.510   1.246  0.00  0.00    +0.030 C 
ATOM      8  C   UNL     1       0.788  -2.037   1.196  0.00  0.00    +0.014 C 
ATOM      9  C   UNL     1      -0.620  -2.632   1.216  0.00  0.00    +0.042 C 
ATOM     10  C   UNL     1      -1.485  -2.019   0.096  0.00  0.00    +0.181 C 
ATOM     11  C   UNL     1      -1.428  -0.529   0.027  0.00  0.00    +0.052 C 
ATOM     12  O   UNL     1      -0.984  -2.637  -1.095  0.00  0.00    -0.461 OA
ATOM     13  C   UNL     1      -0.771  -3.942  -0.813  0.00  0.00    +0.309 C 
ATOM     14  O   UNL     1      -0.800  -4.846  -1.614  0.00  0.00    -0.251 OA
ATOM     15  C   UNL     1      -0.486  -4.095   0.693  0.00  0.00    +0.087 C 
ATOM     16  C   UNL     1       2.973   0.105   2.484  0.00  0.00    +0.196 C 
ATOM     17  O   UNL     1       2.468   1.262   1.814  0.00  0.00    -0.368 OA
ENDROOT
BRANCH  15  18
ATOM     18  C   UNL     1      -1.525  -5.000   1.357  0.00  0.00    -0.068 C 
BRANCH  18  19
ATOM     19  N   UNL     1      -1.301  -6.391   0.939  0.00  0.00    +0.380 N 
ATOM     20  H   UNL     1      -1.387  -6.459  -0.064  0.00  0.00    -0.086 HD
ATOM     21  H   UNL     1      -0.375  -6.681   1.217  0.00  0.00    -0.086 HD
BRANCH  19  22
ATOM     22  C   UNL     1      -2.299  -7.261   1.576  0.00  0.00    -0.078 C 
BRANCH  22  23
ATOM     23  C   UNL     1      -2.065  -8.709   1.141  0.00  0.00    +0.018 C 
BRANCH  23  24
ATOM     24  C   UNL     1      -3.088  -9.601   1.795  0.00  0.00    -0.024 A 
ATOM     25  C   UNL     1      -2.935 -10.289   2.937  0.00  0.00    +0.087 A 
ATOM     26  N   UNL     1      -4.077 -10.988   3.219  0.00  0.00    -0.360 N 
ATOM     27  H   UNL     1      -4.205 -11.558   3.993  0.00  0.00    +0.165 HD
ATOM     28  C   UNL     1      -5.018 -10.761   2.239  0.00  0.00    +0.047 A 
ATOM     29  C   UNL     1      -4.442  -9.877   1.307  0.00  0.00    +0.003 A 
ATOM     30  C   UNL     1      -5.176  -9.462   0.196  0.00  0.00    +0.010 A 
ATOM     31  C   UNL     1      -6.454  -9.913   0.019  0.00  0.00    +0.001 A 
ATOM     32  C   UNL     1      -7.028 -10.781   0.937  0.00  0.00    +0.002 A 
ATOM     33  C   UNL     1      -6.318 -11.211   2.037  0.00  0.00    +0.026 A 
ENDBRANCH  23  24
ENDBRANCH  22  23
ENDBRANCH  19  22
ENDBRANCH  18  19
ENDBRANCH  15  18
TORSDOF 5
