REMARK  Name = ZINC38556126
REMARK  9 active torsions:
REMARK  status: ('A' for Active; 'I' for Inactive)
REMARK    1  A    between atoms: C_1  and  C_2
REMARK    2  A    between atoms: C_2  and  C_3
REMARK    3  A    between atoms: N_5  and  C_6
REMARK    4  A    between atoms: C_6  and  C_7
REMARK    5  A    between atoms: C_7  and  C_8
REMARK    6  A    between atoms: C_16  and  C_18
REMARK    7  A    between atoms: N_25  and  C_28
REMARK    8  A    between atoms: C_31  and  C_35
REMARK    9  A    between atoms: C_33  and  C_34
REMARK                            x       y       z     vdW  Elec       q    Type
REMARK                         _______ _______ _______ _____ _____    ______ ____
ROOT
ATOM      1  C   UNL     1      -4.493  -4.322  -0.157  0.00  0.00    -0.033 C 
ATOM      2  C   UNL     1      -5.695  -3.708  -0.062  0.00  0.00    -0.000 A 
ATOM      3  C   UNL     1      -6.101  -2.300  -0.143  0.00  0.00    +0.010 A 
ATOM      4  C   UNL     1      -7.409  -1.986  -0.005  0.00  0.00    +0.001 A 
ATOM      5  C   UNL     1      -8.384  -2.969   0.213  0.00  0.00    +0.002 A 
ATOM      6  C   UNL     1      -8.088  -4.283   0.298  0.00  0.00    +0.026 A 
ATOM      7  C   UNL     1      -6.744  -4.727   0.168  0.00  0.00    +0.043 A 
ATOM      8  N   UNL     1      -6.212  -5.924   0.213  0.00  0.00    -0.374 N 
ATOM      9  C   UNL     1      -4.764  -5.801   0.011  0.00  0.00    +0.130 C 
ATOM     10  H   UNL     1      -6.695  -6.754   0.353  0.00  0.00    +0.161 HD
ENDROOT
BRANCH   9  11
ATOM     11  C   UNL     1      -4.344  -6.550  -1.227  0.00  0.00    +0.020 C 
ATOM     12  C   UNL     1      -3.517  -7.615  -1.125  0.00  0.00    +0.100 C 
ATOM     13  C   UNL     1      -2.916  -8.246  -2.320  0.00  0.00    +0.276 C 
ATOM     14  O   UNL     1      -3.176  -7.773  -3.556  0.00  0.00    -0.268 OA
ATOM     15  N   UNL     1      -2.118  -9.283  -2.148  0.00  0.00    -0.123 NA
ATOM     16  C   UNL     1      -1.842  -9.772  -0.940  0.00  0.00    +0.340 C 
ATOM     17  O   UNL     1      -1.095 -10.731  -0.866  0.00  0.00    -0.250 OA
ATOM     18  N   UNL     1      -2.338  -9.270   0.200  0.00  0.00    -0.188 N 
ATOM     19  C   UNL     1      -3.167  -8.203   0.191  0.00  0.00    +0.263 C 
ATOM     20  O   UNL     1      -3.613  -7.744   1.224  0.00  0.00    -0.269 OA
BRANCH  18  21
ATOM     21  C   UNL     1      -1.986  -9.857   1.422  0.00  0.00    +0.049 A 
ATOM     22  C   UNL     1      -0.871  -9.405   2.116  0.00  0.00    +0.024 A 
ATOM     23  C   UNL     1      -0.527  -9.986   3.321  0.00  0.00    +0.005 A 
ATOM     24  C   UNL     1      -1.291 -11.017   3.836  0.00  0.00    -0.050 A 
ATOM     25  C   UNL     1      -2.401 -11.470   3.147  0.00  0.00    +0.008 A 
ATOM     26  C   UNL     1      -2.754 -10.889   1.945  0.00  0.00    -0.028 A 
ATOM     27  C   UNL     1      -3.968 -11.378   1.198  0.00  0.00    +0.046 C 
ATOM     28  C   UNL     1      -0.913 -11.649   5.151  0.00  0.00    +0.044 C 
ENDBRANCH  18  21
ENDBRANCH   9  11
BRANCH   1  29
ATOM     29  C   UNL     1      -3.157  -3.667  -0.390  0.00  0.00    +0.052 C 
BRANCH  29  30
ATOM     30  C   UNL     1      -3.344  -2.152  -0.502  0.00  0.00    +0.108 C 
BRANCH  30  33
ATOM     31  C   UNL     1      -1.964  -0.176  -0.859  0.00  0.00    +0.213 C 
ATOM     32  O   UNL     1      -2.968   0.501  -0.789  0.00  0.00    -0.276 OA
ATOM     33  N   UNL     1      -2.044  -1.515  -0.728  0.00  0.00    -0.315 N 
ATOM     34  H   UNL     1      -1.242  -2.057  -0.784  0.00  0.00    +0.149 HD
BRANCH  31  36
ATOM     35  C   UNL     1      -0.815   1.994  -1.204  0.00  0.00    +0.013 C 
ATOM     36  C   UNL     1      -0.628   0.480  -1.092  0.00  0.00    +0.092 C 
ENDBRANCH  31  36
ENDBRANCH  30  33
ENDBRANCH  29  30
ENDBRANCH   1  29
TORSDOF 6
