REMARK  Name = ZINC57680841
REMARK  4 active torsions:
REMARK  status: ('A' for Active; 'I' for Inactive)
REMARK    1  A    between atoms: C_11  and  N_13
REMARK    2  A    between atoms: N_13  and  C_14
REMARK    3  A    between atoms: C_17  and  N_22
REMARK    4  A    between atoms: C_19  and  C_20
REMARK                            x       y       z     vdW  Elec       q    Type
REMARK                         _______ _______ _______ _____ _____    ______ ____
ROOT
ATOM      1  N   UNL     1       3.357   3.505   0.748  0.00  0.00    -0.336 N 
ATOM      2  H   UNL     1       3.627   3.545   1.679  0.00  0.00    +0.147 HD
ENDROOT
BRANCH   1  13
ATOM      3  C   UNL     1      -0.017   1.379   0.010  0.00  0.00    +0.003 A 
ATOM      4  C   UNL     1       1.166   2.086   0.002  0.00  0.00    +0.007 A 
ATOM      5  C   UNL     1       2.395   1.430  -0.008  0.00  0.00    -0.011 A 
ATOM      6  C   UNL     1       2.412   0.048  -0.001  0.00  0.00    +0.048 A 
ATOM      7  C   UNL     1       1.212  -0.667  -0.004  0.00  0.00    +0.137 A 
ATOM      8  C   UNL     1       0.002  -0.004   0.002  0.00  0.00    +0.039 A 
ATOM      9  F   UNL     1       1.237  -2.018  -0.015  0.00  0.00    -0.204 F 
ATOM     10  S   UNL     1       3.920  -0.868   0.033  0.00  0.00    -0.122 S 
ATOM     11  C   UNL     1       5.181   0.385  -0.344  0.00  0.00    +0.076 C 
ATOM     12  C   UNL     1       4.862   1.620   0.511  0.00  0.00    +0.038 C 
ATOM     13  C   UNL     1       3.619   2.297  -0.039  0.00  0.00    +0.103 C 
ENDBRANCH   1  13
BRANCH   1  14
ATOM     14  C   UNL     1       2.721   4.593   0.161  0.00  0.00    +0.045 A 
ATOM     15  C   UNL     1       2.328   4.536  -1.170  0.00  0.00    +0.026 A 
ATOM     16  C   UNL     1       1.697   5.618  -1.751  0.00  0.00    +0.034 A 
ATOM     17  C   UNL     1       1.451   6.765  -1.015  0.00  0.00    +0.128 A 
ATOM     18  C   UNL     1       1.834   6.840   0.307  0.00  0.00    +0.053 A 
ATOM     19  C   UNL     1       2.468   5.752   0.911  0.00  0.00    +0.075 A 
BRANCH  17  20
ATOM     20  N   UNL     1       0.774   7.918  -1.651  0.00  0.00    +0.056 N 
ATOM     21  O   UNL     1       0.437   7.856  -2.811  0.00  0.00    -0.126 OA
ATOM     22  O   UNL     1       0.557   8.920  -1.012  0.00  0.00    -0.126 OA
ENDBRANCH  17  20
BRANCH  19  23
ATOM     23  C   UNL     1       2.863   5.820   2.286  0.00  0.00    +0.101 C 
ATOM     24  N   UNL     1       3.177   5.875   3.376  0.00  0.00    -0.191 NA
ENDBRANCH  19  23
ENDBRANCH   1  14
TORSDOF 4
