REMARK  Name = ZINC19789781
REMARK  8 active torsions:
REMARK  status: ('A' for Active; 'I' for Inactive)
REMARK    1  A    between atoms: C_4  and  O_24
REMARK    2  A    between atoms: C_5  and  C_7
REMARK    3  A    between atoms: C_7  and  N_8
REMARK    4  A    between atoms: N_11  and  C_18
REMARK    5  A    between atoms: C_12  and  C_15
REMARK    6  A    between atoms: C_15  and  C_16
REMARK    7  A    between atoms: C_16  and  O_17
REMARK    8  A    between atoms: O_24  and  C_25
REMARK                            x       y       z     vdW  Elec       q    Type
REMARK                         _______ _______ _______ _____ _____    ______ ____
ROOT
ATOM      1  N   UNL     1      -0.107   3.261   0.905  0.00  0.00    -0.301 NA
ATOM      2  C   UNL     1      -0.094   1.800   1.068  0.00  0.00    +0.066 C 
ATOM      3  C   UNL     1       0.301   1.145  -0.258  0.00  0.00    -0.062 C 
ATOM      4  N   UNL     1      -0.650   1.548  -1.303  0.00  0.00    +0.385 N 
ATOM      5  C   UNL     1      -0.663   3.008  -1.466  0.00  0.00    -0.052 C 
ATOM      6  C   UNL     1      -1.059   3.663  -0.140  0.00  0.00    +0.069 C 
ATOM      7  H   UNL     1      -1.656   1.232  -0.987  0.00  0.00    -0.081 HD
ENDROOT
BRANCH   4   8
ATOM      8  C   UNL     1      -0.348   0.879  -2.575  0.00  0.00    -0.068 C 
ATOM      9  C   UNL     1      -0.399  -0.638  -2.379  0.00  0.00    -0.015 C 
ATOM     10  C   UNL     1      -0.084  -1.335  -3.704  0.00  0.00    -0.002 C 
ATOM     11  C   UNL     1       1.314  -0.927  -4.175  0.00  0.00    -0.000 C 
ATOM     12  C   UNL     1       1.364   0.589  -4.372  0.00  0.00    -0.002 C 
ATOM     13  C   UNL     1       1.049   1.286  -3.046  0.00  0.00    -0.015 C 
ENDBRANCH   4   8
BRANCH   1  14
ATOM     14  C   UNL     1      -0.409   3.930   2.178  0.00  0.00    +0.123 C 
BRANCH  14  19
ATOM     15  C   UNL     1       1.625   2.499   5.018  0.00  0.00    +0.001 A 
ATOM     16  C   UNL     1       2.783   3.251   4.939  0.00  0.00    +0.004 A 
ATOM     17  C   UNL     1       2.911   4.224   3.966  0.00  0.00    +0.046 A 
ATOM     18  C   UNL     1       1.877   4.446   3.069  0.00  0.00    +0.131 A 
ATOM     19  C   UNL     1       0.716   3.691   3.150  0.00  0.00    +0.008 A 
ATOM     20  C   UNL     1       0.591   2.722   4.128  0.00  0.00    +0.008 A 
BRANCH  18  21
ATOM     21  O   UNL     1       2.001   5.402   2.111  0.00  0.00    -0.434 OA
BRANCH  21  22
ATOM     22  C   UNL     1       3.223   6.142   2.087  0.00  0.00    +0.541 C 
ATOM     23  F   UNL     1       3.390   6.807   3.306  0.00  0.00    -0.166 F 
ATOM     24  F   UNL     1       4.294   5.265   1.883  0.00  0.00    -0.166 F 
ENDBRANCH  21  22
ENDBRANCH  18  21
ENDBRANCH  14  19
ENDBRANCH   1  14
BRANCH   5  25
ATOM     25  C   UNL     1      -1.675   3.392  -2.547  0.00  0.00    +0.014 C 
BRANCH  25  26
ATOM     26  C   UNL     1      -1.600   4.899  -2.804  0.00  0.00    +0.154 C 
BRANCH  26  27
ATOM     27  O   UNL     1      -2.456   5.240  -3.896  0.00  0.00    -0.395 OA
ATOM     28  H   UNL     1      -2.535   6.285  -4.228  0.00  0.00    +0.209 HD
ENDBRANCH  26  27
ENDBRANCH  25  26
ENDBRANCH   5  25
TORSDOF 8
