REMARK  Name = ZINC22857909
REMARK  4 active torsions:
REMARK  status: ('A' for Active; 'I' for Inactive)
REMARK    1  A    between atoms: C_1  and  N_2
REMARK    2  A    between atoms: C_3  and  C_5
REMARK    3  A    between atoms: N_14  and  S_15
REMARK    4  A    between atoms: S_15  and  C_18
REMARK                            x       y       z     vdW  Elec       q    Type
REMARK                         _______ _______ _______ _____ _____    ______ ____
ROOT
ATOM      1  C   UNL     1       1.280   1.980   0.001  0.00  0.00    +0.188 C 
ATOM      2  C   UNL     1       1.430   2.784   1.302  0.00  0.00    +0.070 C 
ATOM      3  C   UNL     1       2.686   2.238   1.943  0.00  0.00    -0.022 A 
ATOM      4  C   UNL     1       3.319   2.572   3.125  0.00  0.00    +0.005 A 
ATOM      5  C   UNL     1       4.477   1.917   3.502  0.00  0.00    +0.000 A 
ATOM      6  C   UNL     1       5.001   0.925   2.693  0.00  0.00    +0.002 A 
ATOM      7  C   UNL     1       4.373   0.588   1.513  0.00  0.00    +0.025 A 
ATOM      8  C   UNL     1       3.203   1.245   1.126  0.00  0.00    +0.055 A 
ATOM      9  N   UNL     1       2.420   1.059  -0.015  0.00  0.00    -0.191 N 
ENDROOT
BRANCH   1  12
ATOM     10  C   UNL     1      -2.449   1.117   0.020  0.00  0.00    +0.128 C 
ATOM     11  N   UNL     1      -1.191   1.867   0.018  0.00  0.00    -0.317 N 
ATOM     12  C   UNL     1      -0.014   1.209   0.009  0.00  0.00    +0.235 C 
ATOM     13  O   UNL     1       0.002  -0.004   0.002  0.00  0.00    -0.274 OA
ATOM     14  H   UNL     1      -1.206   2.966   0.024  0.00  0.00    +0.148 HD
ENDBRANCH   1  12
BRANCH   9  15
ATOM     15  S   UNL     1       2.735  -0.041  -1.212  0.00  0.00    +0.075 S 
ATOM     16  O   UNL     1       3.528  -1.063  -0.626  0.00  0.00    -0.150 OA
ATOM     17  O   UNL     1       1.495  -0.311  -1.852  0.00  0.00    -0.150 OA
BRANCH  15  18
ATOM     18  C   UNL     1       3.752   0.764  -2.405  0.00  0.00    +0.109 A 
ATOM     19  C   UNL     1       5.129   0.719  -2.286  0.00  0.00    +0.029 A 
ATOM     20  C   UNL     1       5.918   1.354  -3.223  0.00  0.00    +0.006 A 
ATOM     21  C   UNL     1       5.341   2.039  -4.285  0.00  0.00    -0.044 A 
ATOM     22  C   UNL     1       3.970   2.079  -4.406  0.00  0.00    -0.042 A 
ATOM     23  C   UNL     1       3.177   1.436  -3.464  0.00  0.00    +0.032 A 
ATOM     24  C   UNL     1       3.277   2.793  -5.537  0.00  0.00    +0.035 C 
ATOM     25  C   UNL     1       4.227   3.781  -6.210  0.00  0.00    +0.005 C 
ATOM     26  C   UNL     1       5.524   3.043  -6.561  0.00  0.00    +0.005 C 
ATOM     27  C   UNL     1       6.262   2.721  -5.262  0.00  0.00    +0.035 C 
ENDBRANCH  15  18
ENDBRANCH   9  15
TORSDOF 3
