REMARK  Name = ZINC36306991
REMARK  14 active torsions:
REMARK  status: ('A' for Active; 'I' for Inactive)
REMARK    1  A    between atoms: C_1  and  C_2
REMARK    2  A    between atoms: C_2  and  C_3
REMARK    3  A    between atoms: C_3  and  C_4
REMARK    4  A    between atoms: C_4  and  C_6
REMARK    5  A    between atoms: C_4  and  O_35
REMARK    6  A    between atoms: C_6  and  N_7
REMARK    7  A    between atoms: N_7  and  C_8
REMARK    8  A    between atoms: N_7  and  C_14
REMARK    9  A    between atoms: C_8  and  C_9
REMARK   10  A    between atoms: C_14  and  C_15
REMARK   11  A    between atoms: C_16  and  C_29
REMARK   12  A    between atoms: N_18  and  C_28
REMARK   13  A    between atoms: C_19  and  O_20
REMARK   14  A    between atoms: O_20  and  C_21
REMARK                            x       y       z     vdW  Elec       q    Type
REMARK                         _______ _______ _______ _____ _____    ______ ____
ROOT
ATOM      1  C   UNL     1       1.555  -6.292   3.492  0.00  0.00    +0.025 A 
ATOM      2  C   UNL     1       0.488  -6.790   4.264  0.00  0.00    +0.098 A 
ATOM      3  N   UNL     1       0.526  -8.104   4.216  0.00  0.00    -0.168 NA
ATOM      4  N   UNL     1       1.612  -8.483   3.417  0.00  0.00    -0.235 N 
ATOM      5  C   UNL     1       2.226  -7.354   2.978  0.00  0.00    +0.221 A 
ATOM      6  C   UNL     1       2.012  -9.858   3.103  0.00  0.00    +0.176 C 
ENDROOT
BRANCH   2   7
ATOM      7  C   UNL     1      -0.508  -5.974   5.003  0.00  0.00    +0.002 A 
ATOM      8  C   UNL     1      -0.094  -4.866   5.740  0.00  0.00    +0.010 A 
ATOM      9  C   UNL     1      -1.024  -4.110   6.425  0.00  0.00    +0.001 A 
ATOM     10  C   UNL     1      -2.364  -4.452   6.382  0.00  0.00    +0.000 A 
ATOM     11  C   UNL     1      -2.779  -5.551   5.653  0.00  0.00    +0.001 A 
ATOM     12  C   UNL     1      -1.859  -6.310   4.959  0.00  0.00    +0.010 A 
ENDBRANCH   2   7
BRANCH   1  13
ATOM     13  C   UNL     1       1.888  -4.839   3.271  0.00  0.00    -0.035 C 
BRANCH  13  14
ATOM     14  N   UNL     1       1.300  -4.389   2.003  0.00  0.00    +0.389 N 
ATOM     15  H   UNL     1       1.597  -5.002   1.258  0.00  0.00    -0.081 HD
BRANCH  14  16
ATOM     16  C   UNL     1      -0.165  -4.418   2.105  0.00  0.00    -0.046 C 
BRANCH  16  17
ATOM     17  C   UNL     1      -0.777  -4.148   0.729  0.00  0.00    +0.098 C 
BRANCH  17  18
ATOM     18  O   UNL     1      -0.515  -2.796   0.347  0.00  0.00    -0.394 OA
ATOM     19  H   UNL     1      -0.879  -2.138   0.956  0.00  0.00    +0.210 HD
ENDBRANCH  17  18
BRANCH  17  20
ATOM     20  C   UNL     1      -2.289  -4.377   0.790  0.00  0.00    +0.029 C 
BRANCH  20  22
ATOM     21  C   UNL     1      -4.396  -4.458  -0.551  0.00  0.00    +0.004 C 
ATOM     22  C   UNL     1      -2.884  -4.229  -0.612  0.00  0.00    -0.001 C 
ENDBRANCH  20  22
ENDBRANCH  17  20
ENDBRANCH  16  17
ENDBRANCH  14  16
BRANCH  14  23
ATOM     23  C   UNL     1       1.745  -3.019   1.716  0.00  0.00    -0.003 C 
BRANCH  23  24
ATOM     24  C   UNL     1       3.245  -2.998   1.570  0.00  0.00    +0.089 A 
ATOM     25  C   UNL     1       3.924  -3.109   0.414  0.00  0.00    +0.042 A 
ATOM     26  C   UNL     1       5.299  -3.038   0.739  0.00  0.00    +0.041 A 
ATOM     27  C   UNL     1       5.376  -2.889   2.074  0.00  0.00    +0.195 A 
ATOM     28  O   UNL     1       4.129  -2.859   2.571  0.00  0.00    -0.470 OA
ENDBRANCH  23  24
ENDBRANCH  14  23
ENDBRANCH  13  14
ENDBRANCH   1  13
BRANCH   5  29
ATOM     29  O   UNL     1       3.317  -7.298   2.173  0.00  0.00    -0.438 OA
BRANCH  29  30
ATOM     30  C   UNL     1       4.543  -7.365   2.756  0.00  0.00    +0.133 A 
ATOM     31  C   UNL     1       4.653  -7.598   4.119  0.00  0.00    +0.046 A 
ATOM     32  C   UNL     1       5.900  -7.666   4.710  0.00  0.00    +0.006 A 
ATOM     33  C   UNL     1       7.040  -7.503   3.944  0.00  0.00    +0.038 A 
ATOM     34  C   UNL     1       6.934  -7.270   2.583  0.00  0.00    +0.127 A 
ATOM     35  C   UNL     1       5.687  -7.207   1.986  0.00  0.00    +0.084 A 
ATOM     36  F   UNL     1       8.049  -7.110   1.837  0.00  0.00    -0.205 F 
ENDBRANCH  29  30
ENDBRANCH   5  29
TORSDOF 12
