REMARK  Name = ZINC12330190
REMARK  5 active torsions:
REMARK  status: ('A' for Active; 'I' for Inactive)
REMARK    1  A    between atoms: C_6  and  C_7
REMARK    2  A    between atoms: C_7  and  C_9
REMARK    3  A    between atoms: C_7  and  O_27
REMARK    4  A    between atoms: C_9  and  N_57
REMARK    5  A    between atoms: C_16  and  O_26
REMARK                            x       y       z     vdW  Elec       q    Type
REMARK                         _______ _______ _______ _____ _____    ______ ____
ROOT
ATOM      1  C   UNL     1      -4.048  -1.328   0.579  0.00  0.00    -0.075 C 
ATOM      2  C   UNL     1      -5.385  -2.072   0.591  0.00  0.00    +0.029 C 
ATOM      3  C   UNL     1      -5.657  -2.601   2.000  0.00  0.00    +0.110 C 
ATOM      4  C   UNL     1      -5.649  -1.436   2.991  0.00  0.00    +0.029 C 
ATOM      5  C   UNL     1      -4.304  -0.709   2.908  0.00  0.00    -0.075 C 
ATOM      6  C   UNL     1      -7.026  -3.290   2.033  0.00  0.00    +0.084 C 
ATOM      7  C   UNL     1      -7.043  -4.380   0.958  0.00  0.00    +0.152 C 
ATOM      8  C   UNL     1      -5.793  -5.216   1.064  0.00  0.00    +0.024 A 
ATOM      9  C   UNL     1      -5.771  -6.461   0.457  0.00  0.00    +0.029 A 
ATOM     10  C   UNL     1      -4.640  -7.252   0.527  0.00  0.00    +0.042 A 
ATOM     11  C   UNL     1      -3.522  -6.800   1.208  0.00  0.00    +0.023 A 
ATOM     12  C   UNL     1      -3.540  -5.562   1.815  0.00  0.00    +0.047 A 
ATOM     13  C   UNL     1      -4.678  -4.764   1.747  0.00  0.00    +0.127 A 
ATOM     14  O   UNL     1      -4.658  -3.552   2.362  0.00  0.00    -0.485 OA
ATOM     15 CL   UNL     1      -4.620  -8.811  -0.236  0.00  0.00    -0.084 Cl
ATOM     16  N   UNL     1      -4.119  -0.200   1.532  0.00  0.00    +0.382 N 
ATOM     17  H   UNL     1      -4.919   0.394   1.286  0.00  0.00    -0.082 HD
ENDROOT
BRANCH   7  18
ATOM     18  O   UNL     1      -8.189  -5.213   1.143  0.00  0.00    -0.387 OA
ATOM     19  H   UNL     1      -8.266  -5.925   0.493  0.00  0.00    +0.210 HD
ENDBRANCH   7  18
BRANCH  16  20
ATOM     20  C   UNL     1      -2.882   0.605   1.455  0.00  0.00    -0.042 C 
BRANCH  20  21
ATOM     21  C   UNL     1      -3.074   1.883   2.274  0.00  0.00    +0.128 C 
BRANCH  21  27
ATOM     22  C   UNL     1      -1.673   3.599   1.108  0.00  0.00    +0.006 A 
ATOM     23  C   UNL     1      -0.539   4.383   1.022  0.00  0.00    +0.004 A 
ATOM     24  C   UNL     1       0.441   4.301   1.997  0.00  0.00    -0.044 A 
ATOM     25  C   UNL     1       0.282   3.432   3.061  0.00  0.00    -0.044 A 
ATOM     26  C   UNL     1      -0.856   2.647   3.145  0.00  0.00    +0.010 A 
ATOM     27  C   UNL     1      -1.834   2.734   2.174  0.00  0.00    -0.021 A 
ATOM     28  C   UNL     1       1.479   3.527   3.982  0.00  0.00    +0.036 C 
ATOM     29  C   UNL     1       2.174   4.853   3.606  0.00  0.00    +0.009 C 
ATOM     30  C   UNL     1       1.755   5.040   2.132  0.00  0.00    +0.036 C 
ENDBRANCH  21  27
BRANCH  21  31
ATOM     31  O   UNL     1      -4.194   2.611   1.765  0.00  0.00    -0.389 OA
ATOM     32  H   UNL     1      -4.103   2.875   0.839  0.00  0.00    +0.210 HD
ENDBRANCH  21  31
ENDBRANCH  20  21
ENDBRANCH  16  20
TORSDOF 5
