REMARK  Name = ZINC09877917
REMARK  5 active torsions:
REMARK  status: ('A' for Active; 'I' for Inactive)
REMARK    1  A    between atoms: C_1  and  C_2
REMARK    2  A    between atoms: C_5  and  S_10
REMARK    3  A    between atoms: S_10  and  C_11
REMARK    4  A    between atoms: C_14  and  C_23
REMARK    5  A    between atoms: N_15  and  C_16
REMARK                            x       y       z     vdW  Elec       q    Type
REMARK                         _______ _______ _______ _____ _____    ______ ____
ROOT
ATOM      1  C   UNL     1       2.710   0.176   1.258  0.00  0.00    +0.197 A 
ATOM      2  N   UNL     1       2.421  -0.586   0.229  0.00  0.00    -0.122 NA
ATOM      3  N   UNL     1       2.972  -1.739   0.363  0.00  0.00    -0.128 NA
ATOM      4  C   UNL     1       3.642  -1.790   1.492  0.00  0.00    +0.171 A 
ATOM      5  N   UNL     1       3.496  -0.564   2.102  0.00  0.00    -0.270 N 
ENDROOT
BRANCH   4   6
ATOM      6  C   UNL     1       4.406  -2.943   2.008  0.00  0.00    +0.045 A 
ATOM      7  C   UNL     1       5.104  -2.998   3.172  0.00  0.00    +0.095 A 
ATOM      8  N   UNL     1       5.675  -4.230   3.308  0.00  0.00    -0.360 N 
ATOM      9  H   UNL     1       6.220  -4.509   4.061  0.00  0.00    +0.165 HD
ATOM     10  C   UNL     1       5.369  -5.020   2.221  0.00  0.00    +0.047 A 
ATOM     11  C   UNL     1       4.564  -4.255   1.359  0.00  0.00    +0.010 A 
ATOM     12  C   UNL     1       4.101  -4.806   0.166  0.00  0.00    +0.011 A 
ATOM     13  C   UNL     1       4.436  -6.101  -0.163  0.00  0.00    +0.001 A 
ATOM     14  C   UNL     1       5.231  -6.856   0.687  0.00  0.00    +0.002 A 
ATOM     15  C   UNL     1       5.697  -6.325   1.870  0.00  0.00    +0.026 A 
ENDBRANCH   4   6
BRANCH   5  16
ATOM     16  C   UNL     1       4.038  -0.158   3.330  0.00  0.00    +0.051 A 
ATOM     17  C   UNL     1       5.414  -0.057   3.483  0.00  0.00    +0.028 A 
ATOM     18  C   UNL     1       5.946   0.348   4.692  0.00  0.00    +0.022 A 
ATOM     19  C   UNL     1       5.108   0.643   5.753  0.00  0.00    +0.041 A 
ATOM     20  C   UNL     1       3.736   0.538   5.605  0.00  0.00    +0.022 A 
ATOM     21  C   UNL     1       3.200   0.139   4.396  0.00  0.00    +0.028 A 
ATOM     22 CL   UNL     1       5.779   1.144   7.274  0.00  0.00    -0.084 Cl
ENDBRANCH   5  16
BRANCH   1  23
ATOM     23  S   UNL     1       2.181   1.838   1.510  0.00  0.00    -0.071 S 
BRANCH  23  27
ATOM     24  C   UNL     1      -1.726   4.332   0.208  0.00  0.00    +0.052 C 
ATOM     25  C   UNL     1      -0.814   3.301  -0.460  0.00  0.00    +0.175 C 
ATOM     26  C   UNL     1       0.657   3.532  -0.046  0.00  0.00    +0.070 C 
ATOM     27  C   UNL     1       1.212   2.091   0.002  0.00  0.00    +0.166 C 
ATOM     28  C   UNL     1      -0.014   1.204   0.009  0.00  0.00    +0.321 C 
ATOM     29  O   UNL     1       0.002  -0.004   0.002  0.00  0.00    -0.250 OA
ATOM     30  O   UNL     1      -1.122   1.960   0.018  0.00  0.00    -0.461 OA
ENDBRANCH  23  27
ENDBRANCH   1  23
TORSDOF 4
