REMARK  Name = ZINC16741530
REMARK  14 active torsions:
REMARK  status: ('A' for Active; 'I' for Inactive)
REMARK    1  A    between atoms: C_1  and  C_2
REMARK    2  A    between atoms: C_2  and  C_3
REMARK    3  A    between atoms: C_3  and  C_4
REMARK    4  A    between atoms: C_4  and  C_5
REMARK    5  A    between atoms: C_5  and  N_6
REMARK    6  A    between atoms: C_10  and  C_11
REMARK    7  A    between atoms: N_13  and  C_26
REMARK    8  A    between atoms: C_15  and  C_16
REMARK    9  A    between atoms: C_19  and  S_22
REMARK   10  A    between atoms: S_22  and  C_23
REMARK   11  A    between atoms: C_23  and  C_24
REMARK   12  A    between atoms: C_24  and  C_25
REMARK   13  A    between atoms: C_32  and  C_38
REMARK   14  A    between atoms: C_33  and  C_36
REMARK                            x       y       z     vdW  Elec       q    Type
REMARK                         _______ _______ _______ _____ _____    ______ ____
ROOT
ATOM      1  C   UNL     1       2.444  -0.122   0.071  0.00  0.00    +0.021 A 
ATOM      2  C   UNL     1       1.319  -0.939   0.083  0.00  0.00    +0.123 A 
ATOM      3  N   UNL     1       1.738  -2.210   0.176  0.00  0.00    -0.239 N 
ATOM      4  N   UNL     1       3.133  -2.248   0.227  0.00  0.00    -0.166 NA
ATOM      5  C   UNL     1       3.604  -1.024   0.161  0.00  0.00    +0.100 A 
ENDROOT
BRANCH   1  10
ATOM      6  N   UNL     1       0.237   1.812  -2.925  0.00  0.00    -0.234 N 
ATOM      7  C   UNL     1       0.992   1.178  -2.010  0.00  0.00    +0.253 C 
ATOM      8  O   UNL     1       1.107  -0.033  -2.053  0.00  0.00    -0.270 OA
ATOM      9  C   UNL     1       1.683   1.941  -0.960  0.00  0.00    +0.042 C 
ATOM     10  C   UNL     1       2.470   1.287  -0.015  0.00  0.00    +0.025 C 
ATOM     11  C   UNL     1       1.540   3.346  -0.923  0.00  0.00    -0.016 C 
ATOM     12  C   UNL     1       0.750   3.961  -1.882  0.00  0.00    +0.117 C 
ATOM     13  C   UNL     1       0.086   3.147  -2.903  0.00  0.00    +0.264 C 
ATOM     14  O   UNL     1      -0.608   3.688  -3.745  0.00  0.00    -0.269 OA
ATOM     15  C   UNL     1       2.234   4.161   0.138  0.00  0.00    +0.046 C 
BRANCH  12  16
ATOM     16  C   UNL     1       0.583   5.383  -1.874  0.00  0.00    +0.105 C 
ATOM     17  N   UNL     1       0.450   6.512  -1.868  0.00  0.00    -0.191 NA
ENDBRANCH  12  16
BRANCH   6  18
ATOM     18  C   UNL     1      -0.437   1.030  -3.965  0.00  0.00    +0.117 C 
BRANCH  18  19
ATOM     19  C   UNL     1      -1.826   0.618  -3.473  0.00  0.00    +0.019 C 
BRANCH  19  20
ATOM     20  C   UNL     1      -2.530  -0.198  -4.559  0.00  0.00    +0.001 C 
BRANCH  20  22
ATOM     21  C   UNL     1      -4.623  -1.426  -5.153  0.00  0.00    +0.004 C 
ATOM     22  C   UNL     1      -3.919  -0.610  -4.067  0.00  0.00    -0.003 C 
ENDBRANCH  20  22
ENDBRANCH  19  20
ENDBRANCH  18  19
ENDBRANCH   6  18
ENDBRANCH   1  10
BRANCH   5  23
ATOM     23  C   UNL     1       5.031  -0.626   0.177  0.00  0.00    +0.003 A 
ATOM     24  C   UNL     1       5.460   0.466  -0.577  0.00  0.00    +0.011 A 
ATOM     25  C   UNL     1       6.787   0.838  -0.556  0.00  0.00    +0.015 A 
ATOM     26  C   UNL     1       7.700   0.118   0.209  0.00  0.00    +0.008 A 
ATOM     27  C   UNL     1       7.275  -0.975   0.957  0.00  0.00    +0.015 A 
ATOM     28  C   UNL     1       5.948  -1.347   0.943  0.00  0.00    +0.011 A 
BRANCH  26  29
ATOM     29  S   UNL     1       9.397   0.592   0.229  0.00  0.00    -0.125 S 
BRANCH  29  30
ATOM     30  C   UNL     1       9.463   2.034  -0.870  0.00  0.00    +0.074 C 
BRANCH  30  31
ATOM     31  C   UNL     1      10.900   2.553  -0.944  0.00  0.00    +0.008 C 
ATOM     32  C   UNL     1      10.956   3.769  -1.871  0.00  0.00    +0.004 C 
ENDBRANCH  30  31
ENDBRANCH  29  30
ENDBRANCH  26  29
ENDBRANCH   5  23
BRANCH   3  33
ATOM     33  C   UNL     1       0.900  -3.332   0.216  0.00  0.00    +0.065 A 
ATOM     34  C   UNL     1      -0.478  -3.174   0.163  0.00  0.00    +0.028 A 
ATOM     35  C   UNL     1      -1.301  -4.283   0.196  0.00  0.00    +0.002 A 
ATOM     36  C   UNL     1      -0.753  -5.549   0.294  0.00  0.00    +0.000 A 
ATOM     37  C   UNL     1       0.619  -5.710   0.352  0.00  0.00    +0.002 A 
ATOM     38  C   UNL     1       1.447  -4.605   0.313  0.00  0.00    +0.028 A 
ENDBRANCH   3  33
TORSDOF 11
