REMARK  Name = ZINC23819536
REMARK  7 active torsions:
REMARK  status: ('A' for Active; 'I' for Inactive)
REMARK    1  A    between atoms: C_1  and  C_2
REMARK    2  A    between atoms: C_15  and  C_17
REMARK    3  A    between atoms: C_17  and  C_19
REMARK    4  A    between atoms: C_17  and  N_20
REMARK    5  A    between atoms: N_20  and  C_21
REMARK    6  A    between atoms: N_20  and  C_22
REMARK    7  A    between atoms: C_22  and  C_23
REMARK                            x       y       z     vdW  Elec       q    Type
REMARK                         _______ _______ _______ _____ _____    ______ ____
ROOT
ATOM      1  C   UNL     1      -0.269   1.600   0.325  0.00  0.00    +0.008 C 
ATOM      2  C   UNL     1      -0.236   0.072   0.260  0.00  0.00    -0.009 C 
ATOM      3  C   UNL     1      -1.661  -0.478   0.379  0.00  0.00    +0.008 C 
ATOM      4  C   UNL     1      -1.666  -1.975   0.068  0.00  0.00    +0.037 C 
ATOM      5  C   UNL     1      -0.623  -2.666   0.943  0.00  0.00    -0.023 A 
ATOM      6  C   UNL     1       0.368  -1.951   1.525  0.00  0.00    -0.004 A 
ATOM      7  S   UNL     1       1.327  -3.139   2.430  0.00  0.00    -0.073 S 
ATOM      8  C   UNL     1       0.401  -4.586   2.028  0.00  0.00    +0.116 A 
ATOM      9  C   UNL     1      -0.631  -4.095   1.198  0.00  0.00    +0.075 A 
ATOM     10  C   UNL     1      -1.574  -5.053   0.695  0.00  0.00    +0.260 A 
ATOM     11  O   UNL     1      -2.501  -4.733  -0.029  0.00  0.00    -0.267 OA
ATOM     12  N   UNL     1      -1.368  -6.336   1.077  0.00  0.00    -0.312 N 
ATOM     13  H   UNL     1      -1.982  -7.017   0.760  0.00  0.00    +0.170 HD
ATOM     14  C   UNL     1      -0.345  -6.713   1.880  0.00  0.00    +0.097 A 
ATOM     15  N   UNL     1       0.539  -5.866   2.360  0.00  0.00    -0.228 NA
ATOM     16  C   UNL     1       0.604  -0.475   1.423  0.00  0.00    +0.046 C 
ENDROOT
BRANCH  14  17
ATOM     17  C   UNL     1      -0.213  -8.171   2.241  0.00  0.00    -0.004 C 
ATOM     18  C   UNL     1      -1.535  -8.673   2.824  0.00  0.00    -0.005 C 
BRANCH  17  19
ATOM     19  N   UNL     1       0.855  -8.334   3.236  0.00  0.00    +0.387 N 
ATOM     20  C   UNL     1       1.096  -9.765   3.465  0.00  0.00    -0.095 C 
ATOM     21  H   UNL     1       1.701  -7.901   2.896  0.00  0.00    -0.081 HD
BRANCH  19  22
ATOM     22  C   UNL     1       0.451  -7.697   4.497  0.00  0.00    -0.042 C 
BRANCH  22  23
ATOM     23  C   UNL     1       1.593  -7.758   5.478  0.00  0.00    -0.064 A 
ATOM     24  C   UNL     1       1.719  -8.841   6.327  0.00  0.00    +0.003 A 
ATOM     25  C   UNL     1       2.766  -8.897   7.227  0.00  0.00    +0.015 A 
ATOM     26  C   UNL     1       3.690  -7.868   7.278  0.00  0.00    +0.018 A 
ATOM     27  C   UNL     1       3.564  -6.784   6.428  0.00  0.00    +0.015 A 
ATOM     28  C   UNL     1       2.519  -6.732   5.524  0.00  0.00    +0.003 A 
ATOM     29 BR   UNL     1       5.123  -7.943   8.509  0.00  0.00    -0.050 Br
ENDBRANCH  22  23
ENDBRANCH  19  22
ENDBRANCH  17  19
ENDBRANCH  14  17
TORSDOF 4
