REMARK  Name = ZINC11810595
REMARK  7 active torsions:
REMARK  status: ('A' for Active; 'I' for Inactive)
REMARK    1  A    between atoms: C_1  and  C_2
REMARK    2  A    between atoms: C_4  and  C_29
REMARK    3  A    between atoms: C_5  and  C_9
REMARK    4  A    between atoms: C_6  and  C_8
REMARK    5  A    between atoms: C_15  and  C_17
REMARK    6  A    between atoms: C_17  and  C_18
REMARK    7  A    between atoms: C_18  and  N_19
REMARK                            x       y       z     vdW  Elec       q    Type
REMARK                         _______ _______ _______ _____ _____    ______ ____
ROOT
ATOM      1  C   UNL     1       0.964   1.603   0.425  0.00  0.00    +0.081 A 
ATOM      2  C   UNL     1       0.080   0.594   0.689  0.00  0.00    +0.076 A 
ATOM      3  S   UNL     1      -1.438   1.523   0.868  0.00  0.00    -0.060 S 
ATOM      4  C   UNL     1      -0.742   3.145   0.585  0.00  0.00    +0.165 A 
ATOM      5  N   UNL     1       0.529   2.853   0.380  0.00  0.00    -0.225 NA
ATOM      6  N   UNL     1      -1.372   4.383   0.576  0.00  0.00    -0.265 N 
ATOM      7  C   UNL     1      -2.696   4.466   0.812  0.00  0.00    +0.220 C 
ATOM      8  O   UNL     1      -3.338   3.461   1.031  0.00  0.00    -0.275 OA
ATOM      9  H   UNL     1      -0.859   5.187   0.401  0.00  0.00    +0.157 HD
ENDROOT
BRANCH   1  14
ATOM     10  C   UNL     1       6.528   0.425  -0.480  0.00  0.00    +0.044 C 
ATOM     11  C   UNL     1       5.072   0.734  -0.243  0.00  0.00    -0.050 A 
ATOM     12  C   UNL     1       4.371   1.496  -1.160  0.00  0.00    +0.007 A 
ATOM     13  C   UNL     1       3.038   1.781  -0.949  0.00  0.00    -0.041 A 
ATOM     14  C   UNL     1       2.397   1.300   0.192  0.00  0.00    +0.007 A 
ATOM     15  C   UNL     1       3.110   0.537   1.116  0.00  0.00    -0.041 A 
ATOM     16  C   UNL     1       4.442   0.254   0.891  0.00  0.00    +0.007 A 
ATOM     17  C   UNL     1       2.427   0.019   2.355  0.00  0.00    +0.044 C 
ATOM     18  C   UNL     1       2.275   2.610  -1.949  0.00  0.00    +0.044 C 
ENDBRANCH   1  14
BRANCH   7  19
ATOM     19  C   UNL     1      -3.380   5.809   0.803  0.00  0.00    +0.118 C 
BRANCH  19  20
ATOM     20  C   UNL     1      -4.870   5.625   1.096  0.00  0.00    +0.135 C 
BRANCH  20  21
ATOM     21  N   UNL     1      -5.535   6.931   1.087  0.00  0.00    -0.298 N 
ATOM     22  C   UNL     1      -5.628   7.637   2.242  0.00  0.00    +0.203 A 
ATOM     23  N   UNL     1      -6.209   8.807   2.275  0.00  0.00    -0.230 NA
ATOM     24  C   UNL     1      -6.737   9.339   1.177  0.00  0.00    +0.115 A 
ATOM     25  C   UNL     1      -6.694   8.680  -0.065  0.00  0.00    +0.072 A 
ATOM     26  C   UNL     1      -6.046   7.402  -0.066  0.00  0.00    +0.262 A 
ATOM     27  O   UNL     1      -5.957   6.753  -1.094  0.00  0.00    -0.267 OA
ATOM     28  C   UNL     1      -7.316   9.397  -1.163  0.00  0.00    +0.023 A 
ATOM     29  C   UNL     1      -7.871  10.598  -0.930  0.00  0.00    +0.048 A 
ATOM     30  S   UNL     1      -7.591  10.852   0.812  0.00  0.00    -0.077 S 
ENDBRANCH  20  21
ENDBRANCH  19  20
ENDBRANCH   7  19
TORSDOF 4
