REMARK  Name = ZINC27944671
REMARK  13 active torsions:
REMARK  status: ('A' for Active; 'I' for Inactive)
REMARK    1  A    between atoms: C_1  and  N_2
REMARK    2  A    between atoms: N_2  and  C_3
REMARK    3  A    between atoms: N_2  and  C_4
REMARK    4  A    between atoms: C_7  and  C_10
REMARK    5  A    between atoms: C_10  and  C_12
REMARK    6  A    between atoms: C_10  and  C_28
REMARK    7  A    between atoms: C_12  and  N_13
REMARK    8  A    between atoms: N_13  and  S_14
REMARK    9  A    between atoms: S_14  and  C_17
REMARK   10  A    between atoms: C_19  and  O_26
REMARK   11  A    between atoms: C_20  and  O_24
REMARK   12  A    between atoms: O_24  and  C_25
REMARK   13  A    between atoms: O_26  and  C_27
REMARK                            x       y       z     vdW  Elec       q    Type
REMARK                         _______ _______ _______ _____ _____    ______ ____
ROOT
ATOM      1  C   UNL     1      -2.531  -0.809   0.021  0.00  0.00    +0.066 C 
ENDROOT
BRANCH   1   2
ATOM      2  C   UNL     1      -1.039  -1.022   0.012  0.00  0.00    -0.014 A 
ATOM      3  C   UNL     1      -0.401  -2.203   0.009  0.00  0.00    +0.088 A 
ATOM      4  N   UNL     1       0.953  -2.002   0.001  0.00  0.00    -0.360 N 
ATOM      5  H   UNL     1       1.637  -2.863  -0.003  0.00  0.00    +0.165 HD
ATOM      6  C   UNL     1       1.225  -0.652  -0.000  0.00  0.00    +0.047 A 
ATOM      7  C   UNL     1      -0.010   0.021   0.006  0.00  0.00    +0.003 A 
ATOM      8  C   UNL     1      -0.043   1.416   0.007  0.00  0.00    +0.010 A 
ATOM      9  C   UNL     1       1.127   2.123   0.001  0.00  0.00    +0.001 A 
ATOM     10  C   UNL     1       2.348   1.464  -0.006  0.00  0.00    +0.002 A 
ATOM     11  C   UNL     1       2.404   0.087  -0.007  0.00  0.00    +0.026 A 
ENDBRANCH   1   2
BRANCH   1  15
ATOM     12  C   UNL     1      -4.206  -2.604   3.519  0.00  0.00    +0.029 A 
ATOM     13  C   UNL     1      -4.351  -1.240   3.299  0.00  0.00    +0.023 A 
ATOM     14  C   UNL     1      -3.808  -0.664   2.168  0.00  0.00    +0.006 A 
ATOM     15  C   UNL     1      -3.122  -1.442   1.254  0.00  0.00    -0.039 A 
ATOM     16  C   UNL     1      -2.980  -2.801   1.468  0.00  0.00    +0.006 A 
ATOM     17  C   UNL     1      -3.515  -3.383   2.600  0.00  0.00    +0.023 A 
BRANCH  12  19
ATOM     18  C   UNL     1      -5.372  -2.352   5.692  0.00  0.00    +0.129 C 
ATOM     19  N   UNL     1      -4.753  -3.191   4.663  0.00  0.00    -0.336 N 
ATOM     20  C   UNL     1      -4.709  -4.645   4.832  0.00  0.00    +0.129 C 
ENDBRANCH  12  19
ENDBRANCH   1  15
BRANCH   1  21
ATOM     21  C   UNL     1      -3.145  -1.451  -1.225  0.00  0.00    +0.118 C 
BRANCH  21  22
ATOM     22  N   UNL     1      -2.661  -0.756  -2.421  0.00  0.00    -0.189 NA
ATOM     23  H   UNL     1      -2.323   0.288  -2.351  0.00  0.00    +0.148 HD
BRANCH  22  24
ATOM     24  S   UNL     1      -2.852  -1.447  -3.914  0.00  0.00    +0.061 S 
ATOM     25  O   UNL     1      -2.313  -0.531  -4.857  0.00  0.00    -0.153 OA
ATOM     26  O   UNL     1      -2.391  -2.786  -3.804  0.00  0.00    -0.153 OA
BRANCH  24  27
ATOM     27  C   UNL     1      -4.583  -1.535  -4.230  0.00  0.00    +0.144 A 
ATOM     28  C   UNL     1      -5.135  -0.799  -5.263  0.00  0.00    +0.080 A 
ATOM     29  C   UNL     1      -6.496  -0.867  -5.512  0.00  0.00    +0.164 A 
ATOM     30  C   UNL     1      -7.306  -1.676  -4.722  0.00  0.00    +0.164 A 
ATOM     31  C   UNL     1      -6.750  -2.412  -3.689  0.00  0.00    +0.089 A 
ATOM     32  C   UNL     1      -5.388  -2.345  -3.447  0.00  0.00    +0.153 A 
ATOM     33  F   UNL     1      -4.845  -3.067  -2.443  0.00  0.00    -0.203 F 
BRANCH  30  34
ATOM     34  O   UNL     1      -8.643  -1.745  -4.964  0.00  0.00    -0.491 OA
ATOM     35  C   UNL     1      -9.414  -2.596  -4.113  0.00  0.00    +0.277 C 
ENDBRANCH  30  34
BRANCH  29  36
ATOM     36  O   UNL     1      -7.039  -0.142  -6.527  0.00  0.00    -0.491 OA
ATOM     37  C   UNL     1      -6.147   0.667  -7.296  0.00  0.00    +0.277 C 
ENDBRANCH  29  36
ENDBRANCH  24  27
ENDBRANCH  22  24
ENDBRANCH  21  22
ENDBRANCH   1  21
TORSDOF 9
