REMARK  Name = ZINC09729889
REMARK  9 active torsions:
REMARK  status: ('A' for Active; 'I' for Inactive)
REMARK    1  A    between atoms: C_1  and  C_2
REMARK    2  A    between atoms: C_2  and  C_4
REMARK    3  A    between atoms: C_2  and  N_56
REMARK    4  A    between atoms: N_6  and  C_7
REMARK    5  A    between atoms: C_12  and  S_13
REMARK    6  A    between atoms: S_13  and  C_14
REMARK    7  A    between atoms: C_20  and  N_56
REMARK    8  A    between atoms: C_21  and  C_22
REMARK    9  A    between atoms: C_21  and  N_56
REMARK                            x       y       z     vdW  Elec       q    Type
REMARK                         _______ _______ _______ _____ _____    ______ ____
ROOT
ATOM      1  C   UNL     1      -4.018  -1.369  -0.878  0.00  0.00    -0.004 C 
ATOM      2  C   UNL     1      -3.700  -0.429   0.286  0.00  0.00    +0.017 C 
ENDROOT
BRANCH   2   3
ATOM      3  C   UNL     1      -4.787   0.608   0.407  0.00  0.00    +0.203 C 
ATOM      4  O   UNL     1      -4.517   1.785   0.299  0.00  0.00    -0.277 OA
ATOM      5  N   UNL     1      -6.059   0.226   0.634  0.00  0.00    -0.286 N 
ATOM      6  H   UNL     1      -6.290  -0.716   0.641  0.00  0.00    +0.155 HD
BRANCH   5   7
ATOM      7  C   UNL     1      -7.050   1.191   0.861  0.00  0.00    +0.047 A 
ATOM      8  C   UNL     1      -6.704   2.439   1.358  0.00  0.00    +0.024 A 
ATOM      9  C   UNL     1      -7.683   3.391   1.576  0.00  0.00    +0.002 A 
ATOM     10  C   UNL     1      -9.008   3.100   1.310  0.00  0.00    +0.001 A 
ATOM     11  C   UNL     1      -9.363   1.858   0.821  0.00  0.00    +0.017 A 
ATOM     12  C   UNL     1      -8.387   0.897   0.594  0.00  0.00    +0.034 A 
BRANCH  12  13
ATOM     13  S   UNL     1      -8.836  -0.689  -0.030  0.00  0.00    -0.088 S 
BRANCH  13  14
ATOM     14  C   UNL     1     -10.563  -0.548  -0.348  0.00  0.00    +0.013 A 
ATOM     15  C   UNL     1     -11.484  -0.968   0.604  0.00  0.00    +0.015 A 
ATOM     16  C   UNL     1     -12.836  -0.852   0.352  0.00  0.00    +0.001 A 
ATOM     17  C   UNL     1     -13.276  -0.328  -0.850  0.00  0.00    +0.000 A 
ATOM     18  C   UNL     1     -12.362   0.086  -1.802  0.00  0.00    +0.001 A 
ATOM     19  C   UNL     1     -11.008  -0.022  -1.556  0.00  0.00    +0.015 A 
ENDBRANCH  13  14
ENDBRANCH  12  13
ENDBRANCH   5   7
ENDBRANCH   2   3
BRANCH   2  21
ATOM     20  C   UNL     1      -2.447   1.001  -1.213  0.00  0.00    -0.095 C 
ATOM     21  N   UNL     1      -2.409   0.255   0.063  0.00  0.00    +0.390 N 
ATOM     22  H   UNL     1      -2.244   0.916   0.831  0.00  0.00    -0.081 HD
BRANCH  21  23
ATOM     23  C   UNL     1      -1.311  -0.734   0.036  0.00  0.00    -0.003 C 
BRANCH  23  24
ATOM     24  C   UNL     1       0.005   0.000   0.029  0.00  0.00    +0.094 A 
ATOM     25  N   UNL     1       1.151  -0.730   0.024  0.00  0.00    -0.312 N 
ATOM     26  H   UNL     1       1.103  -1.699   0.025  0.00  0.00    +0.170 HD
ATOM     27  C   UNL     1       2.358  -0.118   0.017  0.00  0.00    +0.259 A 
ATOM     28  O   UNL     1       3.392  -0.760   0.011  0.00  0.00    -0.267 OA
ATOM     29  C   UNL     1       2.371   1.352   0.015  0.00  0.00    +0.065 A 
ATOM     30  C   UNL     1       3.561   2.078   0.008  0.00  0.00    +0.015 A 
ATOM     31  C   UNL     1       3.515   3.455   0.007  0.00  0.00    +0.001 A 
ATOM     32  C   UNL     1       2.297   4.122   0.013  0.00  0.00    +0.002 A 
ATOM     33  C   UNL     1       1.111   3.423   0.020  0.00  0.00    +0.028 A 
ATOM     34  C   UNL     1       1.130   2.027   0.021  0.00  0.00    +0.078 A 
ATOM     35  N   UNL     1      -0.014   1.298   0.028  0.00  0.00    -0.236 NA
ENDBRANCH  23  24
ENDBRANCH  21  23
ENDBRANCH   2  21
TORSDOF 7
