REMARK  Name = ZINC27695965
REMARK  15 active torsions:
REMARK  status: ('A' for Active; 'I' for Inactive)
REMARK    1  A    between atoms: C_1  and  C_2
REMARK    2  A    between atoms: C_2  and  C_4
REMARK    3  A    between atoms: C_2  and  C_16
REMARK    4  A    between atoms: C_9  and  O_14
REMARK    5  A    between atoms: O_14  and  C_15
REMARK    6  A    between atoms: N_24  and  C_25
REMARK    7  A    between atoms: C_25  and  C_26
REMARK    8  A    between atoms: C_26  and  C_28
REMARK    9  A    between atoms: C_26  and  O_40
REMARK   10  A    between atoms: C_28  and  N_29
REMARK   11  A    between atoms: N_29  and  C_30
REMARK   12  A    between atoms: N_29  and  C_37
REMARK   13  A    between atoms: C_30  and  C_31
REMARK   14  A    between atoms: C_37  and  C_38
REMARK   15  A    between atoms: C_37  and  C_39
REMARK                            x       y       z     vdW  Elec       q    Type
REMARK                         _______ _______ _______ _____ _____    ______ ____
ROOT
ATOM      1  C   UNL     1       2.948  -3.371   0.946  0.00  0.00    +0.118 A 
ATOM      2  N   UNL     1       4.147  -3.801   1.210  0.00  0.00    -0.232 NA
ATOM      3  C   UNL     1       4.207  -4.222   2.500  0.00  0.00    +0.089 A 
ATOM      4  C   UNL     1       5.223  -4.763   3.291  0.00  0.00    +0.030 A 
ATOM      5  C   UNL     1       4.970  -5.098   4.591  0.00  0.00    +0.002 A 
ATOM      6  C   UNL     1       3.709  -4.905   5.138  0.00  0.00    +0.002 A 
ATOM      7  C   UNL     1       2.691  -4.372   4.377  0.00  0.00    +0.028 A 
ATOM      8  C   UNL     1       2.930  -4.026   3.054  0.00  0.00    +0.069 A 
ATOM      9  N   UNL     1       2.158  -3.481   2.048  0.00  0.00    -0.325 N 
ENDROOT
BRANCH   1  11
ATOM     10  C   UNL     1       3.348  -1.604  -0.747  0.00  0.00    +0.020 C 
ATOM     11  C   UNL     1       2.501  -2.825  -0.386  0.00  0.00    +0.082 C 
BRANCH  11  12
ATOM     12  C   UNL     1       2.669  -3.884  -1.445  0.00  0.00    -0.037 A 
ATOM     13  C   UNL     1       3.935  -4.412  -1.693  0.00  0.00    +0.005 A 
ATOM     14  C   UNL     1       4.121  -5.369  -2.642  0.00  0.00    +0.009 A 
ATOM     15  C   UNL     1       3.023  -5.835  -3.385  0.00  0.00    -0.014 A 
ATOM     16  C   UNL     1       3.177  -6.822  -4.373  0.00  0.00    +0.054 A 
ATOM     17  C   UNL     1       2.087  -7.251  -5.075  0.00  0.00    +0.121 A 
ATOM     18  C   UNL     1       0.818  -6.720  -4.824  0.00  0.00    +0.046 A 
ATOM     19  C   UNL     1       0.635  -5.763  -3.876  0.00  0.00    +0.012 A 
ATOM     20  C   UNL     1       1.735  -5.298  -3.133  0.00  0.00    -0.017 A 
ATOM     21  C   UNL     1       1.582  -4.314  -2.141  0.00  0.00    +0.012 A 
BRANCH  17  22
ATOM     22  O   UNL     1       2.238  -8.206  -6.030  0.00  0.00    -0.495 OA
ATOM     23  C   UNL     1       1.061  -8.614  -6.731  0.00  0.00    +0.277 C 
ENDBRANCH  17  22
ENDBRANCH  11  12
ENDBRANCH   1  11
BRANCH   9  24
ATOM     24  C   UNL     1       0.748  -3.096   2.147  0.00  0.00    +0.153 C 
BRANCH  24  25
ATOM     25  C   UNL     1      -0.134  -4.288   1.769  0.00  0.00    +0.118 C 
BRANCH  25  26
ATOM     26  O   UNL     1       0.072  -4.616   0.393  0.00  0.00    -0.392 OA
ATOM     27  H   UNL     1      -0.092  -3.882  -0.215  0.00  0.00    +0.210 HD
ENDBRANCH  25  26
BRANCH  25  28
ATOM     28  C   UNL     1      -1.604  -3.926   1.992  0.00  0.00    -0.045 C 
BRANCH  28  29
ATOM     29  N   UNL     1      -2.436  -5.124   1.814  0.00  0.00    +0.386 N 
ATOM     30  H   UNL     1      -2.082  -5.869   2.395  0.00  0.00    -0.081 HD
BRANCH  29  31
ATOM     31  C   UNL     1      -2.398  -5.541   0.406  0.00  0.00    -0.074 C 
ATOM     32  C   UNL     1      -3.192  -6.838   0.236  0.00  0.00    -0.014 C 
ATOM     33  C   UNL     1      -3.017  -4.447  -0.467  0.00  0.00    -0.014 C 
ENDBRANCH  29  31
BRANCH  29  34
ATOM     34  C   UNL     1      -3.821  -4.819   2.197  0.00  0.00    -0.043 C 
BRANCH  34  35
ATOM     35  C   UNL     1      -4.633  -6.089   2.195  0.00  0.00    -0.064 A 
ATOM     36  C   UNL     1      -5.665  -6.248   1.290  0.00  0.00    +0.002 A 
ATOM     37  C   UNL     1      -6.410  -7.412   1.288  0.00  0.00    +0.000 A 
ATOM     38  C   UNL     1      -6.123  -8.418   2.191  0.00  0.00    +0.000 A 
ATOM     39  C   UNL     1      -5.090  -8.260   3.096  0.00  0.00    +0.000 A 
ATOM     40  C   UNL     1      -4.342  -7.097   3.095  0.00  0.00    +0.002 A 
ENDBRANCH  34  35
ENDBRANCH  29  34
ENDBRANCH  28  29
ENDBRANCH  25  28
ENDBRANCH  24  25
ENDBRANCH   9  24
TORSDOF 11
