REMARK  Name = ZINC09312734
REMARK  5 active torsions:
REMARK  status: ('A' for Active; 'I' for Inactive)
REMARK    1  A    between atoms: C_4  and  C_7
REMARK    2  A    between atoms: C_15  and  O_32
REMARK    3  A    between atoms: C_16  and  N_17
REMARK    4  A    between atoms: C_22  and  C_23
REMARK    5  A    between atoms: C_22  and  N_58
REMARK                            x       y       z     vdW  Elec       q    Type
REMARK                         _______ _______ _______ _____ _____    ______ ____
ROOT
ATOM      1  C   UNL     1       9.965  -4.064  -0.616  0.00  0.00    +0.018 A 
ATOM      2  C   UNL     1      10.946  -4.314  -1.612  0.00  0.00    +0.011 A 
ATOM      3  C   UNL     1      12.031  -5.165  -1.364  0.00  0.00    +0.030 A 
ATOM      4  C   UNL     1      12.958  -5.377  -2.342  0.00  0.00    +0.042 A 
ATOM      5  C   UNL     1      12.840  -4.757  -3.584  0.00  0.00    +0.022 A 
ATOM      6  C   UNL     1      11.797  -3.925  -3.855  0.00  0.00    +0.030 A 
ATOM      7  C   UNL     1      10.822  -3.683  -2.872  0.00  0.00    +0.076 A 
ATOM      8  N   UNL     1       9.789  -2.867  -3.118  0.00  0.00    -0.211 NA
ATOM      9  C   UNL     1       8.867  -2.625  -2.214  0.00  0.00    +0.235 A 
ATOM     10  C   UNL     1       8.915  -3.211  -0.937  0.00  0.00    +0.100 A 
ATOM     11 CL   UNL     1      14.303  -6.432  -2.034  0.00  0.00    -0.084 Cl
ENDROOT
BRANCH  10  12
ATOM     12  N   UNL     1       7.920  -2.934   0.002  0.00  0.00    -0.329 N 
ATOM     13  C   UNL     1       7.929  -1.512   0.374  0.00  0.00    +0.087 C 
ATOM     14  C   UNL     1       6.880  -1.266   1.462  0.00  0.00    -0.059 C 
ATOM     15  C   UNL     1       5.549  -3.091   0.591  0.00  0.00    -0.059 C 
ATOM     16  C   UNL     1       6.598  -3.337  -0.496  0.00  0.00    +0.087 C 
ATOM     17  N   UNL     1       5.553  -1.655   0.940  0.00  0.00    +0.384 N 
ATOM     18  H   UNL     1       5.352  -1.106   0.096  0.00  0.00    -0.081 HD
BRANCH  17  19
ATOM     19  C   UNL     1       4.511  -1.378   1.952  0.00  0.00    -0.043 C 
BRANCH  19  20
ATOM     20  C   UNL     1       3.156  -1.572   1.321  0.00  0.00    -0.060 A 
ATOM     21  C   UNL     1       2.541  -2.809   1.376  0.00  0.00    +0.005 A 
ATOM     22  C   UNL     1       1.298  -2.992   0.799  0.00  0.00    +0.050 A 
ATOM     23  C   UNL     1       0.666  -1.935   0.164  0.00  0.00    +0.166 A 
ATOM     24  C   UNL     1       1.286  -0.690   0.109  0.00  0.00    +0.166 A 
ATOM     25  C   UNL     1       2.531  -0.513   0.690  0.00  0.00    +0.051 A 
ATOM     26  O   UNL     1       0.470   0.175  -0.562  0.00  0.00    -0.453 OA
ATOM     27  C   UNL     1      -0.830  -0.445  -0.561  0.00  0.00    +0.466 C 
ATOM     28  O   UNL     1      -0.538  -1.852  -0.473  0.00  0.00    -0.453 OA
ENDBRANCH  19  20
ENDBRANCH  17  19
ENDBRANCH  10  12
BRANCH   1  32
ATOM     29  C   UNL     1      10.223  -5.878   3.218  0.00  0.00    +0.000 A 
ATOM     30  C   UNL     1       9.979  -6.659   2.102  0.00  0.00    +0.001 A 
ATOM     31  C   UNL     1       9.894  -6.076   0.854  0.00  0.00    +0.008 A 
ATOM     32  C   UNL     1      10.055  -4.696   0.719  0.00  0.00    -0.015 A 
ATOM     33  C   UNL     1      10.306  -3.916   1.848  0.00  0.00    +0.008 A 
ATOM     34  C   UNL     1      10.383  -4.510   3.091  0.00  0.00    +0.001 A 
ENDBRANCH   1  32
BRANCH   9  35
ATOM     35  O   UNL     1       7.843  -1.790  -2.520  0.00  0.00    -0.491 OA
ATOM     36  H   UNL     1       8.017  -0.862  -2.312  0.00  0.00    +0.294 HD
ENDBRANCH   9  35
TORSDOF 5
