REMARK  Name = ZINC03312530
REMARK  8 active torsions:
REMARK  status: ('A' for Active; 'I' for Inactive)
REMARK    1  A    between atoms: C_1  and  O_2
REMARK    2  A    between atoms: O_2  and  C_3
REMARK    3  A    between atoms: C_3  and  C_5
REMARK    4  A    between atoms: C_9  and  N_10
REMARK    5  A    between atoms: C_11  and  C_13
REMARK    6  A    between atoms: C_13  and  S_14
REMARK    7  A    between atoms: S_14  and  C_15
REMARK    8  A    between atoms: N_28  and  C_29
REMARK                            x       y       z     vdW  Elec       q    Type
REMARK                         _______ _______ _______ _____ _____    ______ ____
ROOT
ATOM      1  C   UNL     1       8.414  -3.352   1.472  0.00  0.00    +0.198 A 
ATOM      2  N   UNL     1       8.835  -2.115   1.363  0.00  0.00    -0.120 NA
ATOM      3  N   UNL     1       9.613  -1.825   2.344  0.00  0.00    -0.109 NA
ATOM      4  C   UNL     1       9.737  -2.859   3.142  0.00  0.00    +0.245 A 
ATOM      5  N   UNL     1       8.971  -3.865   2.612  0.00  0.00    -0.255 N 
ATOM      6  C   UNL     1       8.888  -5.103   3.236  0.00  0.00    +0.064 A 
ATOM      7  C   UNL     1       8.118  -6.127   2.705  0.00  0.00    +0.027 A 
ATOM      8  C   UNL     1       8.056  -7.346   3.349  0.00  0.00    +0.002 A 
ATOM      9  C   UNL     1       8.758  -7.559   4.525  0.00  0.00    +0.001 A 
ATOM     10  C   UNL     1       9.529  -6.553   5.068  0.00  0.00    +0.015 A 
ATOM     11  C   UNL     1       9.600  -5.317   4.428  0.00  0.00    +0.064 A 
ATOM     12  C   UNL     1      10.413  -4.217   4.976  0.00  0.00    +0.268 A 
ATOM     13  O   UNL     1      11.042  -4.368   6.006  0.00  0.00    -0.267 OA
ATOM     14  N   UNL     1      10.454  -3.042   4.314  0.00  0.00    -0.245 N 
ENDROOT
BRANCH  14  15
ATOM     15  C   UNL     1      11.220  -1.988   4.826  0.00  0.00    +0.053 A 
ATOM     16  C   UNL     1      12.549  -1.845   4.446  0.00  0.00    +0.026 A 
ATOM     17  C   UNL     1      13.302  -0.805   4.953  0.00  0.00    +0.002 A 
ATOM     18  C   UNL     1      12.735   0.094   5.838  0.00  0.00    +0.000 A 
ATOM     19  C   UNL     1      11.413  -0.045   6.218  0.00  0.00    +0.002 A 
ATOM     20  C   UNL     1      10.652  -1.081   5.710  0.00  0.00    +0.026 A 
ENDBRANCH  14  15
BRANCH   1  21
ATOM     21  S   UNL     1       7.332  -4.192   0.364  0.00  0.00    -0.076 S 
BRANCH  21  22
ATOM     22  C   UNL     1       6.972  -2.960  -0.918  0.00  0.00    +0.173 C 
BRANCH  22  24
ATOM     23  N   UNL     1       5.637  -2.820  -2.995  0.00  0.00    -0.279 N 
ATOM     24  C   UNL     1       6.043  -3.558  -1.943  0.00  0.00    +0.228 C 
ATOM     25  O   UNL     1       5.661  -4.702  -1.821  0.00  0.00    -0.275 OA
ATOM     26  H   UNL     1       5.943  -1.905  -3.093  0.00  0.00    +0.155 HD
BRANCH  23  31
ATOM     27  C   UNL     1       4.267  -2.768  -5.072  0.00  0.00    +0.091 A 
ATOM     28  C   UNL     1       3.384  -3.574  -5.915  0.00  0.00    -0.021 A 
ATOM     29  C   UNL     1       3.181  -4.823  -5.459  0.00  0.00    -0.004 A 
ATOM     30  S   UNL     1       4.134  -4.916  -3.965  0.00  0.00    -0.077 S 
ATOM     31  C   UNL     1       4.783  -3.370  -3.938  0.00  0.00    +0.086 A 
ATOM     32  C   UNL     1       2.264  -5.606  -6.359  0.00  0.00    +0.043 C 
ATOM     33  C   UNL     1       1.567  -4.538  -7.232  0.00  0.00    +0.010 C 
ATOM     34  C   UNL     1       2.601  -3.394  -7.214  0.00  0.00    +0.037 C 
BRANCH  27  35
ATOM     35  C   UNL     1       4.596  -1.384  -5.418  0.00  0.00    +0.342 C 
ATOM     36  O   UNL     1       5.562  -1.145  -6.117  0.00  0.00    -0.245 OA
BRANCH  35  38
ATOM     37  C   UNL     1       4.206   0.951  -5.337  0.00  0.00    +0.280 C 
ATOM     38  O   UNL     1       3.827  -0.374  -4.961  0.00  0.00    -0.464 OA
ENDBRANCH  35  38
ENDBRANCH  27  35
ENDBRANCH  23  31
ENDBRANCH  22  24
ENDBRANCH  21  22
ENDBRANCH   1  21
TORSDOF 7
