REMARK  Name = ZINC29902278
REMARK  10 active torsions:
REMARK  status: ('A' for Active; 'I' for Inactive)
REMARK    1  A    between atoms: C_1  and  O_2
REMARK    2  A    between atoms: O_2  and  C_3
REMARK    3  A    between atoms: C_6  and  S_26
REMARK    4  A    between atoms: C_8  and  N_9
REMARK    5  A    between atoms: N_9  and  C_10
REMARK    6  A    between atoms: C_10  and  C_11
REMARK    7  A    between atoms: N_13  and  C_14
REMARK    8  A    between atoms: C_19  and  N_20
REMARK    9  A    between atoms: S_26  and  N_29
REMARK   10  A    between atoms: N_29  and  C_30
REMARK                            x       y       z     vdW  Elec       q    Type
REMARK                         _______ _______ _______ _____ _____    ______ ____
ROOT
ATOM      1  N   UNL     1      -0.010   1.452  -0.021  0.00  0.00    -0.333 N 
ATOM      2  H   UNL     1      -0.969   1.990   0.001  0.00  0.00    +0.147 HD
ENDROOT
BRANCH   1   8
ATOM      3  C   UNL     1       1.180   3.559  -0.036  0.00  0.00    +0.141 A 
ATOM      4  C   UNL     1       2.374   4.260  -0.058  0.00  0.00    +0.049 A 
ATOM      5  C   UNL     1       3.577   3.577  -0.084  0.00  0.00    +0.032 A 
ATOM      6  C   UNL     1       3.591   2.195  -0.090  0.00  0.00    +0.107 A 
ATOM      7  C   UNL     1       2.404   1.488  -0.064  0.00  0.00    +0.055 A 
ATOM      8  C   UNL     1       1.194   2.166  -0.042  0.00  0.00    +0.072 A 
BRANCH   6   9
ATOM      9  S   UNL     1       5.128   1.333  -0.124  0.00  0.00    +0.059 S 
ATOM     10  O   UNL     1       4.861   0.050  -0.675  0.00  0.00    -0.153 OA
ATOM     11  O   UNL     1       6.080   2.222  -0.690  0.00  0.00    -0.153 OA
BRANCH   9  12
ATOM     12  N   UNL     1       5.585   1.087   1.448  0.00  0.00    -0.187 NA
ATOM     13  H   UNL     1       6.394   1.698   1.875  0.00  0.00    +0.148 HD
BRANCH  12  14
ATOM     14  C   UNL     1       4.782   0.225   2.319  0.00  0.00    +0.077 C 
ATOM     15  C   UNL     1       4.705   0.594   3.802  0.00  0.00    +0.022 C 
ATOM     16  C   UNL     1       5.524  -0.620   3.357  0.00  0.00    +0.022 C 
ENDBRANCH  12  14
ENDBRANCH   9  12
ENDBRANCH   6   9
BRANCH   3  18
ATOM     17  C   UNL     1       0.059   5.656  -0.006  0.00  0.00    +0.277 C 
ATOM     18  O   UNL     1      -0.004   4.228  -0.010  0.00  0.00    -0.493 OA
ENDBRANCH   3  18
ENDBRANCH   1   8
BRANCH   1  19
ATOM     19  C   UNL     1       0.007  -0.013  -0.027  0.00  0.00    +0.198 C 
BRANCH  19  20
ATOM     20  C   UNL     1      -1.408  -0.532  -0.001  0.00  0.00    +0.234 C 
ATOM     21  O   UNL     1      -2.338   0.245   0.021  0.00  0.00    -0.274 OA
ATOM     22  N   UNL     1      -1.639  -1.860  -0.002  0.00  0.00    -0.282 N 
ATOM     23  H   UNL     1      -0.799  -2.564  -0.097  0.00  0.00    +0.155 HD
BRANCH  22  24
ATOM     24  C   UNL     1      -2.947  -2.343   0.119  0.00  0.00    +0.061 A 
ATOM     25  C   UNL     1      -4.000  -1.648  -0.458  0.00  0.00    +0.045 A 
ATOM     26  C   UNL     1      -5.291  -2.130  -0.342  0.00  0.00    +0.043 A 
ATOM     27  C   UNL     1      -5.538  -3.299   0.358  0.00  0.00    +0.022 A 
ATOM     28  C   UNL     1      -4.494  -3.993   0.939  0.00  0.00    +0.031 A 
ATOM     29  C   UNL     1      -3.196  -3.520   0.823  0.00  0.00    +0.088 A 
ATOM     30 CL   UNL     1      -6.608  -1.263  -1.069  0.00  0.00    -0.083 Cl
BRANCH  29  31
ATOM     31  N   UNL     1      -2.135  -4.223   1.414  0.00  0.00    -0.218 N 
ATOM     32  C   UNL     1      -2.205  -5.413   2.040  0.00  0.00    +0.225 A 
ATOM     33  N   UNL     1      -1.002  -5.729   2.446  0.00  0.00    -0.222 NA
ATOM     34  C   UNL     1      -0.144  -4.768   2.108  0.00  0.00    +0.245 A 
ATOM     35  N   UNL     1      -0.790  -3.824   1.474  0.00  0.00    -0.153 NA
ENDBRANCH  29  31
ENDBRANCH  22  24
ENDBRANCH  19  20
ENDBRANCH   1  19
TORSDOF 9
