REMARK  Name = ZINC16650996
REMARK  11 active torsions:
REMARK  status: ('A' for Active; 'I' for Inactive)
REMARK    1  A    between atoms: C_1  and  C_2
REMARK    2  A    between atoms: C_5  and  C_7
REMARK    3  A    between atoms: C_7  and  N_8
REMARK    4  A    between atoms: N_8  and  C_9
REMARK    5  A    between atoms: C_9  and  C_10
REMARK    6  A    between atoms: C_16  and  C_18
REMARK    7  A    between atoms: C_18  and  N_19
REMARK    8  A    between atoms: N_19  and  C_20
REMARK    9  A    between atoms: C_20  and  C_21
REMARK   10  A    between atoms: N_29  and  C_30
REMARK   11  A    between atoms: C_35  and  C_36
REMARK                            x       y       z     vdW  Elec       q    Type
REMARK                         _______ _______ _______ _____ _____    ______ ____
ROOT
ATOM      1  N   UNL     1       3.104   3.590   0.740  0.00  0.00    -0.274 N 
ATOM      2  C   UNL     1       3.456   4.481  -0.208  0.00  0.00    +0.307 C 
ATOM      3  O   UNL     1       4.614   4.839  -0.305  0.00  0.00    -0.252 OA
ATOM      4  N   UNL     1       2.525   4.976  -1.047  0.00  0.00    -0.269 N 
ATOM      5  H   UNL     1       1.615   4.641  -1.012  0.00  0.00    +0.156 HD
ENDROOT
BRANCH   4   6
ATOM      6  C   UNL     1       2.870   5.971  -1.968  0.00  0.00    +0.046 A 
ATOM      7  C   UNL     1       4.131   5.972  -2.551  0.00  0.00    +0.024 A 
ATOM      8  C   UNL     1       4.469   6.955  -3.460  0.00  0.00    +0.002 A 
ATOM      9  C   UNL     1       3.553   7.938  -3.790  0.00  0.00    +0.001 A 
ATOM     10  C   UNL     1       2.297   7.939  -3.212  0.00  0.00    +0.014 A 
ATOM     11  C   UNL     1       1.952   6.956  -2.305  0.00  0.00    +0.076 A 
BRANCH  11  12
ATOM     12  C   UNL     1       0.581   6.955  -1.680  0.00  0.00    +0.419 C 
ATOM     13  F   UNL     1      -0.158   8.036  -2.173  0.00  0.00    -0.166 F 
ATOM     14  F   UNL     1      -0.075   5.760  -1.995  0.00  0.00    -0.166 F 
ATOM     15  F   UNL     1       0.702   7.068  -0.291  0.00  0.00    -0.166 F 
ENDBRANCH  11  12
ENDBRANCH   4   6
BRANCH   1  16
ATOM     16  C   UNL     1       4.117   3.053   1.653  0.00  0.00    +0.205 C 
BRANCH  16  18
ATOM     17  N   UNL     1       5.676   1.134   1.727  0.00  0.00    -0.289 N 
ATOM     18  C   UNL     1       4.716   1.804   1.059  0.00  0.00    +0.234 C 
ATOM     19  O   UNL     1       4.335   1.403  -0.020  0.00  0.00    -0.274 OA
BRANCH  17  20
ATOM     20  C   UNL     1       6.136   1.619   3.030  0.00  0.00    +0.182 C 
BRANCH  20  25
ATOM     21  C   UNL     1       2.436   0.918   6.385  0.00  0.00    +0.086 C 
ATOM     22  C   UNL     1       3.689   0.697   5.579  0.00  0.00    +0.102 A 
ATOM     23  C   UNL     1       4.523  -0.353   5.694  0.00  0.00    +0.045 A 
ATOM     24  C   UNL     1       5.560  -0.156   4.753  0.00  0.00    +0.046 A 
ATOM     25  C   UNL     1       5.298   1.002   4.120  0.00  0.00    +0.122 A 
ATOM     26  O   UNL     1       4.167   1.517   4.629  0.00  0.00    -0.463 OA
ENDBRANCH  20  25
ENDBRANCH  17  20
BRANCH  17  27
ATOM     27  C   UNL     1       6.259  -0.080   1.149  0.00  0.00    +0.143 C 
BRANCH  27  28
ATOM     28  C   UNL     1       7.454   0.288   0.308  0.00  0.00    -0.030 A 
ATOM     29  C   UNL     1       7.294   0.566  -1.036  0.00  0.00    +0.005 A 
ATOM     30  C   UNL     1       8.389   0.909  -1.806  0.00  0.00    +0.000 A 
ATOM     31  C   UNL     1       9.647   0.963  -1.235  0.00  0.00    +0.000 A 
ATOM     32  C   UNL     1       9.808   0.679   0.109  0.00  0.00    +0.000 A 
ATOM     33  C   UNL     1       8.711   0.342   0.880  0.00  0.00    +0.005 A 
ENDBRANCH  27  28
ENDBRANCH  17  27
ENDBRANCH  16  18
ENDBRANCH   1  16
BRANCH   1  34
ATOM     34  C   UNL     1       1.709   3.159   0.858  0.00  0.00    +0.141 C 
BRANCH  34  35
ATOM     35  C   UNL     1       1.480   1.928  -0.021  0.00  0.00    +0.136 C 
ATOM     36  C   UNL     1      -0.013   1.530  -0.010  0.00  0.00    +0.035 C 
ATOM     37  C   UNL     1       0.010  -0.015  -0.029  0.00  0.00    +0.031 C 
ATOM     38  C   UNL     1       1.514  -0.367  -0.049  0.00  0.00    +0.160 C 
ATOM     39  O   UNL     1       2.171   0.784   0.525  0.00  0.00    -0.375 OA
ENDBRANCH  34  35
ENDBRANCH   1  34
TORSDOF 10
