REMARK  Name = ZINC11677636
REMARK  4 active torsions:
REMARK  status: ('A' for Active; 'I' for Inactive)
REMARK    1  A    between atoms: C_7  and  C_22
REMARK    2  A    between atoms: C_14  and  C_15
REMARK    3  A    between atoms: N_16  and  N_17
REMARK    4  A    between atoms: N_23  and  N_24
REMARK                            x       y       z     vdW  Elec       q    Type
REMARK                         _______ _______ _______ _____ _____    ______ ____
ROOT
ATOM      1  C   UNL     1      -7.540   6.328  -4.178  0.00  0.00    +0.001 A 
ATOM      2  C   UNL     1      -8.604   7.021  -3.601  0.00  0.00    +0.001 A 
ATOM      3  C   UNL     1      -8.756   7.069  -2.250  0.00  0.00    +0.009 A 
ATOM      4  C   UNL     1      -7.831   6.413  -1.419  0.00  0.00    -0.008 A 
ATOM      5  C   UNL     1      -6.750   5.708  -2.006  0.00  0.00    -0.008 A 
ATOM      6  C   UNL     1      -6.625   5.681  -3.405  0.00  0.00    +0.009 A 
ATOM      7  C   UNL     1      -5.810   5.043  -1.187  0.00  0.00    +0.010 A 
ATOM      8  C   UNL     1      -5.955   5.078   0.218  0.00  0.00    -0.008 A 
ATOM      9  C   UNL     1      -5.026   4.427   1.049  0.00  0.00    +0.009 A 
ATOM     10  C   UNL     1      -5.178   4.476   2.401  0.00  0.00    +0.001 A 
ATOM     11  C   UNL     1      -6.241   5.169   2.977  0.00  0.00    +0.001 A 
ATOM     12  C   UNL     1      -7.156   5.816   2.205  0.00  0.00    +0.009 A 
ATOM     13  C   UNL     1      -7.032   5.787   0.805  0.00  0.00    -0.008 A 
ATOM     14  C   UNL     1      -7.973   6.452  -0.014  0.00  0.00    +0.010 A 
ENDROOT
BRANCH  14  15
ATOM     15  C   UNL     1      -9.089   7.180   0.592  0.00  0.00    +0.139 C 
ATOM     16  N   UNL     1     -10.314   6.887   0.260  0.00  0.00    -0.188 NA
BRANCH  16  17
ATOM     17  N   UNL     1     -10.571   5.792  -0.576  0.00  0.00    -0.210 N 
ATOM     18  C   UNL     1     -11.868   5.423  -0.847  0.00  0.00    +0.174 C 
ATOM     19  C   UNL     1     -14.135   5.457  -0.884  0.00  0.00    +0.134 C 
ATOM     20  C   UNL     1     -13.654   4.218  -1.667  0.00  0.00    +0.125 C 
ATOM     21  N   UNL     1     -12.187   4.307  -1.573  0.00  0.00    -0.316 N 
ATOM     22  H   UNL     1      -9.834   5.295  -0.963  0.00  0.00    +0.177 HD
ATOM     23  H   UNL     1     -11.555   3.680  -1.958  0.00  0.00    +0.149 HD
ATOM     24  N   UNL     1     -12.891   6.101  -0.432  0.00  0.00    -0.358 N 
ATOM     25  H   UNL     1     -12.842   6.960   0.129  0.00  0.00    +0.162 HD
ENDBRANCH  16  17
ENDBRANCH  14  15
BRANCH   7  26
ATOM     26  C   UNL     1      -4.694   4.315  -1.792  0.00  0.00    +0.139 C 
ATOM     27  N   UNL     1      -4.630   4.179  -3.087  0.00  0.00    -0.188 NA
BRANCH  27  28
ATOM     28  N   UNL     1      -3.562   3.483  -3.666  0.00  0.00    -0.210 N 
ATOM     29  C   UNL     1      -3.495   3.339  -5.034  0.00  0.00    +0.174 C 
ATOM     30  C   UNL     1      -4.042   3.503  -7.231  0.00  0.00    +0.134 C 
ATOM     31  C   UNL     1      -2.725   2.710  -7.113  0.00  0.00    +0.125 C 
ATOM     32  N   UNL     1      -2.479   2.671  -5.662  0.00  0.00    -0.316 N 
ATOM     33  H   UNL     1      -2.869   3.102  -3.104  0.00  0.00    +0.177 HD
ATOM     34  H   UNL     1      -1.725   2.244  -5.225  0.00  0.00    +0.149 HD
ATOM     35  N   UNL     1      -4.391   3.825  -5.834  0.00  0.00    -0.358 N 
ATOM     36  H   UNL     1      -5.220   4.355  -5.539  0.00  0.00    +0.162 HD
ENDBRANCH  27  28
ENDBRANCH   7  26
TORSDOF 4
