REMARK  Name = ZINC39909794
REMARK  5 active torsions:
REMARK  status: ('A' for Active; 'I' for Inactive)
REMARK    1  A    between atoms: C_1  and  C_2
REMARK    2  A    between atoms: C_2  and  O_3
REMARK    3  A    between atoms: O_3  and  C_4
REMARK    4  A    between atoms: C_7  and  N_10
REMARK    5  A    between atoms: C_16  and  C_17
REMARK                            x       y       z     vdW  Elec       q    Type
REMARK                         _______ _______ _______ _____ _____    ______ ____
ROOT
ATOM      1  N   UNL     1       1.101  -5.936  -1.835  0.00  0.00    -0.296 N 
ATOM      2  C   UNL     1       1.641  -6.445  -2.982  0.00  0.00    +0.156 C 
ATOM      3  N   UNL     1       2.197  -5.789  -3.989  0.00  0.00    -0.154 NA
ATOM      4  C   UNL     1       2.685  -6.399  -5.046  0.00  0.00    +0.276 C 
ATOM      5  O   UNL     1       3.195  -5.785  -5.968  0.00  0.00    -0.267 OA
ATOM      6  C   UNL     1       2.579  -7.885  -5.053  0.00  0.00    +0.079 C 
ATOM      7  C   UNL     1       2.991  -8.795  -6.002  0.00  0.00    +0.026 C 
ATOM      8  S   UNL     1       1.775  -8.156  -3.479  0.00  0.00    -0.051 S 
ATOM      9  H   UNL     1       0.796  -6.534  -1.135  0.00  0.00    +0.154 HD
ENDROOT
BRANCH   7  10
ATOM     10  C   UNL     1       2.786 -10.164  -5.794  0.00  0.00    -0.018 C 
ATOM     11  C   UNL     1       3.145 -11.207  -6.643  0.00  0.00    +0.003 A 
ATOM     12  C   UNL     1       3.784 -11.238  -7.902  0.00  0.00    +0.010 A 
ATOM     13  C   UNL     1       4.011 -12.428  -8.513  0.00  0.00    +0.001 A 
ATOM     14  C   UNL     1       3.624 -13.639  -7.928  0.00  0.00    +0.002 A 
ATOM     15  C   UNL     1       3.007 -13.688  -6.725  0.00  0.00    +0.026 A 
ATOM     16  C   UNL     1       2.735 -12.481  -6.021  0.00  0.00    +0.043 A 
ATOM     17  N   UNL     1       2.160 -12.262  -4.862  0.00  0.00    -0.380 N 
ATOM     18  C   UNL     1       2.135 -10.820  -4.597  0.00  0.00    +0.149 C 
ATOM     19  H   UNL     1       1.809 -12.947  -4.271  0.00  0.00    +0.160 HD
ENDBRANCH   7  10
BRANCH   1  23
ATOM     20  C   UNL     1       0.759  -1.811  -1.344  0.00  0.00    +0.121 A 
ATOM     21  C   UNL     1       0.798  -2.357  -2.619  0.00  0.00    +0.047 A 
ATOM     22  C   UNL     1       0.912  -3.723  -2.783  0.00  0.00    +0.027 A 
ATOM     23  C   UNL     1       0.986  -4.551  -1.670  0.00  0.00    +0.033 A 
ATOM     24  C   UNL     1       0.947  -4.004  -0.394  0.00  0.00    +0.027 A 
ATOM     25  C   UNL     1       0.839  -2.637  -0.232  0.00  0.00    +0.047 A 
BRANCH  20  26
ATOM     26  O   UNL     1       0.648  -0.466  -1.184  0.00  0.00    -0.492 OA
BRANCH  26  28
ATOM     27  C   UNL     1       0.451   1.803  -1.994  0.00  0.00    +0.048 C 
ATOM     28  C   UNL     1       0.571   0.325  -2.372  0.00  0.00    +0.225 C 
ENDBRANCH  26  28
ENDBRANCH  20  26
ENDBRANCH   1  23
TORSDOF 4
