REMARK  Name = ZINC38722077
REMARK  9 active torsions:
REMARK  status: ('A' for Active; 'I' for Inactive)
REMARK    1  A    between atoms: C_1  and  C_2
REMARK    2  A    between atoms: C_5  and  N_9
REMARK    3  A    between atoms: C_6  and  C_8
REMARK    4  A    between atoms: C_10  and  S_15
REMARK    5  A    between atoms: S_15  and  C_16
REMARK    6  A    between atoms: C_16  and  C_18
REMARK    7  A    between atoms: C_16  and  C_19
REMARK    8  A    between atoms: C_19  and  C_21
REMARK    9  A    between atoms: C_29  and  C_31
REMARK                            x       y       z     vdW  Elec       q    Type
REMARK                         _______ _______ _______ _____ _____    ______ ____
ROOT
ATOM      1  S   UNL     1      -2.679  -4.738   0.105  0.00  0.00    -0.105 S 
ENDROOT
BRANCH   1   3
ATOM      2  N   UNL     1      -0.388  -3.357  -0.344  0.00  0.00    -0.173 N 
ATOM      3  C   UNL     1      -1.125  -4.547  -0.810  0.00  0.00    +0.260 C 
ATOM      4  N   UNL     1      -0.195  -5.651  -0.504  0.00  0.00    -0.218 N 
ATOM      5  N   UNL     1       0.931  -5.054   0.075  0.00  0.00    -0.063 NA
ATOM      6  N   UNL     1       0.830  -3.833   0.156  0.00  0.00    -0.056 NA
ATOM      7  H   UNL     1      -0.336  -6.596  -0.670  0.00  0.00    +0.173 HD
BRANCH   2  12
ATOM      8  C   UNL     1      -2.121   2.037  -0.554  0.00  0.00    +0.044 C 
ATOM      9  C   UNL     1      -1.660   0.604  -0.498  0.00  0.00    -0.050 A 
ATOM     10  C   UNL     1      -2.017  -0.194   0.574  0.00  0.00    +0.005 A 
ATOM     11  C   UNL     1      -1.597  -1.508   0.628  0.00  0.00    +0.025 A 
ATOM     12  C   UNL     1      -0.815  -2.029  -0.396  0.00  0.00    +0.059 A 
ATOM     13  C   UNL     1      -0.458  -1.225  -1.471  0.00  0.00    -0.027 A 
ATOM     14  C   UNL     1      -0.886   0.087  -1.521  0.00  0.00    +0.008 A 
ATOM     15  C   UNL     1       0.390  -1.785  -2.583  0.00  0.00    +0.046 C 
ENDBRANCH   2  12
ENDBRANCH   1   3
BRANCH   1  16
ATOM     16  C   UNL     1      -2.161  -4.798   1.843  0.00  0.00    +0.117 C 
ATOM     17  C   UNL     1      -1.501  -6.147   2.132  0.00  0.00    +0.027 C 
BRANCH  16  18
ATOM     18  C   UNL     1      -3.366  -4.627   2.732  0.00  0.00    +0.174 C 
ATOM     19  O   UNL     1      -4.471  -4.917   2.321  0.00  0.00    -0.291 OA
BRANCH  18  20
ATOM     20  C   UNL     1      -3.210  -4.129   4.044  0.00  0.00    +0.027 C 
ATOM     21  C   UNL     1      -2.022  -3.859   4.700  0.00  0.00    +0.006 A 
ATOM     22  C   UNL     1      -0.664  -3.977   4.320  0.00  0.00    +0.010 A 
ATOM     23  C   UNL     1       0.317  -3.632   5.184  0.00  0.00    +0.001 A 
ATOM     24  C   UNL     1       0.049  -3.150   6.475  0.00  0.00    +0.002 A 
ATOM     25  C   UNL     1      -1.212  -3.000   6.936  0.00  0.00    +0.026 A 
ATOM     26  C   UNL     1      -2.340  -3.352   6.058  0.00  0.00    +0.043 A 
ATOM     27  N   UNL     1      -3.629  -3.309   6.239  0.00  0.00    -0.377 N 
ATOM     28  C   UNL     1      -4.306  -3.774   5.024  0.00  0.00    +0.111 C 
ATOM     29  C   UNL     1      -5.154  -5.008   5.337  0.00  0.00    +0.035 C 
ATOM     30  H   UNL     1      -4.072  -3.011   7.049  0.00  0.00    +0.160 HD
ENDBRANCH  18  20
ENDBRANCH  16  18
ENDBRANCH   1  16
TORSDOF 5
