REMARK  Name = ZINC42445666
REMARK  9 active torsions:
REMARK  status: ('A' for Active; 'I' for Inactive)
REMARK    1  A    between atoms: C_1  and  C_2
REMARK    2  A    between atoms: C_2  and  N_3
REMARK    3  A    between atoms: N_3  and  C_4
REMARK    4  A    between atoms: C_4  and  C_5
REMARK    5  A    between atoms: C_5  and  C_7
REMARK    6  A    between atoms: C_5  and  C_8
REMARK    7  A    between atoms: N_9  and  O_10
REMARK    8  A    between atoms: C_12  and  C_14
REMARK    9  A    between atoms: C_14  and  C_15
REMARK                            x       y       z     vdW  Elec       q    Type
REMARK                         _______ _______ _______ _____ _____    ______ ____
ROOT
ATOM      1  N   UNL     1       0.688  -0.476  -1.203  0.00  0.00    -0.301 N 
ATOM      2  C   UNL     1      -0.013  -0.705  -2.332  0.00  0.00    +0.220 C 
ATOM      3  O   UNL     1       0.555  -1.096  -3.330  0.00  0.00    -0.275 OA
ENDROOT
BRANCH   1   5
ATOM      4  C   UNL     1      -0.019   1.526   0.010  0.00  0.00    +0.024 C 
ATOM      5  C   UNL     1       0.002  -0.004   0.002  0.00  0.00    +0.104 C 
ENDBRANCH   1   5
BRANCH   1   6
ATOM      6  C   UNL     1       2.135  -0.701  -1.182  0.00  0.00    +0.118 C 
BRANCH   6   7
ATOM      7  C   UNL     1       2.421  -2.145  -0.763  0.00  0.00    +0.070 C 
ATOM      8  C   UNL     1       1.957  -2.359   0.679  0.00  0.00    +0.017 C 
BRANCH   7   9
ATOM      9  C   UNL     1       3.901  -2.412  -0.860  0.00  0.00    +0.136 C 
ATOM     10  N   UNL     1       4.650  -2.286   0.185  0.00  0.00    -0.076 NA
ATOM     11  N   UNL     1       4.456  -2.790  -2.062  0.00  0.00    -0.344 N 
ATOM     12  H   UNL     1       3.894  -2.885  -2.847  0.00  0.00    +0.144 HD
ATOM     13  H   UNL     1       5.408  -2.962  -2.124  0.00  0.00    +0.144 HD
BRANCH  10  14
ATOM     14  O   UNL     1       6.040  -2.537   0.095  0.00  0.00    -0.408 OA
ATOM     15  H   UNL     1       6.517  -2.417   0.928  0.00  0.00    +0.328 HD
ENDBRANCH  10  14
ENDBRANCH   7   9
ENDBRANCH   6   7
ENDBRANCH   1   6
BRANCH   2  16
ATOM     16  C   UNL     1      -1.502  -0.473  -2.354  0.00  0.00    +0.131 C 
BRANCH  16  17
ATOM     17  C   UNL     1      -2.041  -0.800  -3.723  0.00  0.00    -0.039 A 
ATOM     18  C   UNL     1      -2.102   0.183  -4.693  0.00  0.00    +0.005 A 
ATOM     19  C   UNL     1      -2.596  -0.116  -5.949  0.00  0.00    +0.015 A 
ATOM     20  C   UNL     1      -3.029  -1.398  -6.235  0.00  0.00    +0.018 A 
ATOM     21  C   UNL     1      -2.968  -2.381  -5.263  0.00  0.00    +0.015 A 
ATOM     22  C   UNL     1      -2.469  -2.083  -4.009  0.00  0.00    +0.005 A 
ATOM     23 BR   UNL     1      -3.705  -1.808  -7.952  0.00  0.00    -0.050 Br
ENDBRANCH  16  17
ENDBRANCH   2  16
TORSDOF 7
