REMARK  Name = ZINC16903920
REMARK  9 active torsions:
REMARK  status: ('A' for Active; 'I' for Inactive)
REMARK    1  A    between atoms: C_1  and  C_2
REMARK    2  A    between atoms: C_8  and  C_16
REMARK    3  A    between atoms: C_16  and  O_18
REMARK    4  A    between atoms: O_18  and  C_19
REMARK    5  A    between atoms: C_19  and  C_21
REMARK    6  A    between atoms: C_19  and  C_22
REMARK    7  A    between atoms: N_24  and  C_25
REMARK    8  A    between atoms: C_29  and  S_31
REMARK    9  A    between atoms: S_31  and  N_34
REMARK                            x       y       z     vdW  Elec       q    Type
REMARK                         _______ _______ _______ _____ _____    ______ ____
ROOT
ATOM      1  O   UNL     1      -0.340   2.921  -4.370  0.00  0.00    -0.449 OA
ENDROOT
BRANCH   1   2
ATOM      2  C   UNL     1      -1.424   3.043  -3.579  0.00  0.00    +0.341 C 
ATOM      3  O   UNL     1      -2.486   2.566  -3.926  0.00  0.00    -0.245 OA
BRANCH   2  11
ATOM      4  C   UNL     1      -2.483   8.053  -4.434  0.00  0.00    +0.044 C 
ATOM      5  C   UNL     1      -2.118   7.243  -3.216  0.00  0.00    -0.050 A 
ATOM      6  C   UNL     1      -2.011   7.872  -1.978  0.00  0.00    +0.005 A 
ATOM      7  C   UNL     1      -1.683   7.170  -0.860  0.00  0.00    +0.028 A 
ATOM      8  C   UNL     1      -1.446   5.786  -0.948  0.00  0.00    +0.072 A 
ATOM      9  C   UNL     1      -1.558   5.150  -2.210  0.00  0.00    +0.015 A 
ATOM     10  C   UNL     1      -1.897   5.904  -3.341  0.00  0.00    +0.014 A 
ATOM     11  C   UNL     1      -1.321   3.757  -2.289  0.00  0.00    +0.073 A 
ATOM     12  C   UNL     1      -0.989   3.075  -1.119  0.00  0.00    -0.012 A 
ATOM     13  C   UNL     1      -0.895   3.773   0.078  0.00  0.00    +0.046 A 
ATOM     14  N   UNL     1      -1.122   5.071   0.127  0.00  0.00    -0.251 NA
ATOM     15  C   UNL     1      -0.524   3.093   1.373  0.00  0.00    +0.056 C 
ATOM     16  C   UNL     1      -0.721   1.583   1.263  0.00  0.00    +0.006 C 
ATOM     17  C   UNL     1       0.009   1.088   0.009  0.00  0.00    +0.005 C 
ATOM     18  C   UNL     1      -0.746   1.593  -1.219  0.00  0.00    +0.038 C 
ENDBRANCH   2  11
ENDBRANCH   1   2
BRANCH   1  19
ATOM     19  C   UNL     1      -0.514   2.207  -5.622  0.00  0.00    +0.259 C 
ATOM     20  C   UNL     1      -0.234   0.719  -5.404  0.00  0.00    +0.062 C 
BRANCH  19  21
ATOM     21  C   UNL     1       0.444   2.753  -6.649  0.00  0.00    +0.258 C 
ATOM     22  O   UNL     1       1.261   3.592  -6.331  0.00  0.00    -0.271 OA
ATOM     23  N   UNL     1       0.393   2.310  -7.921  0.00  0.00    -0.282 N 
ATOM     24  H   UNL     1      -0.214   1.593  -8.160  0.00  0.00    +0.155 HD
BRANCH  23  25
ATOM     25  C   UNL     1       1.216   2.885  -8.896  0.00  0.00    +0.035 A 
ATOM     26  C   UNL     1       2.494   3.314  -8.562  0.00  0.00    +0.023 A 
ATOM     27  C   UNL     1       3.304   3.882  -9.527  0.00  0.00    +0.004 A 
ATOM     28  C   UNL     1       2.843   4.023 -10.823  0.00  0.00    +0.028 A 
ATOM     29  C   UNL     1       1.571   3.596 -11.158  0.00  0.00    +0.107 A 
ATOM     30  C   UNL     1       0.758   3.023 -10.199  0.00  0.00    +0.051 A 
BRANCH  29  31
ATOM     31  S   UNL     1       0.989   3.777 -12.811  0.00  0.00    +0.056 S 
ATOM     32  O   UNL     1      -0.430   3.799 -12.742  0.00  0.00    -0.153 OA
ATOM     33  O   UNL     1       1.740   4.834 -13.393  0.00  0.00    -0.153 OA
BRANCH  31  34
ATOM     34  N   UNL     1       1.401   2.398 -13.630  0.00  0.00    -0.204 NA
ATOM     35  H   UNL     1       1.878   1.687 -13.172  0.00  0.00    +0.144 HD
ATOM     36  H   UNL     1       1.167   2.301 -14.566  0.00  0.00    +0.144 HD
ENDBRANCH  31  34
ENDBRANCH  29  31
ENDBRANCH  23  25
ENDBRANCH  19  21
ENDBRANCH   1  19
TORSDOF 7
