REMARK  Name = ZINC07989047
REMARK  8 active torsions:
REMARK  status: ('A' for Active; 'I' for Inactive)
REMARK    1  A    between atoms: C_1  and  C_2
REMARK    2  A    between atoms: C_2  and  C_3
REMARK    3  A    between atoms: C_3  and  C_25
REMARK    4  A    between atoms: N_6  and  C_10
REMARK    5  A    between atoms: C_10  and  C_11
REMARK    6  A    between atoms: N_13  and  C_14
REMARK    7  A    between atoms: C_19  and  C_24
REMARK    8  A    between atoms: C_21  and  C_23
REMARK                            x       y       z     vdW  Elec       q    Type
REMARK                         _______ _______ _______ _____ _____    ______ ____
ROOT
ATOM      1  C   UNL     1      -1.433  -0.534   0.013  0.00  0.00    +0.138 C 
ATOM      2  C   UNL     1      -2.192  -0.043  -1.205  0.00  0.00    +0.251 C 
ATOM      3  O   UNL     1      -1.933  -0.267  -2.368  0.00  0.00    -0.272 OA
ATOM      4  N   UNL     1      -3.214   0.692  -0.725  0.00  0.00    -0.215 N 
ATOM      5  C   UNL     1      -3.207   0.734   0.612  0.00  0.00    +0.310 C 
ATOM      6  O   UNL     1      -4.031   1.335   1.273  0.00  0.00    -0.252 OA
ATOM      7  N   UNL     1      -2.187   0.036   1.143  0.00  0.00    -0.281 N 
ATOM      8  H   UNL     1      -1.987  -0.072   2.086  0.00  0.00    +0.152 HD
ENDROOT
BRANCH   1   9
ATOM      9  C   UNL     1      -1.441  -2.039   0.076  0.00  0.00    -0.015 A 
ATOM     10  C   UNL     1      -0.400  -2.759  -0.481  0.00  0.00    +0.007 A 
ATOM     11  C   UNL     1      -0.406  -4.140  -0.423  0.00  0.00    +0.020 A 
ATOM     12  C   UNL     1      -1.454  -4.802   0.191  0.00  0.00    +0.041 A 
ATOM     13  C   UNL     1      -2.496  -4.081   0.747  0.00  0.00    +0.020 A 
ATOM     14  C   UNL     1      -2.486  -2.700   0.694  0.00  0.00    +0.007 A 
ATOM     15 CL   UNL     1      -1.463  -6.537   0.262  0.00  0.00    -0.084 Cl
ENDBRANCH   1   9
BRANCH   1  17
ATOM     16  C   UNL     1      -0.019   1.526   0.010  0.00  0.00    +0.007 C 
ATOM     17  C   UNL     1       0.002  -0.004   0.002  0.00  0.00    +0.037 C 
ENDBRANCH   1  17
BRANCH   4  18
ATOM     18  C   UNL     1      -4.210   1.363  -1.565  0.00  0.00    +0.213 C 
BRANCH  18  19
ATOM     19  C   UNL     1      -5.368   0.431  -1.812  0.00  0.00    +0.231 C 
ATOM     20  O   UNL     1      -5.362  -0.684  -1.335  0.00  0.00    -0.274 OA
ATOM     21  N   UNL     1      -6.410   0.837  -2.564  0.00  0.00    -0.311 N 
ATOM     22  H   UNL     1      -6.415   1.728  -2.946  0.00  0.00    +0.149 HD
BRANCH  21  23
ATOM     23  C   UNL     1      -7.536  -0.069  -2.805  0.00  0.00    +0.076 C 
ATOM     24  C   UNL     1      -8.527   0.028  -1.643  0.00  0.00    +0.022 C 
ATOM     25  C   UNL     1      -9.702  -0.918  -1.895  0.00  0.00    +0.002 C 
ATOM     26  C   UNL     1     -10.404  -0.525  -3.196  0.00  0.00    +0.003 C 
ATOM     27  C   UNL     1      -9.414  -0.622  -4.359  0.00  0.00    -0.009 C 
ATOM     28  C   UNL     1      -8.238   0.324  -4.107  0.00  0.00    +0.009 C 
ATOM     29  C   UNL     1      -7.247   0.227  -5.269  0.00  0.00    +0.009 C 
ATOM     30  C   UNL     1      -8.898  -2.058  -4.471  0.00  0.00    +0.008 C 
ENDBRANCH  21  23
ENDBRANCH  18  19
ENDBRANCH   4  18
TORSDOF 5
