REMARK  Name = ZINC36302673
REMARK  2 active torsions:
REMARK  status: ('A' for Active; 'I' for Inactive)
REMARK    1  A    between atoms: C_2  and  N_7
REMARK    2  A    between atoms: C_8  and  C_10
REMARK                            x       y       z     vdW  Elec       q    Type
REMARK                         _______ _______ _______ _____ _____    ______ ____
ROOT
ATOM      1  C   UNL     1       3.467   4.812  -0.006  0.00  0.00    +0.113 A 
ATOM      2  C   UNL     1       3.699   5.473   1.206  0.00  0.00    +0.176 A 
ATOM      3  C   UNL     1       4.120   6.790   1.201  0.00  0.00    +0.197 A 
ATOM      4  C   UNL     1       4.314   7.456  -0.001  0.00  0.00    +0.199 A 
ATOM      5  C   UNL     1       4.087   6.806  -1.205  0.00  0.00    +0.197 A 
ATOM      6  C   UNL     1       3.670   5.487  -1.215  0.00  0.00    +0.176 A 
ATOM      7  F   UNL     1       3.454   4.854  -2.389  0.00  0.00    -0.201 F 
ATOM      8  F   UNL     1       4.277   7.461  -2.371  0.00  0.00    -0.199 F 
ATOM      9  F   UNL     1       4.725   8.742   0.002  0.00  0.00    -0.199 F 
ATOM     10  F   UNL     1       4.344   7.430   2.370  0.00  0.00    -0.199 F 
ATOM     11  F   UNL     1       3.510   4.827   2.377  0.00  0.00    -0.201 F 
ENDROOT
BRANCH   1  13
ATOM     12  N   UNL     1       1.701   3.122   0.002  0.00  0.00    -0.279 N 
ATOM     13  C   UNL     1       3.018   3.408  -0.009  0.00  0.00    +0.254 C 
ATOM     14  O   UNL     1       3.836   2.508  -0.021  0.00  0.00    -0.270 OA
ATOM     15  H   UNL     1       1.049   3.840   0.012  0.00  0.00    +0.155 HD
BRANCH  12  17
ATOM     16  C   UNL     1      -0.016   1.354   0.009  0.00  0.00    +0.128 A 
ATOM     17  C   UNL     1       1.272   1.781  -0.001  0.00  0.00    +0.071 A 
ATOM     18  C   UNL     1       2.100   0.649  -0.015  0.00  0.00    +0.157 A 
ATOM     19  N   UNL     1       1.341  -0.416  -0.013  0.00  0.00    -0.180 NA
ATOM     20  N   UNL     1       0.002  -0.004   0.002  0.00  0.00    -0.283 N 
ATOM     21  H   UNL     1      -0.774  -0.586   0.007  0.00  0.00    +0.188 HD
ENDBRANCH  12  17
ENDBRANCH   1  13
TORSDOF 2
