REMARK  Name = ZINC35541870
REMARK  5 active torsions:
REMARK  status: ('A' for Active; 'I' for Inactive)
REMARK    1  A    between atoms: C_1  and  C_2
REMARK    2  A    between atoms: C_2  and  N_3
REMARK    3  A    between atoms: N_3  and  C_4
REMARK    4  A    between atoms: C_4  and  C_6
REMARK    5  A    between atoms: C_4  and  C_13
REMARK                            x       y       z     vdW  Elec       q    Type
REMARK                         _______ _______ _______ _____ _____    ______ ____
ROOT
ATOM      1  C   UNL     1      -1.356  -1.981   0.004  0.00  0.00    -0.009 C 
ENDROOT
BRANCH   1   2
ATOM      2  C   UNL     1      -0.737  -2.482   1.284  0.00  0.00    -0.042 A 
ATOM      3  C   UNL     1      -0.772  -1.699   2.422  0.00  0.00    +0.018 A 
ATOM      4  C   UNL     1      -0.203  -2.159   3.596  0.00  0.00    +0.018 A 
ATOM      5  C   UNL     1       0.401  -3.403   3.631  0.00  0.00    +0.016 A 
ATOM      6  C   UNL     1       0.435  -4.186   2.493  0.00  0.00    +0.016 A 
ATOM      7  C   UNL     1      -0.138  -3.729   1.320  0.00  0.00    +0.020 A 
ATOM      8 BR   UNL     1      -0.097  -4.804  -0.235  0.00  0.00    -0.050 Br
ATOM      9 BR   UNL     1      -0.251  -1.086   5.153  0.00  0.00    -0.050 Br
ENDBRANCH   1   2
BRANCH   1  10
ATOM     10  C   UNL     1      -2.766  -2.502  -0.109  0.00  0.00    -0.057 A 
ATOM     11  C   UNL     1      -3.789  -1.882   0.583  0.00  0.00    +0.003 A 
ATOM     12  C   UNL     1      -5.082  -2.359   0.479  0.00  0.00    +0.015 A 
ATOM     13  C   UNL     1      -5.352  -3.457  -0.317  0.00  0.00    +0.018 A 
ATOM     14  C   UNL     1      -4.328  -4.078  -1.009  0.00  0.00    +0.015 A 
ATOM     15  C   UNL     1      -3.036  -3.597  -0.909  0.00  0.00    +0.003 A 
ATOM     16 BR   UNL     1      -7.121  -4.111  -0.459  0.00  0.00    -0.050 Br
ENDBRANCH   1  10
BRANCH   1  17
ATOM     17  N   UNL     1      -1.376  -0.512   0.012  0.00  0.00    +0.386 N 
ATOM     18  H   UNL     1      -1.848  -0.187   0.843  0.00  0.00    -0.085 HD
ATOM     19  H   UNL     1      -1.864  -0.178  -0.805  0.00  0.00    -0.085 HD
BRANCH  17  21
ATOM     20  C   UNL     1      -0.019   1.526   0.010  0.00  0.00    -0.017 C 
ATOM     21  C   UNL     1       0.002  -0.004   0.002  0.00  0.00    -0.085 C 
ENDBRANCH  17  21
ENDBRANCH   1  17
TORSDOF 4
