REMARK  Name = ZINC38714754
REMARK  14 active torsions:
REMARK  status: ('A' for Active; 'I' for Inactive)
REMARK    1  A    between atoms: C_1  and  C_2
REMARK    2  A    between atoms: C_2  and  N_3
REMARK    3  A    between atoms: N_3  and  C_4
REMARK    4  A    between atoms: N_3  and  C_6
REMARK    5  A    between atoms: C_4  and  C_5
REMARK    6  A    between atoms: C_6  and  C_7
REMARK    7  A    between atoms: C_7  and  C_8
REMARK    8  A    between atoms: C_8  and  N_9
REMARK    9  A    between atoms: C_10  and  C_27
REMARK   10  A    between atoms: C_18  and  C_25
REMARK   11  A    between atoms: C_30  and  C_33
REMARK   12  A    between atoms: C_33  and  C_34
REMARK   13  A    between atoms: C_33  and  C_35
REMARK   14  A    between atoms: C_33  and  C_36
REMARK                            x       y       z     vdW  Elec       q    Type
REMARK                         _______ _______ _______ _____ _____    ______ ____
ROOT
ATOM      1  N   UNL     1      -4.426  -4.514   0.177  0.00  0.00    -0.284 N 
ATOM      2  C   UNL     1      -5.391  -4.619   1.284  0.00  0.00    +0.144 C 
ATOM      3  C   UNL     1      -6.651  -5.145   0.677  0.00  0.00    +0.072 A 
ATOM      4  C   UNL     1      -7.951  -5.465   1.275  0.00  0.00    +0.199 A 
ATOM      5  O   UNL     1      -8.251  -5.168   2.417  0.00  0.00    -0.287 OA
ATOM      6  C   UNL     1      -8.867  -6.185   0.354  0.00  0.00    +0.066 A 
ATOM      7  C   UNL     1     -10.058  -6.734   0.830  0.00  0.00    +0.035 A 
ATOM      8  C   UNL     1     -10.893  -7.404  -0.037  0.00  0.00    +0.045 A 
ATOM      9  C   UNL     1     -10.548  -7.531  -1.377  0.00  0.00    -0.029 A 
ATOM     10  C   UNL     1      -9.377  -6.992  -1.857  0.00  0.00    +0.051 A 
ATOM     11  C   UNL     1      -8.515  -6.307  -1.000  0.00  0.00    +0.140 A 
ATOM     12  O   UNL     1      -7.375  -5.779  -1.501  0.00  0.00    -0.450 OA
ATOM     13  C   UNL     1      -6.428  -5.319  -0.660  0.00  0.00    +0.199 A 
ATOM     14  C   UNL     1      -5.040  -4.920  -0.953  0.00  0.00    +0.283 C 
ATOM     15  O   UNL     1      -4.523  -4.955  -2.052  0.00  0.00    -0.267 OA
ATOM     16  C   UNL     1     -11.468  -8.268  -2.315  0.00  0.00    +0.045 C 
ATOM     17 CL   UNL     1     -12.378  -8.089   0.545  0.00  0.00    -0.083 Cl
ENDROOT
BRANCH   2  18
ATOM     18  C   UNL     1      -5.632  -3.263   1.893  0.00  0.00    -0.022 A 
ATOM     19  C   UNL     1      -5.740  -2.149   1.081  0.00  0.00    +0.006 A 
ATOM     20  C   UNL     1      -5.962  -0.905   1.641  0.00  0.00    +0.004 A 
ATOM     21  C   UNL     1      -6.076  -0.773   3.012  0.00  0.00    -0.042 A 
ATOM     22  C   UNL     1      -5.969  -1.887   3.824  0.00  0.00    +0.004 A 
ATOM     23  C   UNL     1      -5.752  -3.132   3.264  0.00  0.00    +0.006 A 
BRANCH  21  24
ATOM     24  C   UNL     1      -6.316   0.583   3.622  0.00  0.00    -0.013 C 
ATOM     25  C   UNL     1      -7.628   1.159   3.086  0.00  0.00    +0.015 C 
ATOM     26  C   UNL     1      -6.402   0.451   5.144  0.00  0.00    +0.015 C 
ATOM     27  C   UNL     1      -5.162   1.519   3.256  0.00  0.00    +0.015 C 
ENDBRANCH  21  24
ENDBRANCH   2  18
BRANCH   1  28
ATOM     28  C   UNL     1      -3.042  -4.045   0.284  0.00  0.00    +0.107 C 
BRANCH  28  29
ATOM     29  C   UNL     1      -3.000  -2.530   0.073  0.00  0.00    +0.000 C 
BRANCH  29  30
ATOM     30  C   UNL     1      -1.554  -2.040   0.185  0.00  0.00    -0.077 C 
BRANCH  30  31
ATOM     31  N   UNL     1      -1.496  -0.609  -0.143  0.00  0.00    +0.379 N 
ATOM     32  H   UNL     1      -1.907  -0.455  -1.051  0.00  0.00    -0.082 HD
BRANCH  31  34
ATOM     33  C   UNL     1      -2.286   1.629   0.460  0.00  0.00    -0.017 C 
ATOM     34  C   UNL     1      -2.240   0.155   0.867  0.00  0.00    -0.082 C 
ENDBRANCH  31  34
BRANCH  31  35
ATOM     35  C   UNL     1      -0.095  -0.167  -0.157  0.00  0.00    -0.082 C 
ATOM     36  C   UNL     1       0.642  -0.847  -1.312  0.00  0.00    -0.017 C 
ENDBRANCH  31  35
ENDBRANCH  30  31
ENDBRANCH  29  30
ENDBRANCH  28  29
ENDBRANCH   1  28
TORSDOF 8
