REMARK  Name = ZINC21377089
REMARK  10 active torsions:
REMARK  status: ('A' for Active; 'I' for Inactive)
REMARK    1  A    between atoms: C_1  and  C_2
REMARK    2  A    between atoms: C_2  and  C_3
REMARK    3  A    between atoms: C_3  and  N_4
REMARK    4  A    between atoms: C_14  and  S_15
REMARK    5  A    between atoms: S_15  and  C_16
REMARK    6  A    between atoms: C_16  and  C_17
REMARK    7  A    between atoms: C_17  and  C_19
REMARK    8  A    between atoms: C_20  and  N_29
REMARK    9  A    between atoms: N_21  and  C_28
REMARK   10  A    between atoms: N_24  and  C_27
REMARK                            x       y       z     vdW  Elec       q    Type
REMARK                         _______ _______ _______ _____ _____    ______ ____
ROOT
ATOM      1  S   UNL     1      -1.708  -1.000   2.300  0.00  0.00    -0.080 S 
ENDROOT
BRANCH   1  12
ATOM      2  N   UNL     1      -0.093   1.146   2.525  0.00  0.00    -0.287 N 
ATOM      3  C   UNL     1       0.877   1.904   3.085  0.00  0.00    +0.262 A 
ATOM      4  O   UNL     1       1.186   2.983   2.613  0.00  0.00    -0.267 OA
ATOM      5  C   UNL     1       1.545   1.377   4.283  0.00  0.00    +0.066 A 
ATOM      6  C   UNL     1       2.557   2.084   4.932  0.00  0.00    +0.030 A 
ATOM      7  C   UNL     1       3.149   1.542   6.053  0.00  0.00    +0.019 A 
ATOM      8  C   UNL     1       2.745   0.303   6.536  0.00  0.00    +0.017 A 
ATOM      9  C   UNL     1       1.756  -0.406   5.915  0.00  0.00    +0.029 A 
ATOM     10  C   UNL     1       1.137   0.117   4.776  0.00  0.00    +0.079 A 
ATOM     11  N   UNL     1       0.153  -0.554   4.133  0.00  0.00    -0.223 NA
ATOM     12  C   UNL     1      -0.432  -0.060   3.069  0.00  0.00    +0.173 A 
ATOM     13 BR   UNL     1       4.522   2.492   6.940  0.00  0.00    -0.050 Br
BRANCH   2  14
ATOM     14  C   UNL     1      -0.791   1.625   1.329  0.00  0.00    +0.127 C 
BRANCH  14  16
ATOM     15  C   UNL     1      -0.777   1.647  -1.169  0.00  0.00    +0.005 C 
ATOM     16  C   UNL     1      -0.049   1.146   0.080  0.00  0.00    +0.018 C 
ENDBRANCH  14  16
ENDBRANCH   2  14
ENDBRANCH   1  12
BRANCH   1  17
ATOM     17  C   UNL     1      -1.738  -2.443   3.392  0.00  0.00    +0.157 C 
BRANCH  17  18
ATOM     18  C   UNL     1      -2.788  -3.413   2.914  0.00  0.00    +0.182 C 
ATOM     19  O   UNL     1      -3.451  -3.154   1.930  0.00  0.00    -0.291 OA
BRANCH  18  20
ATOM     20  C   UNL     1      -3.000  -4.623   3.610  0.00  0.00    +0.120 A 
ATOM     21  C   UNL     1      -4.052  -5.486   3.259  0.00  0.00    +0.116 A 
ATOM     22  N   UNL     1      -4.213  -6.648   3.959  0.00  0.00    -0.284 N 
ATOM     23  C   UNL     1      -3.397  -6.971   4.974  0.00  0.00    +0.333 A 
ATOM     24  O   UNL     1      -3.586  -8.014   5.568  0.00  0.00    -0.246 OA
ATOM     25  N   UNL     1      -2.379  -6.183   5.357  0.00  0.00    -0.263 N 
ATOM     26  C   UNL     1      -2.132  -5.016   4.727  0.00  0.00    +0.269 A 
ATOM     27  O   UNL     1      -1.209  -4.304   5.078  0.00  0.00    -0.267 OA
ATOM     28  C   UNL     1      -1.527  -6.596   6.475  0.00  0.00    +0.157 C 
ATOM     29  C   UNL     1      -5.304  -7.558   3.598  0.00  0.00    +0.155 C 
BRANCH  21  30
ATOM     30  N   UNL     1      -4.892  -5.173   2.236  0.00  0.00    -0.344 N 
ATOM     31  H   UNL     1      -5.713  -5.855   1.969  0.00  0.00    +0.144 HD
ATOM     32  H   UNL     1      -4.751  -4.236   1.676  0.00  0.00    +0.144 HD
ENDBRANCH  21  30
ENDBRANCH  18  20
ENDBRANCH  17  18
ENDBRANCH   1  17
TORSDOF 7
