REMARK  Name = ZINC36597652
REMARK  14 active torsions:
REMARK  status: ('A' for Active; 'I' for Inactive)
REMARK    1  A    between atoms: C_1  and  C_2
REMARK    2  A    between atoms: C_5  and  C_7
REMARK    3  A    between atoms: C_7  and  N_8
REMARK    4  A    between atoms: N_8  and  C_9
REMARK    5  A    between atoms: C_9  and  C_11
REMARK    6  A    between atoms: C_9  and  C_18
REMARK    7  A    between atoms: C_15  and  O_17
REMARK    8  A    between atoms: N_20  and  C_21
REMARK    9  A    between atoms: C_21  and  C_22
REMARK   10  A    between atoms: C_21  and  C_23
REMARK   11  A    between atoms: C_21  and  C_24
REMARK   12  A    between atoms: C_25  and  C_27
REMARK   13  A    between atoms: C_31  and  O_34
REMARK   14  A    between atoms: C_32  and  O_33
REMARK                            x       y       z     vdW  Elec       q    Type
REMARK                         _______ _______ _______ _____ _____    ______ ____
ROOT
ATOM      1  N   UNL     1       2.919  -2.514  -1.432  0.00  0.00    -0.275 N 
ATOM      2  C   UNL     1       1.708  -2.016  -1.113  0.00  0.00    +0.252 C 
ATOM      3  O   UNL     1       1.439  -1.768   0.046  0.00  0.00    -0.270 OA
ENDROOT
BRANCH   2   4
ATOM      4  C   UNL     1       0.709  -1.772  -2.171  0.00  0.00    +0.082 A 
ATOM      5  C   UNL     1       0.839  -2.393  -3.417  0.00  0.00    +0.017 A 
ATOM      6  C   UNL     1      -0.096  -2.163  -4.402  0.00  0.00    +0.005 A 
ATOM      7  C   UNL     1      -1.168  -1.317  -4.166  0.00  0.00    +0.049 A 
ATOM      8  C   UNL     1      -1.310  -0.695  -2.938  0.00  0.00    +0.159 A 
ATOM      9  C   UNL     1      -0.377  -0.922  -1.931  0.00  0.00    +0.171 A 
BRANCH   9  10
ATOM     10  O   UNL     1      -0.516  -0.318  -0.723  0.00  0.00    -0.503 OA
ATOM     11  H   UNL     1      -0.082   0.544  -0.662  0.00  0.00    +0.292 HD
ENDBRANCH   9  10
BRANCH   8  12
ATOM     12  O   UNL     1      -2.365   0.134  -2.714  0.00  0.00    -0.503 OA
ATOM     13  H   UNL     1      -3.146  -0.310  -2.357  0.00  0.00    +0.292 HD
ENDBRANCH   8  12
ENDBRANCH   2   4
BRANCH   1  14
ATOM     14  C   UNL     1       3.851  -2.908  -0.372  0.00  0.00    +0.183 C 
BRANCH  14  19
ATOM     15  C   UNL     1       2.118  -7.311   1.375  0.00  0.00    +0.086 C 
ATOM     16  C   UNL     1       2.967  -6.301   0.647  0.00  0.00    +0.102 A 
ATOM     17  C   UNL     1       4.048  -6.579  -0.105  0.00  0.00    +0.045 A 
ATOM     18  C   UNL     1       4.534  -5.345  -0.595  0.00  0.00    +0.046 A 
ATOM     19  C   UNL     1       3.721  -4.387  -0.113  0.00  0.00    +0.122 A 
ATOM     20  O   UNL     1       2.770  -4.973   0.633  0.00  0.00    -0.463 OA
ENDBRANCH  14  19
ENDBRANCH   1  14
BRANCH   1  21
ATOM     21  C   UNL     1       3.304  -2.662  -2.838  0.00  0.00    +0.193 C 
BRANCH  21  22
ATOM     22  C   UNL     1       2.801  -1.478  -3.623  0.00  0.00    -0.015 A 
ATOM     23  C   UNL     1       2.344  -0.353  -2.961  0.00  0.00    +0.006 A 
ATOM     24  C   UNL     1       1.882   0.735  -3.678  0.00  0.00    +0.004 A 
ATOM     25  C   UNL     1       1.877   0.701  -5.059  0.00  0.00    +0.045 A 
ATOM     26  C   UNL     1       2.335  -0.426  -5.726  0.00  0.00    +0.117 A 
ATOM     27  C   UNL     1       2.803  -1.514  -5.004  0.00  0.00    +0.051 A 
BRANCH  26  28
ATOM     28  O   UNL     1       2.330  -0.461  -7.085  0.00  0.00    -0.507 OA
ATOM     29  H   UNL     1       3.145  -0.133  -7.489  0.00  0.00    +0.292 HD
ENDBRANCH  26  28
ENDBRANCH  21  22
BRANCH  21  30
ATOM     30  C   UNL     1       4.805  -2.734  -2.943  0.00  0.00    +0.239 C 
ATOM     31  O   UNL     1       5.438  -3.394  -2.146  0.00  0.00    -0.273 OA
ATOM     32  N   UNL     1       5.445  -2.064  -3.923  0.00  0.00    -0.309 N 
ATOM     33  H   UNL     1       4.945  -1.493  -4.526  0.00  0.00    +0.149 HD
BRANCH  32  34
ATOM     34  C   UNL     1       6.896  -2.200  -4.076  0.00  0.00    +0.026 C 
ATOM     35  C   UNL     1       7.243  -3.662  -4.366  0.00  0.00    +0.031 C 
ATOM     36  C   UNL     1       7.370  -1.323  -5.236  0.00  0.00    +0.031 C 
ATOM     37  C   UNL     1       7.588  -1.758  -2.785  0.00  0.00    +0.031 C 
ENDBRANCH  32  34
ENDBRANCH  21  30
ENDBRANCH   1  21
TORSDOF 10
