REMARK  Name = ZINC16086830
REMARK  3 active torsions:
REMARK  status: ('A' for Active; 'I' for Inactive)
REMARK    1  A    between atoms: C_5  and  O_7
REMARK    2  A    between atoms: O_7  and  S_8
REMARK    3  A    between atoms: S_8  and  C_11
REMARK                            x       y       z     vdW  Elec       q    Type
REMARK                         _______ _______ _______ _____ _____    ______ ____
ROOT
ATOM      1  S   UNL     1       3.890   2.318  -0.023  0.00  0.00    +0.151 S 
ATOM      2  O   UNL     1       3.605   3.592   0.537  0.00  0.00    -0.131 OA
ATOM      3  O   UNL     1       4.883   1.455   0.513  0.00  0.00    -0.131 OA
ENDROOT
BRANCH   1   4
ATOM      4  C   UNL     1       2.378   1.414  -0.013  0.00  0.00    +0.131 A 
ATOM      5  C   UNL     1       1.171   2.087   0.002  0.00  0.00    +0.033 A 
ATOM      6  C   UNL     1      -0.017   1.380   0.010  0.00  0.00    +0.043 A 
ATOM      7  C   UNL     1       0.002  -0.004   0.002  0.00  0.00    +0.159 A 
ATOM      8  C   UNL     1       1.213  -0.679  -0.013  0.00  0.00    +0.160 A 
ATOM      9  C   UNL     1       2.400   0.032  -0.021  0.00  0.00    +0.071 A 
ATOM     10  F   UNL     1       1.234  -2.030  -0.020  0.00  0.00    -0.202 F 
ATOM     11  F   UNL     1      -1.158  -0.696   0.009  0.00  0.00    -0.202 F 
ENDBRANCH   1   4
BRANCH   1  12
ATOM     12  O   UNL     1       4.262   2.557  -1.480  0.00  0.00    -0.341 OA
BRANCH  12  17
ATOM     13  C   UNL     1       1.586   4.149  -3.362  0.00  0.00    +0.004 A 
ATOM     14  C   UNL     1       2.000   5.468  -3.333  0.00  0.00    +0.001 A 
ATOM     15  C   UNL     1       3.171   5.814  -2.685  0.00  0.00    +0.019 A 
ATOM     16  C   UNL     1       3.931   4.840  -2.063  0.00  0.00    +0.062 A 
ATOM     17  C   UNL     1       3.517   3.516  -2.090  0.00  0.00    +0.171 A 
ATOM     18  C   UNL     1       2.345   3.172  -2.747  0.00  0.00    +0.050 A 
ATOM     19 BR   UNL     1       5.533   5.313  -1.177  0.00  0.00    -0.046 Br
ENDBRANCH  12  17
ENDBRANCH   1  12
TORSDOF 3
