REMARK  Name = ZINC36559880
REMARK  16 active torsions:
REMARK  status: ('A' for Active; 'I' for Inactive)
REMARK    1  A    between atoms: C_1  and  C_2
REMARK    2  A    between atoms: C_2  and  C_3
REMARK    3  A    between atoms: C_3  and  N_4
REMARK    4  A    between atoms: N_4  and  C_5
REMARK    5  A    between atoms: C_5  and  C_7
REMARK    6  A    between atoms: C_5  and  C_16
REMARK    7  A    between atoms: C_10  and  O_15
REMARK    8  A    between atoms: C_11  and  O_13
REMARK    9  A    between atoms: O_13  and  C_14
REMARK   10  A    between atoms: N_18  and  C_19
REMARK   11  A    between atoms: C_19  and  C_20
REMARK   12  A    between atoms: C_19  and  C_21
REMARK   13  A    between atoms: C_19  and  C_22
REMARK   14  A    between atoms: C_23  and  C_25
REMARK   15  A    between atoms: C_25  and  C_33
REMARK   16  A    between atoms: C_26  and  C_27
REMARK                            x       y       z     vdW  Elec       q    Type
REMARK                         _______ _______ _______ _____ _____    ______ ____
ROOT
ATOM      1  N   UNL     1       0.395  -2.555  -0.695  0.00  0.00    -0.282 N 
ATOM      2  C   UNL     1       1.417  -3.291  -1.176  0.00  0.00    +0.248 C 
ATOM      3  O   UNL     1       2.563  -2.913  -1.023  0.00  0.00    -0.270 OA
ENDROOT
BRANCH   2   4
ATOM      4  C   UNL     1       1.146  -4.550  -1.888  0.00  0.00    +0.045 C 
ATOM      5  C   UNL     1       1.769  -5.696  -1.504  0.00  0.00    +0.021 C 
BRANCH   5   6
ATOM      6  C   UNL     1       1.616  -6.920  -2.303  0.00  0.00    -0.024 A 
ATOM      7  C   UNL     1       1.474  -6.839  -3.693  0.00  0.00    +0.008 A 
ATOM      8  C   UNL     1       1.331  -7.992  -4.435  0.00  0.00    +0.001 A 
ATOM      9  C   UNL     1       1.327  -9.226  -3.809  0.00  0.00    +0.000 A 
ATOM     10  C   UNL     1       1.467  -9.315  -2.435  0.00  0.00    +0.001 A 
ATOM     11  C   UNL     1       1.616  -8.172  -1.678  0.00  0.00    +0.008 A 
ENDBRANCH   5   6
BRANCH   4  12
ATOM     12  C   UNL     1       0.194  -4.570  -3.022  0.00  0.00    -0.013 A 
ATOM     13  C   UNL     1       0.381  -3.714  -4.108  0.00  0.00    +0.008 A 
ATOM     14  C   UNL     1      -0.509  -3.737  -5.162  0.00  0.00    +0.001 A 
ATOM     15  C   UNL     1      -1.585  -4.607  -5.143  0.00  0.00    +0.000 A 
ATOM     16  C   UNL     1      -1.776  -5.457  -4.069  0.00  0.00    +0.001 A 
ATOM     17  C   UNL     1      -0.890  -5.448  -3.012  0.00  0.00    +0.008 A 
ENDBRANCH   4  12
ENDBRANCH   2   4
BRANCH   1  18
ATOM     18  C   UNL     1       0.657  -1.254  -0.076  0.00  0.00    +0.109 C 
BRANCH  18  20
ATOM     19  C   UNL     1       1.143  -0.082   2.077  0.00  0.00    +0.005 C 
ATOM     20  C   UNL     1       0.961  -1.448   1.411  0.00  0.00    +0.016 C 
ENDBRANCH  18  20
ENDBRANCH   1  18
BRANCH   1  21
ATOM     21  C   UNL     1      -0.978  -3.058  -0.790  0.00  0.00    +0.193 C 
BRANCH  21  22
ATOM     22  C   UNL     1      -1.561  -3.191   0.593  0.00  0.00    -0.015 A 
ATOM     23  C   UNL     1      -1.770  -2.063   1.365  0.00  0.00    +0.010 A 
ATOM     24  C   UNL     1      -2.305  -2.179   2.634  0.00  0.00    +0.049 A 
ATOM     25  C   UNL     1      -2.634  -3.429   3.135  0.00  0.00    +0.158 A 
ATOM     26  C   UNL     1      -2.424  -4.564   2.358  0.00  0.00    +0.162 A 
ATOM     27  C   UNL     1      -1.891  -4.440   1.085  0.00  0.00    +0.055 A 
BRANCH  26  28
ATOM     28  O   UNL     1      -2.744  -5.792   2.846  0.00  0.00    -0.491 OA
ATOM     29  C   UNL     1      -2.502  -6.912   1.993  0.00  0.00    +0.277 C 
ENDBRANCH  26  28
BRANCH  25  30
ATOM     30  O   UNL     1      -3.159  -3.545   4.384  0.00  0.00    -0.503 OA
ATOM     31  H   UNL     1      -4.125  -3.499   4.410  0.00  0.00    +0.292 HD
ENDBRANCH  25  30
ENDBRANCH  21  22
BRANCH  21  32
ATOM     32  C   UNL     1      -1.810  -2.095  -1.596  0.00  0.00    +0.238 C 
ATOM     33  O   UNL     1      -1.306  -1.088  -2.047  0.00  0.00    -0.273 OA
ATOM     34  N   UNL     1      -3.115  -2.352  -1.817  0.00  0.00    -0.309 N 
ATOM     35  H   UNL     1      -3.518  -3.158  -1.456  0.00  0.00    +0.149 HD
BRANCH  34  36
ATOM     36  C   UNL     1      -3.924  -1.416  -2.600  0.00  0.00    +0.026 C 
ATOM     37  C   UNL     1      -3.332  -1.281  -4.005  0.00  0.00    +0.031 C 
ATOM     38  C   UNL     1      -5.358  -1.941  -2.700  0.00  0.00    +0.031 C 
ATOM     39  C   UNL     1      -3.928  -0.048  -1.915  0.00  0.00    +0.031 C 
ENDBRANCH  34  36
ENDBRANCH  21  32
ENDBRANCH   1  21
TORSDOF 11
