REMARK  Name = ZINC11866844
REMARK  9 active torsions:
REMARK  status: ('A' for Active; 'I' for Inactive)
REMARK    1  A    between atoms: C_1  and  C_2
REMARK    2  A    between atoms: C_6  and  O_8
REMARK    3  A    between atoms: O_8  and  C_9
REMARK    4  A    between atoms: C_9  and  C_11
REMARK    5  A    between atoms: C_9  and  C_12
REMARK    6  A    between atoms: N_14  and  CA_15
REMARK    7  A    between atoms: CA_15  and  CB_17
REMARK    8  A    between atoms: CA_15  and  C_28
REMARK    9  A    between atoms: CB_17  and  CG_18
REMARK                            x       y       z     vdW  Elec       q    Type
REMARK                         _______ _______ _______ _____ _____    ______ ____
ROOT
ATOM      1  C   UNK A   0       3.234   3.304   3.862  0.00  0.00    +0.255 C 
ATOM      2  C   UNK A   0       4.157   4.342   3.221  0.00  0.00    +0.062 C 
ENDROOT
BRANCH   1   3
ATOM      3  C   UNK A   0       3.621   1.927   3.389  0.00  0.00    +0.254 C 
ATOM      4  O   UNK A   0       3.968   1.086   4.191  0.00  0.00    -0.272 OA
ATOM      5  N   TRP A   1       3.583   1.630   2.075  0.00  0.00    -0.299 N 
ATOM      6  H   TRP A   1       3.305   2.303   1.433  0.00  0.00    +0.150 HD
BRANCH   5   7
ATOM      7  CA  TRP A   1       3.959   0.291   1.615  0.00  0.00    +0.191 C 
BRANCH   7   8
ATOM      8  C   TRP A   1       5.454   0.223   1.438  0.00  0.00    +0.376 C 
ATOM      9  O   TRP A   1       6.135   1.193   1.673  0.00  0.00    -0.244 OA
ATOM     10  OXT TRP A   1       6.030  -0.916   1.021  0.00  0.00    -0.244 OA
ENDBRANCH   7   8
BRANCH   7  11
ATOM     11  CB  TRP A   1       3.274  -0.001   0.278  0.00  0.00    +0.071 C 
BRANCH  11  12
ATOM     12  CG  TRP A   1       1.782  -0.054   0.480  0.00  0.00    -0.020 A 
ATOM     13  CD1 TRP A   1       1.043  -1.155   0.692  0.00  0.00    +0.087 A 
ATOM     14  NE1 TRP A   1      -0.275  -0.813   0.829  0.00  0.00    -0.360 N 
ATOM     15  HE1 TRP A   1      -0.999  -1.439   0.989  0.00  0.00    +0.165 HD
ATOM     16  CE2 TRP A   1      -0.420   0.550   0.705  0.00  0.00    +0.047 A 
ATOM     17  CD2 TRP A   1       0.861   1.086   0.481  0.00  0.00    +0.003 A 
ATOM     18  CE3 TRP A   1       1.022   2.463   0.316  0.00  0.00    +0.010 A 
ATOM     19  CZ3 TRP A   1      -0.069   3.284   0.373  0.00  0.00    +0.001 A 
ATOM     20  CH2 TRP A   1      -1.335   2.761   0.593  0.00  0.00    +0.002 A 
ATOM     21  CZ2 TRP A   1      -1.515   1.406   0.763  0.00  0.00    +0.026 A 
ENDBRANCH  11  12
ENDBRANCH   7  11
ENDBRANCH   5   7
ENDBRANCH   1   3
BRANCH   1  22
ATOM     22  O   UNK A   0       3.356   3.371   5.284  0.00  0.00    -0.479 OA
BRANCH  22  28
ATOM     23  C   UNK A   0       0.212   7.093   5.054  0.00  0.00    +0.044 C 
ATOM     24  C   UNK A   0       1.044   6.126   5.857  0.00  0.00    -0.043 A 
ATOM     25  C   UNK A   0       1.020   6.186   7.236  0.00  0.00    +0.050 A 
ATOM     26  C   UNK A   0       1.781   5.300   7.984  0.00  0.00    +0.143 A 
ATOM     27  C   UNK A   0       2.575   4.344   7.328  0.00  0.00    +0.063 A 
ATOM     28  C   UNK A   0       2.592   4.292   5.925  0.00  0.00    +0.133 A 
ATOM     29  C   UNK A   0       1.828   5.190   5.202  0.00  0.00    +0.050 A 
ATOM     30  C   UNK A   0       3.378   3.408   8.125  0.00  0.00    -0.023 A 
ATOM     31  C   UNK A   0       3.326   3.506   9.471  0.00  0.00    +0.041 A 
ATOM     32  C   UNK A   0       2.501   4.493  10.065  0.00  0.00    +0.341 A 
ATOM     33  O   UNK A   0       2.455   4.570  11.279  0.00  0.00    -0.245 OA
ATOM     34  O   UNK A   0       1.769   5.344   9.333  0.00  0.00    -0.422 OA
ATOM     35  C   UNK A   0       4.117   2.605  10.382  0.00  0.00    +0.042 C 
ATOM     36  C   UNK A   0       4.583   1.358   9.634  0.00  0.00    +0.005 C 
ATOM     37  C   UNK A   0       5.272   1.802   8.338  0.00  0.00    +0.005 C 
ATOM     38  C   UNK A   0       4.211   2.383   7.406  0.00  0.00    +0.036 C 
ENDBRANCH  22  28
ENDBRANCH   1  22
TORSDOF 7
