REMARK  Name = ZINC39359625
REMARK  8 active torsions:
REMARK  status: ('A' for Active; 'I' for Inactive)
REMARK    1  A    between atoms: C_1  and  C_2
REMARK    2  A    between atoms: C_2  and  O_3
REMARK    3  A    between atoms: O_3  and  C_4
REMARK    4  A    between atoms: C_4  and  C_6
REMARK    5  A    between atoms: C_8  and  N_17
REMARK    6  A    between atoms: C_19  and  C_30
REMARK    7  A    between atoms: C_23  and  O_28
REMARK    8  A    between atoms: O_28  and  C_29
REMARK                            x       y       z     vdW  Elec       q    Type
REMARK                         _______ _______ _______ _____ _____    ______ ____
ROOT
ATOM      1  N   UNL     1      -5.060  -1.792   1.044  0.00  0.00    -0.342 N 
ATOM      2  C   UNL     1      -5.926  -2.254   1.906  0.00  0.00    +0.207 A 
ATOM      3  C   UNL     1      -7.380  -2.108   1.678  0.00  0.00    +0.078 A 
ATOM      4  C   UNL     1      -8.205  -3.042   2.259  0.00  0.00    +0.028 A 
ATOM      5  C   UNL     1      -7.575  -4.101   3.052  0.00  0.00    +0.022 A 
ATOM      6  C   UNL     1      -8.305  -5.228   3.448  0.00  0.00    +0.057 A 
ATOM      7  C   UNL     1      -7.687  -6.213   4.193  0.00  0.00    +0.121 A 
ATOM      8  C   UNL     1      -6.347  -6.089   4.548  0.00  0.00    +0.049 A 
ATOM      9  C   UNL     1      -5.619  -4.981   4.164  0.00  0.00    +0.050 A 
ATOM     10  C   UNL     1      -6.222  -3.980   3.417  0.00  0.00    +0.138 A 
ATOM     11  O   UNL     1      -5.519  -2.888   3.035  0.00  0.00    -0.439 OA
ATOM     12  H   UNL     1      -5.367  -1.341   0.242  0.00  0.00    +0.164 HD
ENDROOT
BRANCH   3  13
ATOM     13  C   UNL     1      -7.923  -1.006   0.863  0.00  0.00    +0.144 A 
ATOM     14  N   UNL     1      -7.206  -0.076   0.276  0.00  0.00    -0.228 NA
ATOM     15  C   UNL     1      -8.022   0.777  -0.389  0.00  0.00    +0.089 A 
ATOM     16  C   UNL     1      -7.791   1.917  -1.166  0.00  0.00    +0.030 A 
ATOM     17  C   UNL     1      -8.853   2.589  -1.726  0.00  0.00    +0.002 A 
ATOM     18  C   UNL     1     -10.152   2.144  -1.527  0.00  0.00    +0.002 A 
ATOM     19  C   UNL     1     -10.399   1.022  -0.764  0.00  0.00    +0.028 A 
ATOM     20  C   UNL     1      -9.341   0.331  -0.192  0.00  0.00    +0.066 A 
ATOM     21  N   UNL     1      -9.252  -0.800   0.598  0.00  0.00    -0.338 N 
ATOM     22  H   UNL     1      -9.991  -1.346   0.908  0.00  0.00    +0.167 HD
ENDBRANCH   3  13
BRANCH   1  24
ATOM     23  C   UNL     1      -2.881  -2.427   0.017  0.00  0.00    +0.157 C 
ATOM     24  C   UNL     1      -3.624  -1.955   1.289  0.00  0.00    +0.162 C 
ATOM     25  S   UNL     1      -3.281  -3.407   2.369  0.00  0.00    -0.104 S 
ATOM     26  C   UNL     1      -2.940  -4.600   1.095  0.00  0.00    -0.012 C 
ATOM     27  C   UNL     1      -2.771  -3.930  -0.035  0.00  0.00    -0.044 C 
ATOM     28  C   UNL     1      -2.477  -4.661  -1.343  0.00  0.00    +0.032 C 
ATOM     29  C   UNL     1      -1.962  -6.065  -1.028  0.00  0.00    +0.005 C 
ATOM     30  C   UNL     1      -2.940  -6.767  -0.080  0.00  0.00    +0.005 C 
ATOM     31  C   UNL     1      -2.862  -6.089   1.285  0.00  0.00    +0.042 C 
BRANCH  23  32
ATOM     32  C   UNL     1      -1.496  -1.832   0.006  0.00  0.00    +0.317 C 
ATOM     33  O   UNL     1      -0.528  -2.555  -0.007  0.00  0.00    -0.250 OA
BRANCH  32  34
ATOM     34  O   UNL     1      -1.339  -0.499   0.012  0.00  0.00    -0.464 OA
BRANCH  34  36
ATOM     35  C   UNL     1      -0.019   1.526   0.010  0.00  0.00    +0.048 C 
ATOM     36  C   UNL     1       0.002  -0.004   0.002  0.00  0.00    +0.229 C 
ENDBRANCH  34  36
ENDBRANCH  32  34
ENDBRANCH  23  32
ENDBRANCH   1  24
BRANCH   7  37
ATOM     37  O   UNL     1      -8.391  -7.310   4.582  0.00  0.00    -0.495 OA
ATOM     38  C   UNL     1      -7.692  -8.291   5.350  0.00  0.00    +0.277 C 
ENDBRANCH   7  37
TORSDOF 6
