REMARK  Name = ZINC40143239
REMARK  5 active torsions:
REMARK  status: ('A' for Active; 'I' for Inactive)
REMARK    1  A    between atoms: C_4  and  C_7
REMARK    2  A    between atoms: C_10  and  N_28
REMARK    3  A    between atoms: C_18  and  C_19
REMARK    4  A    between atoms: C_19  and  C_21
REMARK    5  A    between atoms: C_22  and  C_23
REMARK                            x       y       z     vdW  Elec       q    Type
REMARK                         _______ _______ _______ _____ _____    ______ ____
ROOT
ATOM      1  C   UNL     1       3.901  -0.303  -0.192  0.00  0.00    +0.007 A 
ATOM      2  C   UNL     1       4.400  -0.927  -1.425  0.00  0.00    +0.009 A 
ATOM      3  C   UNL     1       3.655  -0.862  -2.608  0.00  0.00    +0.043 A 
ATOM      4  C   UNL     1       4.133  -1.446  -3.745  0.00  0.00    +0.127 A 
ATOM      5  C   UNL     1       5.355  -2.106  -3.738  0.00  0.00    +0.035 A 
ATOM      6  C   UNL     1       6.105  -2.183  -2.585  0.00  0.00    +0.028 A 
ATOM      7  C   UNL     1       5.638  -1.594  -1.412  0.00  0.00    +0.050 A 
ATOM      8  N   UNL     1       6.384  -1.666  -0.254  0.00  0.00    -0.321 N 
ATOM      9  H   UNL     1       7.235  -2.131  -0.269  0.00  0.00    +0.169 HD
ATOM     10  C   UNL     1       5.964  -1.109   0.894  0.00  0.00    +0.261 A 
ATOM     11  O   UNL     1       6.656  -1.196   1.893  0.00  0.00    -0.267 OA
ATOM     12  C   UNL     1       4.689  -0.393   0.960  0.00  0.00    +0.094 A 
ENDROOT
BRANCH   1  16
ATOM     13  C   UNL     1       0.175   1.733  -0.134  0.00  0.00    +0.000 A 
ATOM     14  C   UNL     1       1.348   2.437   0.077  0.00  0.00    +0.001 A 
ATOM     15  C   UNL     1       2.562   1.782   0.060  0.00  0.00    +0.008 A 
ATOM     16  C   UNL     1       2.606   0.405  -0.172  0.00  0.00    -0.016 A 
ATOM     17  C   UNL     1       1.417  -0.299  -0.384  0.00  0.00    +0.008 A 
ATOM     18  C   UNL     1       0.211   0.368  -0.363  0.00  0.00    +0.001 A 
ENDBRANCH   1  16
BRANCH   4  19
ATOM     19  N   UNL     1       3.344  -1.377  -4.995  0.00  0.00    +0.056 N 
ATOM     20  O   UNL     1       2.279  -0.804  -5.007  0.00  0.00    -0.126 OA
ATOM     21  O   UNL     1       3.763  -1.893  -6.005  0.00  0.00    -0.126 OA
ENDBRANCH   4  19
BRANCH  12  22
ATOM     22  C   UNL     1       4.241   0.220   2.221  0.00  0.00    +0.192 C 
ATOM     23  O   UNL     1       3.135   0.728   2.292  0.00  0.00    -0.287 OA
BRANCH  22  24
ATOM     24  C   UNL     1       5.093   0.218   3.350  0.00  0.00    +0.053 C 
ATOM     25  C   UNL     1       4.731   0.887   4.475  0.00  0.00    +0.019 C 
BRANCH  25  26
ATOM     26  C   UNL     1       5.583   0.886   5.604  0.00  0.00    +0.012 A 
ATOM     27  C   UNL     1       5.401   1.496   6.841  0.00  0.00    +0.015 A 
ATOM     28  C   UNL     1       6.415   1.314   7.749  0.00  0.00    +0.008 A 
ATOM     29  C   UNL     1       7.496   0.576   7.392  0.00  0.00    +0.046 A 
ATOM     30  S   UNL     1       7.167   0.097   5.816  0.00  0.00    -0.097 S 
ENDBRANCH  25  26
ENDBRANCH  22  24
ENDBRANCH  12  22
TORSDOF 5
