REMARK  Name = ZINC27563005
REMARK  4 active torsions:
REMARK  status: ('A' for Active; 'I' for Inactive)
REMARK    1  A    between atoms: C_4  and  C_7
REMARK    2  A    between atoms: C_8  and  C_9
REMARK    3  A    between atoms: N_11  and  C_12
REMARK    4  A    between atoms: C_15  and  N_19
REMARK                            x       y       z     vdW  Elec       q    Type
REMARK                         _______ _______ _______ _____ _____    ______ ____
ROOT
ATOM      1  C   UNL     1      -0.142   1.245   0.025  0.00  0.00    +0.255 C 
ATOM      2  O   UNL     1      -0.297   0.038   0.044  0.00  0.00    -0.269 OA
ATOM      3  N   UNL     1      -1.212   2.063   0.065  0.00  0.00    -0.280 N 
ATOM      4  H   UNL     1      -1.070   3.152   0.122  0.00  0.00    +0.155 HD
ENDROOT
BRANCH   3   5
ATOM      5  C   UNL     1      -2.503   1.527   0.036  0.00  0.00    +0.048 A 
ATOM      6  C   UNL     1      -2.733   0.239   0.503  0.00  0.00    +0.026 A 
ATOM      7  C   UNL     1      -4.010  -0.287   0.472  0.00  0.00    +0.034 A 
ATOM      8  C   UNL     1      -5.059   0.466  -0.022  0.00  0.00    +0.127 A 
ATOM      9  C   UNL     1      -4.834   1.748  -0.488  0.00  0.00    +0.049 A 
ATOM     10  C   UNL     1      -3.560   2.283  -0.456  0.00  0.00    +0.041 A 
ATOM     11 BR   UNL     1      -3.255   4.040  -1.087  0.00  0.00    -0.048 Br
BRANCH   8  12
ATOM     12  N   UNL     1      -6.426  -0.101  -0.052  0.00  0.00    +0.056 N 
ATOM     13  O   UNL     1      -6.626  -1.230   0.359  0.00  0.00    -0.126 OA
ATOM     14  O   UNL     1      -7.351   0.561  -0.487  0.00  0.00    -0.126 OA
ENDBRANCH   8  12
ENDBRANCH   3   5
BRANCH   1  16
ATOM     15  C   UNL     1       2.279   0.989  -0.095  0.00  0.00    +0.028 C 
ATOM     16  C   UNL     1       1.208   1.808  -0.049  0.00  0.00    +0.080 C 
ATOM     17 BR   UNL     1       1.450   3.683  -0.078  0.00  0.00    -0.045 Br
BRANCH  15  21
ATOM     18  C   UNL     1       6.194   2.599   0.187  0.00  0.00    +0.000 A 
ATOM     19  C   UNL     1       5.163   3.164   0.917  0.00  0.00    +0.001 A 
ATOM     20  C   UNL     1       3.888   2.647   0.831  0.00  0.00    +0.008 A 
ATOM     21  C   UNL     1       3.638   1.548   0.003  0.00  0.00    -0.024 A 
ATOM     22  C   UNL     1       4.686   0.979  -0.727  0.00  0.00    +0.008 A 
ATOM     23  C   UNL     1       5.954   1.511  -0.634  0.00  0.00    +0.001 A 
ENDBRANCH  15  21
ENDBRANCH   1  16
TORSDOF 4
