REMARK  Name = ZINC32877137
REMARK  10 active torsions:
REMARK  status: ('A' for Active; 'I' for Inactive)
REMARK    1  A    between atoms: C_1  and  C_2
REMARK    2  A    between atoms: C_2  and  N_3
REMARK    3  A    between atoms: C_7  and  S_27
REMARK    4  A    between atoms: C_11  and  S_12
REMARK    5  A    between atoms: S_12  and  C_13
REMARK    6  A    between atoms: C_13  and  C_14
REMARK    7  A    between atoms: N_16  and  C_17
REMARK    8  A    between atoms: C_22  and  O_23
REMARK    9  A    between atoms: O_23  and  C_24
REMARK   10  A    between atoms: S_27  and  N_30
REMARK                            x       y       z     vdW  Elec       q    Type
REMARK                         _______ _______ _______ _____ _____    ______ ____
ROOT
ATOM      1  N   UNL     1      -8.919  -0.462  -0.486  0.00  0.00    -0.319 N 
ATOM      2  C   UNL     1      -9.680   0.695  -0.530  0.00  0.00    +0.070 A 
ATOM      3  C   UNL     1     -11.040   0.947  -0.633  0.00  0.00    +0.030 A 
ATOM      4  C   UNL     1     -11.497   2.248  -0.659  0.00  0.00    +0.030 A 
ATOM      5  C   UNL     1     -10.606   3.308  -0.583  0.00  0.00    +0.107 A 
ATOM      6  C   UNL     1      -9.252   3.076  -0.480  0.00  0.00    +0.058 A 
ATOM      7  C   UNL     1      -8.773   1.764  -0.453  0.00  0.00    +0.092 A 
ATOM      8  N   UNL     1      -7.528   1.227  -0.361  0.00  0.00    -0.222 NA
ATOM      9  C   UNL     1      -7.611  -0.081  -0.376  0.00  0.00    +0.170 A 
ENDROOT
BRANCH   5  10
ATOM     10  S   UNL     1     -11.209   4.963  -0.618  0.00  0.00    +0.056 S 
ATOM     11  O   UNL     1     -10.140   5.775  -1.083  0.00  0.00    -0.153 OA
ATOM     12  O   UNL     1     -12.472   4.921  -1.268  0.00  0.00    -0.153 OA
BRANCH  10  13
ATOM     13  N   UNL     1     -11.498   5.412   0.949  0.00  0.00    -0.204 NA
ATOM     14  H   UNL     1     -11.878   6.444   0.971  0.00  0.00    +0.144 HD
ATOM     15  H   UNL     1     -10.564   5.353   1.526  0.00  0.00    +0.144 HD
ENDBRANCH  10  13
ENDBRANCH   5  10
BRANCH   1  17
ATOM     16  C   UNL     1      -9.713  -2.331   0.877  0.00  0.00    +0.027 C 
ATOM     17  C   UNL     1      -9.422  -1.836  -0.541  0.00  0.00    +0.121 C 
ENDBRANCH   1  17
BRANCH   9  18
ATOM     18  S   UNL     1      -6.240  -1.184  -0.278  0.00  0.00    -0.078 S 
BRANCH  18  19
ATOM     19  C   UNL     1      -4.884   0.010  -0.165  0.00  0.00    +0.173 C 
BRANCH  19  20
ATOM     20  C   UNL     1      -3.573  -0.727  -0.069  0.00  0.00    +0.228 C 
ATOM     21  O   UNL     1      -3.557  -1.940  -0.076  0.00  0.00    -0.275 OA
ATOM     22  N   UNL     1      -2.418  -0.038   0.026  0.00  0.00    -0.282 N 
ATOM     23  H   UNL     1      -2.438   1.057   0.124  0.00  0.00    +0.155 HD
BRANCH  22  24
ATOM     24  C   UNL     1      -1.193  -0.718  -0.002  0.00  0.00    +0.076 A 
ATOM     25  C   UNL     1      -1.099  -1.957  -0.617  0.00  0.00    +0.027 A 
ATOM     26  C   UNL     1       0.110  -2.626  -0.643  0.00  0.00    +0.002 A 
ATOM     27  C   UNL     1       1.228  -2.062  -0.056  0.00  0.00    +0.004 A 
ATOM     28  C   UNL     1       1.143  -0.824   0.555  0.00  0.00    +0.048 A 
ATOM     29  C   UNL     1      -0.067  -0.150   0.589  0.00  0.00    +0.148 A 
BRANCH  29  30
ATOM     30  O   UNL     1      -0.153   1.065   1.194  0.00  0.00    -0.432 OA
BRANCH  30  31
ATOM     31  C   UNL     1       1.043   1.585   1.778  0.00  0.00    +0.541 C 
ATOM     32  F   UNL     1       1.500   0.705   2.766  0.00  0.00    -0.166 F 
ATOM     33  F   UNL     1       2.022   1.725   0.790  0.00  0.00    -0.166 F 
ENDBRANCH  30  31
ENDBRANCH  29  30
ENDBRANCH  22  24
ENDBRANCH  19  20
ENDBRANCH  18  19
ENDBRANCH   9  18
TORSDOF 9
