REMARK  Name = ZINC62362121
REMARK  11 active torsions:
REMARK  status: ('A' for Active; 'I' for Inactive)
REMARK    1  A    between atoms: C_1  and  C_2
REMARK    2  A    between atoms: C_2  and  C_3
REMARK    3  A    between atoms: C_3  and  C_5
REMARK    4  A    between atoms: C_3  and  N_6
REMARK    5  A    between atoms: N_9  and  C_10
REMARK    6  A    between atoms: C_10  and  C_11
REMARK    7  A    between atoms: C_11  and  C_13
REMARK    8  A    between atoms: C_11  and  N_21
REMARK    9  A    between atoms: C_16  and  O_19
REMARK   10  A    between atoms: O_19  and  C_20
REMARK   11  A    between atoms: C_24  and  C_27
REMARK                            x       y       z     vdW  Elec       q    Type
REMARK                         _______ _______ _______ _____ _____    ______ ____
ROOT
ATOM      1  C   UNL     1      -0.300   0.799   7.179  0.00  0.00    -0.020 C 
ENDROOT
BRANCH   1   2
ATOM      2  N   UNL     1      -1.329  -0.244   7.290  0.00  0.00    +0.385 N 
ATOM      3  C   UNL     1      -2.288   0.128   8.337  0.00  0.00    -0.078 C 
ATOM      4  C   UNL     1      -3.316  -0.992   8.514  0.00  0.00    -0.015 C 
ATOM      5  C   UNL     1      -4.059  -1.208   7.192  0.00  0.00    -0.018 C 
ATOM      6  C   UNL     1      -3.041  -1.523   6.092  0.00  0.00    -0.015 C 
ATOM      7  C   UNL     1      -2.023  -0.383   6.005  0.00  0.00    -0.078 C 
ATOM      8  C   UNL     1      -5.032  -2.380   7.338  0.00  0.00    +0.007 C 
ATOM      9  H   UNL     1      -0.893  -1.121   7.533  0.00  0.00    -0.081 HD
ENDBRANCH   1   2
BRANCH   1  10
ATOM     10  C   UNL     1       0.379   0.979   8.512  0.00  0.00    -0.059 A 
ATOM     11  C   UNL     1       0.680  -0.125   9.289  0.00  0.00    +0.005 A 
ATOM     12  C   UNL     1       1.302   0.038  10.511  0.00  0.00    +0.046 A 
ATOM     13  C   UNL     1       1.625   1.310  10.960  0.00  0.00    +0.120 A 
ATOM     14  C   UNL     1       1.323   2.416  10.179  0.00  0.00    +0.046 A 
ATOM     15  C   UNL     1       0.706   2.248   8.954  0.00  0.00    +0.005 A 
BRANCH  13  16
ATOM     16  O   UNL     1       2.236   1.473  12.162  0.00  0.00    -0.495 OA
ATOM     17  C   UNL     1       2.540   2.812  12.560  0.00  0.00    +0.277 C 
ENDBRANCH  13  16
ENDBRANCH   1  10
BRANCH   1  18
ATOM     18  C   UNL     1       0.735   0.383   6.131  0.00  0.00    +0.095 C 
BRANCH  18  22
ATOM     19  N   UNL     1       3.679   2.270   4.995  0.00  0.00    -0.297 N 
ATOM     20  C   UNL     1       2.781   1.278   5.157  0.00  0.00    +0.300 C 
ATOM     21  O   UNL     1       2.937   0.217   4.583  0.00  0.00    -0.253 OA
ATOM     22  N   UNL     1       1.711   1.461   5.955  0.00  0.00    -0.301 N 
ATOM     23  H   UNL     1       3.555   3.116   5.452  0.00  0.00    +0.151 HD
ATOM     24  H   UNL     1       1.587   2.308   6.413  0.00  0.00    +0.150 HD
BRANCH  19  25
ATOM     25  C   UNL     1       4.843   2.070   4.127  0.00  0.00    +0.071 C 
ATOM     26  C   UNL     1       4.458   2.380   2.679  0.00  0.00    +0.028 C 
BRANCH  25  28
ATOM     27  C   UNL     1       6.442   2.613   5.968  0.00  0.00    +0.005 C 
ATOM     28  C   UNL     1       5.972   3.004   4.565  0.00  0.00    +0.019 C 
ENDBRANCH  25  28
ENDBRANCH  19  25
ENDBRANCH  18  22
ENDBRANCH   1  18
TORSDOF 7
