REMARK  Name = ZINC39897961
REMARK  9 active torsions:
REMARK  status: ('A' for Active; 'I' for Inactive)
REMARK    1  A    between atoms: C_2  and  C_3
REMARK    2  A    between atoms: C_3  and  O_4
REMARK    3  A    between atoms: O_4  and  C_5
REMARK    4  A    between atoms: C_8  and  C_11
REMARK    5  A    between atoms: C_14  and  C_25
REMARK    6  A    between atoms: N_21  and  C_22
REMARK    7  A    between atoms: C_22  and  C_23
REMARK    8  A    between atoms: C_23  and  O_24
REMARK    9  A    between atoms: C_30  and  O_31
REMARK                            x       y       z     vdW  Elec       q    Type
REMARK                         _______ _______ _______ _____ _____    ______ ____
ROOT
ATOM      1  C   UNL     1      -5.840  -4.980  -1.499  0.00  0.00    +0.141 C 
ATOM      2  C   UNL     1      -5.555  -6.209  -0.680  0.00  0.00    +0.035 A 
ATOM      3  C   UNL     1      -5.294  -6.749   0.584  0.00  0.00    +0.102 A 
ATOM      4  N   UNL     1      -5.144  -8.050   0.434  0.00  0.00    -0.173 NA
ATOM      5  N   UNL     1      -5.284  -8.385  -0.799  0.00  0.00    -0.272 N 
ATOM      6  H   UNL     1      -5.215  -9.290  -1.142  0.00  0.00    +0.189 HD
ATOM      7  C   UNL     1      -5.544  -7.277  -1.555  0.00  0.00    +0.126 A 
ATOM      8  C   UNL     1      -5.813  -6.775  -2.908  0.00  0.00    +0.266 C 
ATOM      9  O   UNL     1      -5.870  -7.467  -3.906  0.00  0.00    -0.268 OA
ATOM     10  N   UNL     1      -5.987  -5.440  -2.886  0.00  0.00    -0.283 N 
ENDROOT
BRANCH   3  11
ATOM     11  C   UNL     1      -5.203  -5.996   1.860  0.00  0.00    +0.045 A 
ATOM     12  C   UNL     1      -5.511  -4.638   1.894  0.00  0.00    +0.033 A 
ATOM     13  C   UNL     1      -5.424  -3.941   3.083  0.00  0.00    +0.042 A 
ATOM     14  C   UNL     1      -5.032  -4.589   4.243  0.00  0.00    +0.023 A 
ATOM     15  C   UNL     1      -4.724  -5.936   4.219  0.00  0.00    +0.047 A 
ATOM     16  C   UNL     1      -4.813  -6.647   3.033  0.00  0.00    +0.126 A 
ATOM     17 CL   UNL     1      -5.807  -2.249   3.125  0.00  0.00    -0.084 Cl
BRANCH  16  18
ATOM     18  O   UNL     1      -4.516  -7.973   3.010  0.00  0.00    -0.506 OA
ATOM     19  H   UNL     1      -3.586  -8.165   2.829  0.00  0.00    +0.292 HD
ENDBRANCH  16  18
ENDBRANCH   3  11
BRANCH   1  23
ATOM     20  C   UNL     1      -2.588  -2.224  -1.200  0.00  0.00    +0.121 A 
ATOM     21  C   UNL     1      -3.821  -1.907  -0.649  0.00  0.00    +0.046 A 
ATOM     22  C   UNL     1      -4.871  -2.799  -0.747  0.00  0.00    +0.009 A 
ATOM     23  C   UNL     1      -4.694  -4.008  -1.394  0.00  0.00    -0.022 A 
ATOM     24  C   UNL     1      -3.466  -4.327  -1.944  0.00  0.00    +0.009 A 
ATOM     25  C   UNL     1      -2.414  -3.436  -1.853  0.00  0.00    +0.046 A 
BRANCH  20  26
ATOM     26  O   UNL     1      -1.554  -1.348  -1.105  0.00  0.00    -0.488 OA
BRANCH  26  27
ATOM     27  C   UNL     1      -1.805  -0.120  -0.418  0.00  0.00    +0.256 C 
BRANCH  27  29
ATOM     28  C   UNL     1      -0.618   1.996  -0.694  0.00  0.00    +0.007 C 
ATOM     29  C   UNL     1      -0.552   0.718  -0.413  0.00  0.00    +0.006 C 
ENDBRANCH  27  29
ENDBRANCH  26  27
ENDBRANCH  20  26
ENDBRANCH   1  23
BRANCH  10  30
ATOM     30  C   UNL     1      -6.274  -4.592  -4.046  0.00  0.00    +0.137 C 
BRANCH  30  31
ATOM     31  C   UNL     1      -4.964  -4.221  -4.743  0.00  0.00    +0.175 C 
BRANCH  31  32
ATOM     32  O   UNL     1      -4.363  -5.398  -5.286  0.00  0.00    -0.393 OA
ATOM     33  H   UNL     1      -3.527  -5.238  -5.743  0.00  0.00    +0.209 HD
ENDBRANCH  31  32
ENDBRANCH  30  31
ENDBRANCH  10  30
TORSDOF 9
