REMARK  Name = ZINC00473339
REMARK  8 active torsions:
REMARK  status: ('A' for Active; 'I' for Inactive)
REMARK    1  A    between atoms: C_1  and  C_2
REMARK    2  A    between atoms: C_2  and  N_3
REMARK    3  A    between atoms: N_3  and  C_4
REMARK    4  A    between atoms: N_3  and  S_10
REMARK    5  A    between atoms: S_10  and  C_13
REMARK    6  A    between atoms: C_15  and  C_21
REMARK    7  A    between atoms: C_16  and  C_20
REMARK    8  A    between atoms: C_18  and  C_19
REMARK                            x       y       z     vdW  Elec       q    Type
REMARK                         _______ _______ _______ _____ _____    ______ ____
ROOT
ATOM      1  S   UNL     1      -1.256  -0.723  -0.080  0.00  0.00    +0.061 S 
ATOM      2  O   UNL     1      -1.978  -0.160  -1.167  0.00  0.00    -0.153 OA
ATOM      3  O   UNL     1      -0.974  -2.112   0.009  0.00  0.00    -0.153 OA
ENDROOT
BRANCH   1   4
ATOM      4  C   UNL     1       0.294   0.111  -0.020  0.00  0.00    +0.109 A 
ATOM      5  C   UNL     1       1.467  -0.615   0.079  0.00  0.00    +0.032 A 
ATOM      6  C   UNL     1       2.683   0.039   0.126  0.00  0.00    -0.046 A 
ATOM      7  C   UNL     1       2.728   1.420   0.074  0.00  0.00    -0.047 A 
ATOM      8  C   UNL     1       1.556   2.146  -0.024  0.00  0.00    +0.009 A 
ATOM      9  C   UNL     1       0.339   1.492  -0.071  0.00  0.00    -0.024 A 
ATOM     10  C   UNL     1      -0.938   2.283  -0.186  0.00  0.00    +0.046 C 
ATOM     11  C   UNL     1       4.054   2.134   0.126  0.00  0.00    +0.044 C 
ATOM     12  C   UNL     1       3.961  -0.752   0.234  0.00  0.00    +0.044 C 
ENDBRANCH   1   4
BRANCH   1  13
ATOM     13  N   UNL     1      -2.083  -0.319   1.296  0.00  0.00    -0.174 NA
BRANCH  13  14
ATOM     14  C   UNL     1      -1.791  -1.009   2.555  0.00  0.00    +0.080 C 
ATOM     15  C   UNL     1      -3.021  -1.804   2.998  0.00  0.00    +0.020 C 
ATOM     16  C   UNL     1      -2.716  -2.524   4.313  0.00  0.00    +0.002 C 
ATOM     17  C   UNL     1      -2.360  -1.495   5.388  0.00  0.00    +0.000 C 
ATOM     18  C   UNL     1      -1.130  -0.700   4.945  0.00  0.00    +0.002 C 
ATOM     19  C   UNL     1      -1.435   0.021   3.630  0.00  0.00    +0.020 C 
ENDBRANCH  13  14
BRANCH  13  21
ATOM     20  C   UNL     1      -4.478   0.092   1.016  0.00  0.00    +0.022 C 
ATOM     21  C   UNL     1      -3.107   0.728   1.255  0.00  0.00    +0.106 C 
ENDBRANCH  13  21
ENDBRANCH   1  13
TORSDOF 4
