REMARK  Name = ZINC15634662
REMARK  10 active torsions:
REMARK  status: ('A' for Active; 'I' for Inactive)
REMARK    1  A    between atoms: C_1  and  C_2
REMARK    2  A    between atoms: C_5  and  P_7
REMARK    3  A    between atoms: P_7  and  C_19
REMARK    4  A    between atoms: P_7  and  O_23
REMARK    5  A    between atoms: N_8  and  C_9
REMARK    6  A    between atoms: C_11  and  N_16
REMARK    7  A    between atoms: C_19  and  C_20
REMARK    8  A    between atoms: C_19  and  C_21
REMARK    9  A    between atoms: C_19  and  C_22
REMARK   10  A    between atoms: O_23  and  C_24
REMARK                            x       y       z     vdW  Elec       q    Type
REMARK                         _______ _______ _______ _____ _____    ______ ____
ROOT
ATOM      1  P   UNL     1      -1.685   1.284   5.107  0.00  0.00    +0.208 P 
ATOM      2  N   UNL     1      -0.733   0.551   6.092  0.00  0.00    -0.221 NA
ENDROOT
BRANCH   2   3
ATOM      3  C   UNL     1       0.458   1.035   6.332  0.00  0.00    +0.082 A 
ATOM      4  C   UNL     1       0.715   2.486   6.264  0.00  0.00    +0.061 A 
ATOM      5  C   UNL     1       1.968   2.944   6.522  0.00  0.00    +0.128 A 
ATOM      6  C   UNL     1       3.000   2.067   6.846  0.00  0.00    +0.034 A 
ATOM      7  C   UNL     1       2.807   0.695   6.923  0.00  0.00    +0.019 A 
ATOM      8  C   UNL     1       1.582   0.145   6.686  0.00  0.00    +0.043 A 
ATOM      9 BR   UNL     1       1.329  -1.726   6.800  0.00  0.00    -0.048 Br
BRANCH   5  10
ATOM     10  N   UNL     1       2.240   4.397   6.458  0.00  0.00    +0.056 N 
ATOM     11  O   UNL     1       1.271   5.236   6.153  0.00  0.00    -0.126 OA
ATOM     12  O   UNL     1       3.451   4.852   6.706  0.00  0.00    -0.126 OA
ENDBRANCH   5  10
ENDBRANCH   2   3
BRANCH   1  17
ATOM     13  C   UNL     1       1.266   1.829   0.696  0.00  0.00    +0.086 C 
ATOM     14  C   UNL     1       0.496   2.195   1.939  0.00  0.00    +0.103 A 
ATOM     15  C   UNL     1       0.334   3.438   2.426  0.00  0.00    +0.045 A 
ATOM     16  C   UNL     1      -0.452   3.320   3.595  0.00  0.00    +0.055 A 
ATOM     17  C   UNL     1      -0.716   2.011   3.757  0.00  0.00    +0.181 A 
ATOM     18  O   UNL     1      -0.139   1.334   2.751  0.00  0.00    -0.455 OA
ENDBRANCH   1  17
BRANCH   1  19
ATOM     19  C   UNL     1      -2.884   0.093   4.421  0.00  0.00    +0.038 C 
ATOM     20  C   UNL     1      -2.149  -0.921   3.542  0.00  0.00    +0.020 C 
ATOM     21  C   UNL     1      -3.587  -0.639   5.565  0.00  0.00    +0.020 C 
ATOM     22  C   UNL     1      -3.920   0.840   3.579  0.00  0.00    +0.020 C 
ENDBRANCH   1  19
BRANCH   1  23
ATOM     23  O   UNL     1      -2.474   2.449   5.890  0.00  0.00    -0.451 OA
BRANCH  23  24
ATOM     24  C   UNL     1      -3.135   2.021   6.998  0.00  0.00    +0.127 A 
ATOM     25  C   UNL     1      -4.518   1.914   6.984  0.00  0.00    +0.049 A 
ATOM     26  C   UNL     1      -5.187   1.473   8.109  0.00  0.00    +0.042 A 
ATOM     27  C   UNL     1      -4.480   1.149   9.254  0.00  0.00    +0.124 A 
ATOM     28  C   UNL     1      -3.100   1.261   9.272  0.00  0.00    +0.042 A 
ATOM     29  C   UNL     1      -2.427   1.696   8.146  0.00  0.00    +0.049 A 
ATOM     30  F   UNL     1      -5.136   0.723  10.355  0.00  0.00    -0.205 F 
ENDBRANCH  23  24
ENDBRANCH   1  23
TORSDOF 6
