REMARK  Name = ZINC09725468
REMARK  6 active torsions:
REMARK  status: ('A' for Active; 'I' for Inactive)
REMARK    1  A    between atoms: C_2  and  C_3
REMARK    2  A    between atoms: C_3  and  N_4
REMARK    3  A    between atoms: C_8  and  S_27
REMARK    4  A    between atoms: N_13  and  C_14
REMARK    5  A    between atoms: C_14  and  C_16
REMARK    6  A    between atoms: S_27  and  N_30
REMARK                            x       y       z     vdW  Elec       q    Type
REMARK                         _______ _______ _______ _____ _____    ______ ____
ROOT
ATOM      1  N   UNL     1       7.268   1.772  -0.057  0.00  0.00    -0.317 N 
ATOM      2  C   UNL     1       8.324   2.666  -0.069  0.00  0.00    +0.058 A 
ATOM      3  C   UNL     1       9.697   2.369  -0.086  0.00  0.00    +0.029 A 
ATOM      4  C   UNL     1      10.636   3.373  -0.089  0.00  0.00    +0.030 A 
ATOM      5  C   UNL     1      10.263   4.706  -0.077  0.00  0.00    +0.106 A 
ATOM      6  C   UNL     1       8.917   5.029  -0.061  0.00  0.00    +0.045 A 
ATOM      7  C   UNL     1       7.978   4.025  -0.057  0.00  0.00    +0.041 A 
ATOM      8  S   UNL     1       6.202   3.997  -0.038  0.00  0.00    -0.052 S 
ATOM      9  C   UNL     1       5.983   2.225  -0.047  0.00  0.00    +0.167 A 
ATOM     10  N   UNL     1       4.854   1.526  -0.039  0.00  0.00    -0.152 NA
ENDROOT
BRANCH   5  11
ATOM     11  S   UNL     1      11.485   5.975  -0.082  0.00  0.00    +0.056 S 
ATOM     12  O   UNL     1      10.875   7.128   0.482  0.00  0.00    -0.153 OA
ATOM     13  O   UNL     1      12.669   5.400   0.453  0.00  0.00    -0.153 OA
BRANCH  11  14
ATOM     14  N   UNL     1      11.808   6.338  -1.665  0.00  0.00    -0.204 NA
ATOM     15  H   UNL     1      11.344   5.867  -2.375  0.00  0.00    +0.144 HD
ATOM     16  H   UNL     1      12.462   7.020  -1.883  0.00  0.00    +0.144 HD
ENDBRANCH  11  14
ENDBRANCH   5  11
BRANCH  10  17
ATOM     17  C   UNL     1       3.675   2.159  -0.023  0.00  0.00    +0.276 C 
ATOM     18  O   UNL     1       3.637   3.377  -0.016  0.00  0.00    -0.268 OA
BRANCH  17  19
ATOM     19  C   UNL     1       2.420   1.381  -0.015  0.00  0.00    +0.124 A 
ATOM     20  C   UNL     1       2.449  -0.001  -0.023  0.00  0.00    +0.031 A 
ATOM     21  C   UNL     1       1.219  -0.708  -0.014  0.00  0.00    +0.018 A 
ATOM     22  C   UNL     1       1.212  -2.111  -0.023  0.00  0.00    +0.011 A 
ATOM     23  C   UNL     1       0.025  -2.785  -0.015  0.00  0.00    +0.001 A 
ATOM     24  C   UNL     1      -1.178  -2.092   0.001  0.00  0.00    +0.004 A 
ATOM     25  C   UNL     1      -1.194  -0.714   0.010  0.00  0.00    +0.047 A 
ATOM     26  C   UNL     1       0.002  -0.004   0.002  0.00  0.00    +0.139 A 
ATOM     27  O   UNL     1      -0.016   1.346   0.009  0.00  0.00    -0.422 OA
ATOM     28  C   UNL     1       1.121   2.062   0.002  0.00  0.00    +0.350 A 
ATOM     29  O   UNL     1       1.072   3.278   0.009  0.00  0.00    -0.244 OA
ENDBRANCH  17  19
ENDBRANCH  10  17
BRANCH   1  30
ATOM     30  C   UNL     1       7.533   0.331  -0.061  0.00  0.00    +0.151 C 
BRANCH  30  32
ATOM     31  C   UNL     1       5.767  -1.351   0.055  0.00  0.00    +0.005 C 
ATOM     32  C   UNL     1       6.419  -0.387   0.656  0.00  0.00    -0.013 C 
ENDBRANCH  30  32
ENDBRANCH   1  30
TORSDOF 6
