REMARK  Name = ZINC35727234
REMARK  10 active torsions:
REMARK  status: ('A' for Active; 'I' for Inactive)
REMARK    1  A    between atoms: C_1  and  C_2
REMARK    2  A    between atoms: C_6  and  N_8
REMARK    3  A    between atoms: C_16  and  C_18
REMARK    4  A    between atoms: C_23  and  S_25
REMARK    5  A    between atoms: S_25  and  C_26
REMARK    6  A    between atoms: C_26  and  C_27
REMARK    7  A    between atoms: N_29  and  C_30
REMARK    8  A    between atoms: C_30  and  C_31
REMARK    9  A    between atoms: C_31  and  C_32
REMARK   10  A    between atoms: C_31  and  C_33
REMARK                            x       y       z     vdW  Elec       q    Type
REMARK                         _______ _______ _______ _____ _____    ______ ____
ROOT
ATOM      1  N   UNL     1       1.414  -3.018   2.753  0.00  0.00    -0.269 N 
ATOM      2  C   UNL     1       0.866  -4.240   2.601  0.00  0.00    +0.307 C 
ATOM      3  O   UNL     1       0.797  -4.742   1.496  0.00  0.00    -0.252 OA
ATOM      4  N   UNL     1       0.395  -4.905   3.674  0.00  0.00    -0.280 N 
ATOM      5  C   UNL     1       0.321  -4.250   4.987  0.00  0.00    +0.128 C 
ATOM      6  C   UNL     1       1.089  -5.103   6.005  0.00  0.00    +0.125 C 
ATOM      7  N   UNL     1       0.639  -6.497   5.883  0.00  0.00    -0.312 N 
ATOM      8  C   UNL     1       0.714  -7.153   4.569  0.00  0.00    +0.128 C 
ATOM      9  C   UNL     1      -0.059  -6.298   3.550  0.00  0.00    +0.092 C 
ATOM     10  C   UNL     1       0.220  -6.805   2.134  0.00  0.00    +0.030 C 
ATOM     11  C   UNL     1       0.155  -7.181   6.986  0.00  0.00    +0.127 A 
ATOM     12  C   UNL     1       0.110  -6.565   8.237  0.00  0.00    +0.083 A 
ATOM     13  C   UNL     1      -0.382  -7.286   9.310  0.00  0.00    +0.135 A 
ATOM     14  N   UNL     1      -0.792  -8.532   9.120  0.00  0.00    -0.210 NA
ATOM     15  C   UNL     1      -0.737  -9.092   7.920  0.00  0.00    +0.192 A 
ATOM     16  N   UNL     1      -0.278  -8.433   6.867  0.00  0.00    -0.207 NA
ATOM     17 CL   UNL     1      -0.460  -6.567  10.889  0.00  0.00    -0.062 Cl
ATOM     18  H   UNL     1       1.489  -2.627   3.637  0.00  0.00    +0.156 HD
ENDROOT
BRANCH   1  24
ATOM     19  C   UNL     1       2.423   1.273   0.575  0.00  0.00    +0.044 C 
ATOM     20  C   UNL     1       2.374  -0.233   0.552  0.00  0.00    -0.049 A 
ATOM     21  C   UNL     1       2.783  -0.920  -0.576  0.00  0.00    +0.003 A 
ATOM     22  C   UNL     1       2.740  -2.302  -0.602  0.00  0.00    +0.002 A 
ATOM     23  C   UNL     1       2.286  -3.000   0.501  0.00  0.00    +0.023 A 
ATOM     24  C   UNL     1       1.874  -2.313   1.635  0.00  0.00    +0.035 A 
ATOM     25  C   UNL     1       1.924  -0.925   1.659  0.00  0.00    +0.026 A 
ENDBRANCH   1  24
BRANCH  15  26
ATOM     26  S   UNL     1      -1.294 -10.751   7.720  0.00  0.00    -0.077 S 
BRANCH  26  27
ATOM     27  C   UNL     1      -1.829 -11.239   9.383  0.00  0.00    +0.173 C 
BRANCH  27  28
ATOM     28  C   UNL     1      -2.336 -12.658   9.352  0.00  0.00    +0.223 C 
ATOM     29  O   UNL     1      -2.337 -13.279   8.310  0.00  0.00    -0.275 OA
ATOM     30  N   UNL     1      -2.788 -13.236  10.482  0.00  0.00    -0.314 N 
ATOM     31  H   UNL     1      -2.787 -12.740  11.316  0.00  0.00    +0.149 HD
BRANCH  30  32
ATOM     32  C   UNL     1      -3.281 -14.616  10.452  0.00  0.00    +0.107 C 
BRANCH  32  33
ATOM     33  C   UNL     1      -3.731 -15.027  11.855  0.00  0.00    -0.000 C 
ATOM     34  C   UNL     1      -4.932 -14.177  12.275  0.00  0.00    +0.009 C 
ATOM     35  C   UNL     1      -4.128 -16.505  11.851  0.00  0.00    +0.009 C 
ENDBRANCH  32  33
ENDBRANCH  30  32
ENDBRANCH  27  28
ENDBRANCH  26  27
ENDBRANCH  15  26
TORSDOF 6
