REMARK  Name = ZINC04265768
REMARK  7 active torsions:
REMARK  status: ('A' for Active; 'I' for Inactive)
REMARK    1  A    between atoms: C_1  and  C_2
REMARK    2  A    between atoms: N_4  and  C_5
REMARK    3  A    between atoms: C_6  and  C_21
REMARK    4  A    between atoms: N_22  and  N_23
REMARK    5  A    between atoms: N_23  and  C_24
REMARK    6  A    between atoms: C_27  and  N_33
REMARK    7  A    between atoms: C_29  and  N_30
REMARK                            x       y       z     vdW  Elec       q    Type
REMARK                         _______ _______ _______ _____ _____    ______ ____
ROOT
ATOM      1  C   UNL     1       2.446  -3.312   0.035  0.00  0.00    +0.054 A 
ATOM      2  C   UNL     1       3.321  -3.431   1.136  0.00  0.00    +0.016 A 
ATOM      3  C   UNL     1       4.507  -4.157   1.010  0.00  0.00    +0.012 A 
ATOM      4  C   UNL     1       4.835  -4.759  -0.188  0.00  0.00    +0.013 A 
ATOM      5  C   UNL     1       3.985  -4.646  -1.287  0.00  0.00    +0.035 A 
ATOM      6  C   UNL     1       2.782  -3.916  -1.177  0.00  0.00    +0.055 A 
ATOM      7  C   UNL     1       1.887  -3.800  -2.343  0.00  0.00    +0.196 C 
ATOM      8  O   UNL     1       0.748  -3.399  -2.208  0.00  0.00    -0.287 OA
ATOM      9  C   UNL     1       2.393  -4.180  -3.681  0.00  0.00    +0.033 A 
ATOM     10  C   UNL     1       1.694  -3.824  -4.830  0.00  0.00    +0.012 A 
ATOM     11  C   UNL     1       2.182  -4.187  -6.072  0.00  0.00    +0.001 A 
ATOM     12  C   UNL     1       3.362  -4.902  -6.181  0.00  0.00    +0.001 A 
ATOM     13  C   UNL     1       4.069  -5.264  -5.048  0.00  0.00    +0.012 A 
ATOM     14  C   UNL     1       3.592  -4.908  -3.791  0.00  0.00    +0.033 A 
ATOM     15  C   UNL     1       4.334  -5.286  -2.569  0.00  0.00    +0.195 C 
ATOM     16  O   UNL     1       5.222  -6.115  -2.621  0.00  0.00    -0.287 OA
ENDROOT
BRANCH   1  20
ATOM     17  C   UNL     1      -0.090  -0.551  -0.166  0.00  0.00    +0.109 C 
ATOM     18  C   UNL     1       1.204  -1.317  -0.264  0.00  0.00    +0.214 C 
ATOM     19  O   UNL     1       2.192  -0.782  -0.720  0.00  0.00    -0.276 OA
ATOM     20  N   UNL     1       1.263  -2.597   0.156  0.00  0.00    -0.285 N 
ATOM     21  H   UNL     1       0.479  -3.017   0.542  0.00  0.00    +0.155 HD
ENDBRANCH   1  20
BRANCH   2  22
ATOM     22  C   UNL     1       2.982  -2.794   2.415  0.00  0.00    +0.140 C 
ATOM     23  N   UNL     1       1.898  -3.138   3.046  0.00  0.00    -0.190 NA
BRANCH  23  24
ATOM     24  N   UNL     1       1.529  -2.471   4.222  0.00  0.00    -0.236 N 
ATOM     25  H   UNL     1       2.043  -1.707   4.527  0.00  0.00    +0.174 HD
BRANCH  24  26
ATOM     26  C   UNL     1       0.423  -2.904   4.952  0.00  0.00    +0.079 A 
ATOM     27  C   UNL     1      -0.232  -4.078   4.595  0.00  0.00    +0.029 A 
ATOM     28  C   UNL     1      -1.330  -4.501   5.317  0.00  0.00    +0.035 A 
ATOM     29  C   UNL     1      -1.772  -3.764   6.401  0.00  0.00    +0.128 A 
ATOM     30  C   UNL     1      -1.124  -2.597   6.760  0.00  0.00    +0.067 A 
ATOM     31  C   UNL     1      -0.028  -2.164   6.039  0.00  0.00    +0.151 A 
BRANCH  31  32
ATOM     32  N   UNL     1       0.666  -0.915   6.424  0.00  0.00    +0.058 N 
ATOM     33  O   UNL     1       0.350  -0.333   7.446  0.00  0.00    -0.126 OA
ATOM     34  O   UNL     1       1.553  -0.469   5.718  0.00  0.00    -0.126 OA
ENDBRANCH  31  32
BRANCH  29  35
ATOM     35  N   UNL     1      -2.947  -4.223   7.176  0.00  0.00    +0.056 N 
ATOM     36  O   UNL     1      -3.341  -3.574   8.128  0.00  0.00    -0.126 OA
ATOM     37  O   UNL     1      -3.520  -5.251   6.862  0.00  0.00    -0.126 OA
ENDBRANCH  29  35
ENDBRANCH  24  26
ENDBRANCH  23  24
ENDBRANCH   2  22
TORSDOF 6
