REMARK  Name = ZINC34858834
REMARK  11 active torsions:
REMARK  status: ('A' for Active; 'I' for Inactive)
REMARK    1  A    between atoms: C_1  and  C_2
REMARK    2  A    between atoms: C_8  and  N_10
REMARK    3  A    between atoms: C_11  and  C_13
REMARK    4  A    between atoms: C_13  and  C_15
REMARK    5  A    between atoms: C_13  and  O_16
REMARK    6  A    between atoms: O_16  and  C_17
REMARK    7  A    between atoms: C_17  and  C_19
REMARK    8  A    between atoms: C_23  and  S_25
REMARK    9  A    between atoms: S_25  and  N_28
REMARK   10  A    between atoms: C_30  and  C_37
REMARK   11  A    between atoms: C_33  and  C_36
REMARK                            x       y       z     vdW  Elec       q    Type
REMARK                         _______ _______ _______ _____ _____    ______ ____
ROOT
ATOM      1  C   UNL     1       6.708   0.331   5.142  0.00  0.00    +0.061 A 
ATOM      2  C   UNL     1       5.926   0.445   6.293  0.00  0.00    +0.015 A 
ATOM      3  C   UNL     1       6.519   0.375   7.537  0.00  0.00    +0.003 A 
ATOM      4  C   UNL     1       7.887   0.193   7.644  0.00  0.00    +0.028 A 
ATOM      5  C   UNL     1       8.668   0.080   6.508  0.00  0.00    +0.106 A 
ATOM      6  C   UNL     1       8.087   0.142   5.259  0.00  0.00    +0.043 A 
ENDROOT
BRANCH   5   7
ATOM      7  S   UNL     1      10.409  -0.151   6.657  0.00  0.00    +0.061 S 
ATOM      8  O   UNL     1      10.986   0.319   5.447  0.00  0.00    -0.153 OA
ATOM      9  O   UNL     1      10.779   0.365   7.928  0.00  0.00    -0.153 OA
BRANCH   7  10
ATOM     10  N   UNL     1      10.683  -1.783   6.711  0.00  0.00    -0.172 NA
ATOM     11  C   UNL     1      10.698  -2.507   7.992  0.00  0.00    +0.140 C 
ATOM     12  C   UNL     1      11.980  -3.346   8.058  0.00  0.00    +0.131 C 
ATOM     13  O   UNL     1      12.081  -4.144   6.877  0.00  0.00    -0.371 OA
ATOM     14  C   UNL     1      12.190  -3.389   5.668  0.00  0.00    +0.131 C 
ATOM     15  C   UNL     1      10.914  -2.553   5.479  0.00  0.00    +0.140 C 
ATOM     16  C   UNL     1      12.355  -4.343   4.483  0.00  0.00    +0.039 C 
ATOM     17  C   UNL     1      11.932  -4.255   9.288  0.00  0.00    +0.039 C 
ENDBRANCH   7  10
ENDBRANCH   5   7
BRANCH   1  18
ATOM     18  C   UNL     1       6.080   0.405   3.808  0.00  0.00    +0.340 C 
ATOM     19  O   UNL     1       6.762   0.301   2.808  0.00  0.00    -0.245 OA
BRANCH  18  20
ATOM     20  O   UNL     1       4.749   0.588   3.699  0.00  0.00    -0.449 OA
BRANCH  20  21
ATOM     21  C   UNL     1       4.209   0.649   2.377  0.00  0.00    +0.259 C 
ATOM     22  C   UNL     1       4.213   2.100   1.892  0.00  0.00    +0.062 C 
BRANCH  21  24
ATOM     23  N   UNL     1       2.116  -0.004   1.231  0.00  0.00    -0.309 N 
ATOM     24  C   UNL     1       2.795   0.128   2.388  0.00  0.00    +0.254 C 
ATOM     25  O   UNL     1       2.268  -0.174   3.438  0.00  0.00    -0.272 OA
ATOM     26  H   UNL     1       2.538   0.237   0.392  0.00  0.00    +0.149 HD
BRANCH  23  33
ATOM     27  C   UNL     1      -0.019   1.526   0.010  0.00  0.00    +0.009 C 
ATOM     28  C   UNL     1       0.002  -0.004   0.002  0.00  0.00    +0.006 C 
ATOM     29  C   UNL     1      -1.433  -0.534   0.013  0.00  0.00    +0.005 C 
ATOM     30  C   UNL     1      -1.413  -2.063   0.004  0.00  0.00    +0.000 C 
ATOM     31  C   UNL     1      -0.673  -2.570   1.244  0.00  0.00    +0.002 C 
ATOM     32  C   UNL     1       0.763  -2.041   1.233  0.00  0.00    +0.022 C 
ATOM     33  C   UNL     1       0.742  -0.511   1.242  0.00  0.00    +0.076 C 
ENDBRANCH  23  33
ENDBRANCH  21  24
ENDBRANCH  20  21
ENDBRANCH  18  20
ENDBRANCH   1  18
TORSDOF 7
