REMARK  Name = ZINC14884879
REMARK  10 active torsions:
REMARK  status: ('A' for Active; 'I' for Inactive)
REMARK    1  A    between atoms: C_1  and  C_2
REMARK    2  A    between atoms: C_8  and  C_36
REMARK    3  A    between atoms: C_9  and  C_12
REMARK    4  A    between atoms: C_12  and  N_69
REMARK    5  A    between atoms: C_24  and  N_30
REMARK    6  A    between atoms: C_26  and  O_28
REMARK    7  A    between atoms: O_28  and  C_29
REMARK    8  A    between atoms: C_31  and  C_33
REMARK    9  A    between atoms: C_33  and  S_34
REMARK   10  A    between atoms: S_34  and  C_35
REMARK                            x       y       z     vdW  Elec       q    Type
REMARK                         _______ _______ _______ _____ _____    ______ ____
ROOT
ATOM      1  C   UNL     1      -2.490   2.407   2.362  0.00  0.00    -0.077 C 
ATOM      2  C   UNL     1      -2.758   1.891   3.779  0.00  0.00    -0.005 C 
ATOM      3  C   UNL     1      -4.244   1.573   3.928  0.00  0.00    +0.021 C 
ATOM      4  C   UNL     1      -4.681   0.571   2.863  0.00  0.00    -0.005 C 
ATOM      5  C   UNL     1      -4.350   1.130   1.476  0.00  0.00    -0.077 C 
ATOM      6  C   UNL     1      -4.530   1.033   5.308  0.00  0.00    -0.034 A 
ATOM      7  C   UNL     1      -4.322  -0.227   5.845  0.00  0.00    +0.004 A 
ATOM      8  C   UNL     1      -4.672  -0.492   7.154  0.00  0.00    +0.000 A 
ATOM      9  C   UNL     1      -5.231   0.502   7.934  0.00  0.00    +0.000 A 
ATOM     10  C   UNL     1      -5.439   1.760   7.402  0.00  0.00    +0.006 A 
ATOM     11  C   UNL     1      -5.090   2.028   6.089  0.00  0.00    -0.021 A 
ATOM     12  C   UNL     1      -5.213   3.303   5.282  0.00  0.00    +0.133 C 
ATOM     13  C   UNL     1      -5.072   2.865   3.808  0.00  0.00    +0.153 C 
ATOM     14  N   UNL     1      -2.893   1.368   1.391  0.00  0.00    +0.383 N 
ATOM     15  H   UNL     1      -2.400   0.495   1.612  0.00  0.00    -0.081 HD
ENDROOT
BRANCH  12  16
ATOM     16  N   UNL     1      -4.141   4.236   5.639  0.00  0.00    -0.305 N 
ATOM     17  C   UNL     1      -4.321   5.115   6.645  0.00  0.00    +0.223 C 
ATOM     18  O   UNL     1      -5.369   5.134   7.255  0.00  0.00    -0.275 OA
ATOM     19  H   UNL     1      -3.303   4.221   5.152  0.00  0.00    +0.149 HD
BRANCH  17  20
ATOM     20  C   UNL     1      -3.218   6.075   7.013  0.00  0.00    +0.164 C 
BRANCH  20  21
ATOM     21  S   UNL     1      -3.761   7.119   8.393  0.00  0.00    -0.155 S 
ATOM     22  C   UNL     1      -2.340   8.202   8.709  0.00  0.00    +0.085 C 
ENDBRANCH  20  21
ENDBRANCH  17  20
ENDBRANCH  12  16
BRANCH  13  23
ATOM     23  O   UNL     1      -6.353   2.596   3.233  0.00  0.00    -0.377 OA
ATOM     24  C   UNL     1      -6.894   3.685   2.482  0.00  0.00    +0.194 C 
ENDBRANCH  13  23
BRANCH  14  25
ATOM     25  C   UNL     1      -2.531   1.790   0.022  0.00  0.00    -0.024 C 
BRANCH  25  34
ATOM     26  C   UNL     1       4.867   3.021  -0.028  0.00  0.00    +0.044 C 
ATOM     27  C   UNL     1       3.377   3.249  -0.013  0.00  0.00    -0.050 A 
ATOM     28  C   UNL     1       2.879   4.545  -0.001  0.00  0.00    +0.005 A 
ATOM     29  C   UNL     1       1.521   4.776   0.013  0.00  0.00    +0.026 A 
ATOM     30  C   UNL     1       0.638   3.701   0.015  0.00  0.00    +0.047 A 
ATOM     31  C   UNL     1       1.147   2.390   0.004  0.00  0.00    +0.003 A 
ATOM     32  C   UNL     1       2.527   2.179  -0.010  0.00  0.00    +0.013 A 
ATOM     33  C   UNL     1      -0.018   1.503   0.010  0.00  0.00    -0.024 A 
ATOM     34  C   UNL     1      -1.108   2.287   0.019  0.00  0.00    +0.003 A 
ATOM     35  N   UNL     1      -0.736   3.603   0.028  0.00  0.00    -0.359 N 
ATOM     36  H   UNL     1      -1.348   4.355   0.037  0.00  0.00    +0.166 HD
ATOM     37  C   UNL     1       0.002  -0.004   0.002  0.00  0.00    +0.046 C 
ENDBRANCH  25  34
ENDBRANCH  14  25
TORSDOF 6
