REMARK  Name = ZINC00936526
REMARK  8 active torsions:
REMARK  status: ('A' for Active; 'I' for Inactive)
REMARK    1  A    between atoms: C_1  and  C_2
REMARK    2  A    between atoms: C_2  and  O_3
REMARK    3  A    between atoms: O_3  and  C_4
REMARK    4  A    between atoms: C_4  and  C_6
REMARK    5  A    between atoms: C_10  and  N_11
REMARK    6  A    between atoms: C_12  and  C_14
REMARK    7  A    between atoms: C_17  and  O_20
REMARK    8  A    between atoms: C_22  and  C_26
REMARK                            x       y       z     vdW  Elec       q    Type
REMARK                         _______ _______ _______ _____ _____    ______ ____
ROOT
ATOM      1  C   UNL     1       1.258  -4.096  -0.085  0.00  0.00    +0.091 A 
ATOM      2  C   UNL     1       0.941  -2.684   0.053  0.00  0.00    -0.021 A 
ATOM      3  C   UNL     1       1.008  -1.966  -1.089  0.00  0.00    -0.004 A 
ATOM      4  S   UNL     1       1.484  -3.133  -2.332  0.00  0.00    -0.077 S 
ATOM      5  C   UNL     1       1.592  -4.558  -1.352  0.00  0.00    +0.087 A 
ATOM      6  C   UNL     1       0.736  -0.502  -1.252  0.00  0.00    +0.046 C 
ATOM      7  C   UNL     1       0.002  -0.004   0.002  0.00  0.00    -0.009 C 
ATOM      8  C   UNL     1       0.742  -0.514   1.242  0.00  0.00    +0.008 C 
ATOM      9  C   UNL     1       0.557  -2.027   1.373  0.00  0.00    +0.037 C 
ATOM     10  C   UNL     1      -0.019   1.526   0.010  0.00  0.00    +0.008 C 
ENDROOT
BRANCH   5  11
ATOM     11  N   UNL     1       1.930  -5.844  -1.738  0.00  0.00    -0.275 N 
ATOM     12  C   UNL     1       2.227  -6.105  -3.026  0.00  0.00    +0.249 C 
ATOM     13  O   UNL     1       2.199  -5.211  -3.850  0.00  0.00    -0.270 OA
ATOM     14  H   UNL     1       1.953  -6.557  -1.081  0.00  0.00    +0.156 HD
BRANCH  12  15
ATOM     15  C   UNL     1       2.587  -7.476  -3.438  0.00  0.00    +0.037 A 
ATOM     16  C   UNL     1       2.625  -8.504  -2.492  0.00  0.00    +0.016 A 
ATOM     17  C   UNL     1       2.957  -9.782  -2.880  0.00  0.00    +0.046 A 
ATOM     18  C   UNL     1       3.263 -10.049  -4.210  0.00  0.00    +0.117 A 
ATOM     19  C   UNL     1       3.230  -9.028  -5.153  0.00  0.00    +0.046 A 
ATOM     20  C   UNL     1       2.895  -7.748  -4.773  0.00  0.00    +0.016 A 
BRANCH  18  21
ATOM     21  O   UNL     1       3.594 -11.310  -4.588  0.00  0.00    -0.507 OA
ATOM     22  H   UNL     1       4.541 -11.500  -4.537  0.00  0.00    +0.292 HD
ENDBRANCH  18  21
ENDBRANCH  12  15
ENDBRANCH   5  11
BRANCH   1  23
ATOM     23  C   UNL     1       1.227  -4.998   1.068  0.00  0.00    +0.342 C 
ATOM     24  O   UNL     1       0.199  -5.581   1.356  0.00  0.00    -0.245 OA
BRANCH  23  25
ATOM     25  O   UNL     1       2.337  -5.181   1.811  0.00  0.00    -0.461 OA
BRANCH  25  27
ATOM     26  C   UNL     1       3.582  -6.169   3.656  0.00  0.00    +0.048 C 
ATOM     27  C   UNL     1       2.233  -6.089   2.939  0.00  0.00    +0.229 C 
ENDBRANCH  25  27
ENDBRANCH  23  25
ENDBRANCH   1  23
TORSDOF 6
