REMARK  Name = ZINC06243588
REMARK  8 active torsions:
REMARK  status: ('A' for Active; 'I' for Inactive)
REMARK    1  A    between atoms: C_1  and  C_2
REMARK    2  A    between atoms: C_2  and  C_3
REMARK    3  A    between atoms: C_6  and  N_9
REMARK    4  A    between atoms: C_13  and  C_14
REMARK    5  A    between atoms: C_16  and  C_26
REMARK    6  A    between atoms: N_17  and  C_20
REMARK    7  A    between atoms: C_18  and  C_19
REMARK    8  A    between atoms: C_27  and  O_31
REMARK                            x       y       z     vdW  Elec       q    Type
REMARK                         _______ _______ _______ _____ _____    ______ ____
ROOT
ATOM      1  N   UNL     1       3.625  -0.698  -0.249  0.00  0.00    -0.188 N 
ATOM      2  C   UNL     1       2.526  -0.032  -0.664  0.00  0.00    +0.263 C 
ATOM      3  O   UNL     1       2.597   1.119  -1.052  0.00  0.00    -0.269 OA
ATOM      4  C   UNL     1       1.236  -0.745  -0.628  0.00  0.00    +0.097 C 
ATOM      5  C   UNL     1       0.056  -0.133  -1.032  0.00  0.00    +0.028 C 
ATOM      6  C   UNL     1       1.255  -2.135  -0.150  0.00  0.00    +0.218 C 
ATOM      7  N   UNL     1       2.411  -2.659   0.220  0.00  0.00    -0.127 NA
ATOM      8  C   UNL     1       3.547  -1.968   0.172  0.00  0.00    +0.340 C 
ATOM      9  O   UNL     1       4.572  -2.521   0.530  0.00  0.00    -0.250 OA
ENDROOT
BRANCH   5  10
ATOM     10  C   UNL     1       0.033   1.257  -1.286  0.00  0.00    -0.003 A 
ATOM     11  C   UNL     1       0.627   2.320  -0.460  0.00  0.00    +0.031 A 
ATOM     12  C   UNL     1       0.360   3.478  -1.083  0.00  0.00    +0.022 A 
ATOM     13  N   UNL     1      -0.349   3.224  -2.225  0.00  0.00    -0.317 N 
ATOM     14  C   UNL     1      -0.550   1.901  -2.369  0.00  0.00    +0.028 A 
ATOM     15  C   UNL     1      -1.284   1.236  -3.505  0.00  0.00    +0.064 C 
ATOM     16  C   UNL     1       0.777   4.844  -0.601  0.00  0.00    +0.064 C 
BRANCH  13  17
ATOM     17  C   UNL     1      -0.797   4.203  -3.123  0.00  0.00    +0.047 A 
ATOM     18  C   UNL     1      -2.158   4.410  -3.304  0.00  0.00    +0.026 A 
ATOM     19  C   UNL     1      -2.596   5.379  -4.186  0.00  0.00    +0.002 A 
ATOM     20  C   UNL     1      -1.681   6.135  -4.895  0.00  0.00    +0.000 A 
ATOM     21  C   UNL     1      -0.325   5.928  -4.720  0.00  0.00    +0.002 A 
ATOM     22  C   UNL     1       0.119   4.964  -3.836  0.00  0.00    +0.026 A 
ENDBRANCH  13  17
ENDBRANCH   5  10
BRANCH   1  26
ATOM     23  C   UNL     1       7.324   1.223  -0.294  0.00  0.00    -0.048 A 
ATOM     24  C   UNL     1       6.538   1.266   0.843  0.00  0.00    +0.005 A 
ATOM     25  C   UNL     1       5.312   0.630   0.861  0.00  0.00    +0.024 A 
ATOM     26  C   UNL     1       4.869  -0.052  -0.264  0.00  0.00    +0.046 A 
ATOM     27  C   UNL     1       5.662  -0.098  -1.402  0.00  0.00    +0.024 A 
ATOM     28  C   UNL     1       6.885   0.545  -1.416  0.00  0.00    +0.005 A 
BRANCH  23  30
ATOM     29  C   UNL     1       9.745   0.949   0.165  0.00  0.00    +0.009 C 
ATOM     30  C   UNL     1       8.661   1.918  -0.310  0.00  0.00    +0.032 C 
ENDBRANCH  23  30
ENDBRANCH   1  26
BRANCH   6  31
ATOM     31  O   UNL     1       0.118  -2.860  -0.091  0.00  0.00    -0.493 OA
ATOM     32  H   UNL     1       0.242  -3.761   0.237  0.00  0.00    +0.294 HD
ENDBRANCH   6  31
TORSDOF 5
