REMARK  Name = ZINC11820088
REMARK  8 active torsions:
REMARK  status: ('A' for Active; 'I' for Inactive)
REMARK    1  A    between atoms: C_4  and  C_7
REMARK    2  A    between atoms: C_7  and  C_8
REMARK    3  A    between atoms: C_8  and  C_9
REMARK    4  A    between atoms: C_9  and  N_56
REMARK    5  A    between atoms: C_15  and  C_17
REMARK    6  A    between atoms: C_17  and  C_18
REMARK    7  A    between atoms: N_20  and  C_21
REMARK    8  A    between atoms: C_21  and  C_22
REMARK                            x       y       z     vdW  Elec       q    Type
REMARK                         _______ _______ _______ _____ _____    ______ ____
ROOT
ATOM      1  C   UNL     1      -0.649  -2.740  -0.838  0.00  0.00    -0.059 C 
ATOM      2  C   UNL     1      -0.613  -4.269  -0.777  0.00  0.00    +0.085 C 
ATOM      3  N   UNL     1       0.115  -4.798  -1.926  0.00  0.00    -0.318 N 
ATOM      4  C   UNL     1       0.943  -4.055  -2.668  0.00  0.00    +0.200 C 
ATOM      5  O   UNL     1       1.532  -4.583  -3.587  0.00  0.00    -0.278 OA
ATOM      6  C   UNL     1       1.174  -2.593  -2.410  0.00  0.00    +0.028 C 
ATOM      7  H   UNL     1      -0.007  -5.731  -2.162  0.00  0.00    +0.149 HD
ATOM      8  N   UNL     1       0.731  -2.258  -1.043  0.00  0.00    +0.389 N 
ATOM      9  H   UNL     1       1.351  -2.719  -0.367  0.00  0.00    -0.081 HD
ENDROOT
BRANCH   8  10
ATOM     10  C   UNL     1       0.794  -0.794  -0.834  0.00  0.00    -0.077 C 
BRANCH  10  11
ATOM     11  C   UNL     1      -0.197  -0.083  -1.758  0.00  0.00    -0.014 C 
BRANCH  11  12
ATOM     12  C   UNL     1      -0.140   1.425  -1.505  0.00  0.00    +0.033 C 
BRANCH  12  16
ATOM     13  C   UNL     1      -2.908   3.409  -4.083  0.00  0.00    +0.000 A 
ATOM     14  C   UNL     1      -3.313   2.980  -2.833  0.00  0.00    +0.000 A 
ATOM     15  C   UNL     1      -2.417   2.338  -1.998  0.00  0.00    +0.003 A 
ATOM     16  C   UNL     1      -1.116   2.124  -2.414  0.00  0.00    -0.047 A 
ATOM     17  C   UNL     1      -0.710   2.558  -3.663  0.00  0.00    +0.003 A 
ATOM     18  C   UNL     1      -1.607   3.195  -4.499  0.00  0.00    +0.000 A 
ENDBRANCH  12  16
ENDBRANCH  11  12
ENDBRANCH  10  11
ENDBRANCH   8  10
BRANCH   6  19
ATOM     19  C   UNL     1       2.667  -2.284  -2.538  0.00  0.00    +0.089 C 
BRANCH  19  20
ATOM     20  C   UNL     1       3.431  -3.049  -1.488  0.00  0.00    +0.212 C 
ATOM     21  O   UNL     1       2.833  -3.691  -0.651  0.00  0.00    -0.276 OA
ATOM     22  N   UNL     1       4.778  -3.021  -1.480  0.00  0.00    -0.310 N 
ATOM     23  H   UNL     1       5.256  -2.507  -2.150  0.00  0.00    +0.149 HD
BRANCH  22  24
ATOM     24  C   UNL     1       5.520  -3.765  -0.460  0.00  0.00    +0.161 C 
BRANCH  24  25
ATOM     25  C   UNL     1       6.999  -3.568  -0.671  0.00  0.00    +0.077 A 
ATOM     26  C   UNL     1       7.764  -2.655  -0.059  0.00  0.00    +0.113 A 
ATOM     27  N   UNL     1       9.069  -2.809  -0.536  0.00  0.00    -0.324 N 
ATOM     28  C   UNL     1       9.002  -3.830  -1.428  0.00  0.00    +0.169 A 
ATOM     29  N   UNL     1       7.776  -4.282  -1.501  0.00  0.00    -0.225 NA
ATOM     30  S   UNL     1      10.644  -4.065  -2.066  0.00  0.00    -0.086 S 
ATOM     31  C   UNL     1      11.514  -2.754  -1.128  0.00  0.00    +0.099 C 
ATOM     32  C   UNL     1      10.359  -2.166  -0.302  0.00  0.00    +0.135 C 
ENDBRANCH  24  25
ENDBRANCH  22  24
ENDBRANCH  19  20
ENDBRANCH   6  19
TORSDOF 8
