REMARK  Name = ZINC49044160
REMARK  7 active torsions:
REMARK  status: ('A' for Active; 'I' for Inactive)
REMARK    1  A    between atoms: C_4  and  N_11
REMARK    2  A    between atoms: C_5  and  C_7
REMARK    3  A    between atoms: C_8  and  C_9
REMARK    4  A    between atoms: C_9  and  N_10
REMARK    5  A    between atoms: N_11  and  S_12
REMARK    6  A    between atoms: S_12  and  C_15
REMARK    7  A    between atoms: C_15  and  C_16
REMARK                            x       y       z     vdW  Elec       q    Type
REMARK                         _______ _______ _______ _____ _____    ______ ____
ROOT
ATOM      1  C   UNL     1      -0.131   1.058   0.533  0.00  0.00    +0.001 A 
ATOM      2  C   UNL     1       0.987   1.869   0.434  0.00  0.00    +0.002 A 
ATOM      3  C   UNL     1       2.238   1.314   0.245  0.00  0.00    +0.026 A 
ATOM      4  C   UNL     1       2.381  -0.063   0.153  0.00  0.00    +0.063 A 
ATOM      5  C   UNL     1       1.251  -0.887   0.254  0.00  0.00    +0.047 A 
ATOM      6  C   UNL     1      -0.006  -0.314   0.444  0.00  0.00    +0.019 A 
ENDROOT
BRANCH   5   7
ATOM      7  C   UNL     1       1.387  -2.310   0.160  0.00  0.00    -0.066 C 
ATOM      8  C   UNL     1       1.498  -3.476   0.083  0.00  0.00    -0.117 C 
BRANCH   8   9
ATOM      9  C   UNL     1       1.637  -4.938  -0.014  0.00  0.00    +0.005 C 
BRANCH   9  10
ATOM     10  N   UNL     1       0.316  -5.566   0.122  0.00  0.00    +0.385 N 
ATOM     11  H   UNL     1      -0.290  -5.236  -0.615  0.00  0.00    -0.089 HD
ATOM     12  H   UNL     1       0.412  -6.568   0.056  0.00  0.00    -0.089 HD
ATOM     13  H   UNL     1      -0.081  -5.324   1.017  0.00  0.00    -0.089 HD
ENDBRANCH   9  10
ENDBRANCH   8   9
ENDBRANCH   5   7
BRANCH   4  14
ATOM     14  N   UNL     1       3.643  -0.625  -0.038  0.00  0.00    -0.219 N 
ATOM     15  H   UNL     1       3.742  -1.420  -0.586  0.00  0.00    +0.173 HD
BRANCH  14  16
ATOM     16  S   UNL     1       4.972   0.064   0.669  0.00  0.00    +0.043 S 
ATOM     17  O   UNL     1       6.048  -0.805   0.343  0.00  0.00    -0.155 OA
ATOM     18  O   UNL     1       4.966   1.411   0.215  0.00  0.00    -0.155 OA
BRANCH  16  19
ATOM     19  C   UNL     1       4.637   0.003   2.450  0.00  0.00    +0.192 C 
BRANCH  19  20
ATOM     20  C   UNL     1       5.812   0.620   3.212  0.00  0.00    +0.012 C 
ATOM     21  C   UNL     1       5.916   2.108   2.870  0.00  0.00    +0.005 C 
ATOM     22  C   UNL     1       7.091   2.725   3.632  0.00  0.00    +0.000 C 
ATOM     23  C   UNL     1       6.866   2.561   5.136  0.00  0.00    +0.000 C 
ATOM     24  C   UNL     1       6.761   1.073   5.478  0.00  0.00    +0.000 C 
ATOM     25  C   UNL     1       5.587   0.456   4.716  0.00  0.00    +0.005 C 
ENDBRANCH  19  20
ENDBRANCH  16  19
ENDBRANCH  14  16
ENDBRANCH   4  14
TORSDOF 7
