REMARK  Name = ZINC02561272
REMARK  6 active torsions:
REMARK  status: ('A' for Active; 'I' for Inactive)
REMARK    1  A    between atoms: C_1  and  C_2
REMARK    2  A    between atoms: C_6  and  C_22
REMARK    3  A    between atoms: C_6  and  C_23
REMARK    4  A    between atoms: C_16  and  O_21
REMARK    5  A    between atoms: C_23  and  O_25
REMARK    6  A    between atoms: O_25  and  C_26
REMARK                            x       y       z     vdW  Elec       q    Type
REMARK                         _______ _______ _______ _____ _____    ______ ____
ROOT
ATOM      1  C   UNL     1      -0.019   1.521   0.010  0.00  0.00    +0.012 C 
ATOM      2  C   UNL     1       0.002  -0.004   0.002  0.00  0.00    -0.025 C 
ATOM      3  C   UNL     1      -1.445  -0.506   0.156  0.00  0.00    +0.007 C 
ATOM      4  C   UNL     1      -2.006  -0.036   1.496  0.00  0.00    +0.002 C 
ATOM      5  C   UNL     1      -1.202  -0.633   2.644  0.00  0.00    +0.018 C 
ATOM      6  C   UNL     1       0.290  -0.325   2.531  0.00  0.00    +0.068 C 
ATOM      7  C   UNL     1       0.828  -0.592   1.143  0.00  0.00    +0.012 C 
ATOM      8  C   UNL     1       2.296  -0.204   0.991  0.00  0.00    +0.006 C 
ATOM      9  C   UNL     1       2.835  -0.869  -0.284  0.00  0.00    +0.008 C 
ATOM     10  C   UNL     1       2.050  -0.397  -1.490  0.00  0.00    -0.019 C 
ATOM     11  C   UNL     1       0.548  -0.521  -1.324  0.00  0.00    +0.002 C 
ATOM     12  C   UNL     1      -0.211  -0.014  -2.536  0.00  0.00    +0.008 C 
ATOM     13  C   UNL     1       0.393   1.208  -3.207  0.00  0.00    +0.039 C 
ATOM     14  C   UNL     1       1.914   1.079  -3.346  0.00  0.00    +0.087 C 
ATOM     15  C   UNL     1       2.479   1.024  -1.900  0.00  0.00    +0.046 C 
ATOM     16  C   UNL     1       2.245  -0.290  -3.919  0.00  0.00    -0.045 C 
ATOM     17  C   UNL     1       2.349  -0.599  -5.189  0.00  0.00    +0.010 C 
ATOM     18  C   UNL     1       2.437  -1.229  -2.741  0.00  0.00    +0.040 C 
ATOM     19  C   UNL     1       1.002  -1.294   3.512  0.00  0.00    +0.023 C 
ENDROOT
BRANCH  14  20
ATOM     20  O   UNL     1       2.484   2.142  -4.114  0.00  0.00    -0.384 OA
ATOM     21  H   UNL     1       2.139   2.205  -5.015  0.00  0.00    +0.211 HD
ENDBRANCH  14  20
BRANCH   6  22
ATOM     22  C   UNL     1       0.572   1.069   3.021  0.00  0.00    +0.313 C 
ATOM     23  O   UNL     1       1.064   1.883   2.276  0.00  0.00    -0.250 OA
BRANCH  22  24
ATOM     24  O   UNL     1       0.276   1.409   4.285  0.00  0.00    -0.468 OA
ATOM     25  C   UNL     1       0.570   2.750   4.683  0.00  0.00    +0.280 C 
ENDBRANCH  22  24
ENDBRANCH   6  22
TORSDOF 3
