REMARK  Name = ZINC24309687
REMARK  8 active torsions:
REMARK  status: ('A' for Active; 'I' for Inactive)
REMARK    1  A    between atoms: C_1  and  C_2
REMARK    2  A    between atoms: C_5  and  C_8
REMARK    3  A    between atoms: N_14  and  C_15
REMARK    4  A    between atoms: C_15  and  C_16
REMARK    5  A    between atoms: C_16  and  C_17
REMARK    6  A    between atoms: N_19  and  N_20
REMARK    7  A    between atoms: C_21  and  C_23
REMARK    8  A    between atoms: C_30  and  C_33
REMARK                            x       y       z     vdW  Elec       q    Type
REMARK                         _______ _______ _______ _____ _____    ______ ____
ROOT
ATOM      1  C   UNL     1       5.357   7.760  -1.108  0.00  0.00    +0.231 C 
ATOM      2  O   UNL     1       4.231   8.165  -1.304  0.00  0.00    -0.274 OA
ATOM      3  N   UNL     1       5.561   6.472  -0.768  0.00  0.00    -0.234 N 
ATOM      4  H   UNL     1       6.582   6.105  -0.591  0.00  0.00    +0.173 HD
ENDROOT
BRANCH   3   5
ATOM      5  N   UNL     1       4.471   5.600  -0.640  0.00  0.00    -0.230 N 
ATOM      6  C   UNL     1       4.675   4.312  -0.300  0.00  0.00    +0.267 C 
ATOM      7  O   UNL     1       5.806   3.906  -0.104  0.00  0.00    -0.268 OA
ATOM      8  H   UNL     1       3.450   5.967  -0.817  0.00  0.00    +0.173 HD
BRANCH   6   9
ATOM      9  C   UNL     1       3.536   3.400  -0.166  0.00  0.00    +0.076 A 
ATOM     10  C   UNL     1       3.527   2.059   0.170  0.00  0.00    +0.024 A 
ATOM     11  C   UNL     1       2.305   1.408   0.232  0.00  0.00    -0.036 A 
ATOM     12  C   UNL     1       1.196   2.154  -0.048  0.00  0.00    -0.006 A 
ATOM     13  S   UNL     1       1.796   3.731  -0.394  0.00  0.00    -0.088 S 
ATOM     14  C   UNL     1      -0.228   1.690  -0.051  0.00  0.00    +0.043 C 
ATOM     15  C   UNL     1      -0.236   0.154  -0.056  0.00  0.00    +0.009 C 
ATOM     16  C   UNL     1       0.733  -0.347   1.020  0.00  0.00    -0.009 C 
ATOM     17  C   UNL     1       2.175  -0.069   0.593  0.00  0.00    +0.039 C 
ATOM     18  C   UNL     1       0.541  -1.852   1.215  0.00  0.00    +0.008 C 
ENDBRANCH   6   9
ENDBRANCH   3   5
BRANCH   1  19
ATOM     19  C   UNL     1       6.529   8.698  -1.246  0.00  0.00    +0.119 C 
BRANCH  19  20
ATOM     20  C   UNL     1       6.026  10.089  -1.637  0.00  0.00    +0.135 C 
BRANCH  20  27
ATOM     21  C   UNL     1       7.649  11.840  -0.786  0.00  0.00    +0.163 A 
ATOM     22  N   UNL     1       8.669  12.494  -1.265  0.00  0.00    -0.153 NA
ATOM     23  N   UNL     1       8.860  12.090  -2.594  0.00  0.00    -0.254 N 
ATOM     24  H   UNL     1       9.674  12.527  -3.191  0.00  0.00    +0.191 HD
ATOM     25  C   UNL     1       7.917  11.168  -2.876  0.00  0.00    +0.176 A 
ATOM     26  S   UNL     1       7.712  10.356  -4.370  0.00  0.00    -0.011 S 
ATOM     27  N   UNL     1       7.165  11.000  -1.770  0.00  0.00    -0.303 N 
BRANCH  21  32
ATOM     28  C   UNL     1       5.526  12.352   4.539  0.00  0.00    +0.044 C 
ATOM     29  C   UNL     1       6.082  12.218   3.145  0.00  0.00    -0.050 A 
ATOM     30  C   UNL     1       6.849  13.237   2.608  0.00  0.00    +0.004 A 
ATOM     31  C   UNL     1       7.360  13.120   1.332  0.00  0.00    +0.012 A 
ATOM     32  C   UNL     1       7.103  11.971   0.583  0.00  0.00    +0.019 A 
ATOM     33  C   UNL     1       6.325  10.950   1.128  0.00  0.00    +0.012 A 
ATOM     34  C   UNL     1       5.824  11.076   2.407  0.00  0.00    +0.004 A 
ENDBRANCH  21  32
ENDBRANCH  20  27
ENDBRANCH  19  20
ENDBRANCH   1  19
TORSDOF 6
