REMARK  Name = ZINC10110113
REMARK  9 active torsions:
REMARK  status: ('A' for Active; 'I' for Inactive)
REMARK    1  A    between atoms: C_4  and  C_7
REMARK    2  A    between atoms: C_10  and  C_13
REMARK    3  A    between atoms: C_13  and  C_15
REMARK    4  A    between atoms: C_15  and  C_16
REMARK    5  A    between atoms: C_16  and  O_36
REMARK    6  A    between atoms: N_23  and  C_26
REMARK    7  A    between atoms: C_26  and  C_27
REMARK    8  A    between atoms: C_27  and  O_28
REMARK    9  A    between atoms: O_28  and  C_29
REMARK                            x       y       z     vdW  Elec       q    Type
REMARK                         _______ _______ _______ _____ _____    ______ ____
ROOT
ATOM      1  C   UNL     1      -1.400   2.859  -2.961  0.00  0.00    +0.175 C 
ATOM      2  C   UNL     1      -2.220   1.591  -2.902  0.00  0.00    +0.015 A 
ATOM      3  C   UNL     1      -3.243   1.100  -3.683  0.00  0.00    +0.009 A 
ATOM      4  C   UNL     1      -3.817  -0.122  -3.379  0.00  0.00    +0.000 A 
ATOM      5  C   UNL     1      -3.361  -0.846  -2.292  0.00  0.00    +0.002 A 
ATOM      6  C   UNL     1      -2.337  -0.356  -1.509  0.00  0.00    +0.024 A 
ATOM      7  C   UNL     1      -1.750   0.871  -1.811  0.00  0.00    +0.043 A 
ATOM      8  N   UNL     1      -0.721   1.571  -1.179  0.00  0.00    -0.265 N 
ATOM      9  C   UNL     1      -0.452   2.739  -1.787  0.00  0.00    +0.257 C 
ATOM     10  O   UNL     1       0.393   3.544  -1.458  0.00  0.00    -0.272 OA
ENDROOT
BRANCH   1  11
ATOM     11  O   UNL     1      -0.671   2.930  -4.188  0.00  0.00    -0.374 OA
ATOM     12  H   UNL     1      -0.083   3.695  -4.253  0.00  0.00    +0.211 HD
ENDBRANCH   1  11
BRANCH   1  13
ATOM     13  C   UNL     1      -2.298   4.087  -2.801  0.00  0.00    +0.129 C 
BRANCH  13  14
ATOM     14  C   UNL     1      -1.448   5.330  -2.768  0.00  0.00    +0.167 C 
ATOM     15  O   UNL     1      -0.242   5.243  -2.862  0.00  0.00    -0.292 OA
BRANCH  14  19
ATOM     16  C   UNL     1      -3.270   9.134  -2.344  0.00  0.00    -0.018 A 
ATOM     17  C   UNL     1      -1.882   9.034  -2.452  0.00  0.00    +0.009 A 
ATOM     18  C   UNL     1      -1.290   7.805  -2.589  0.00  0.00    +0.012 A 
ATOM     19  C   UNL     1      -2.080   6.649  -2.620  0.00  0.00    +0.018 A 
ATOM     20  C   UNL     1      -3.472   6.752  -2.517  0.00  0.00    +0.012 A 
ATOM     21  C   UNL     1      -4.059   7.983  -2.374  0.00  0.00    +0.009 A 
BRANCH  16  25
ATOM     22  C   UNL     1      -5.098  12.948  -1.919  0.00  0.00    +0.000 A 
ATOM     23  C   UNL     1      -5.881  11.808  -1.949  0.00  0.00    +0.001 A 
ATOM     24  C   UNL     1      -5.294  10.567  -2.087  0.00  0.00    +0.008 A 
ATOM     25  C   UNL     1      -3.908  10.464  -2.196  0.00  0.00    -0.018 A 
ATOM     26  C   UNL     1      -3.123  11.616  -2.159  0.00  0.00    +0.008 A 
ATOM     27  C   UNL     1      -3.722  12.852  -2.027  0.00  0.00    +0.001 A 
ENDBRANCH  16  25
ENDBRANCH  14  19
ENDBRANCH  13  14
ENDBRANCH   1  13
BRANCH   8  28
ATOM     28  C   UNL     1      -0.013   1.086   0.008  0.00  0.00    +0.154 C 
BRANCH  28  29
ATOM     29  C   UNL     1      -0.729   1.579   1.267  0.00  0.00    +0.248 C 
BRANCH  29  30
ATOM     30  O   UNL     1      -2.030   0.991   1.336  0.00  0.00    -0.490 OA
BRANCH  30  31
ATOM     31  C   UNL     1      -2.803   1.328   2.402  0.00  0.00    +0.121 A 
ATOM     32  C   UNL     1      -2.317   2.201   3.364  0.00  0.00    +0.047 A 
ATOM     33  C   UNL     1      -3.106   2.546   4.445  0.00  0.00    +0.023 A 
ATOM     34  C   UNL     1      -4.376   2.012   4.573  0.00  0.00    +0.041 A 
ATOM     35  C   UNL     1      -4.860   1.137   3.617  0.00  0.00    +0.023 A 
ATOM     36  C   UNL     1      -4.076   0.794   2.533  0.00  0.00    +0.047 A 
ATOM     37 CL   UNL     1      -5.364   2.442   5.934  0.00  0.00    -0.084 Cl
ENDBRANCH  30  31
ENDBRANCH  29  30
ENDBRANCH  28  29
ENDBRANCH   8  28
TORSDOF 9
