REMARK  Name = ZINC04997570
REMARK  5 active torsions:
REMARK  status: ('A' for Active; 'I' for Inactive)
REMARK    1  A    between atoms: C_6  and  C_7
REMARK    2  A    between atoms: C_14  and  N_28
REMARK    3  A    between atoms: C_15  and  C_26
REMARK    4  A    between atoms: C_16  and  C_18
REMARK    5  A    between atoms: C_21  and  N_23
REMARK                            x       y       z     vdW  Elec       q    Type
REMARK                         _______ _______ _______ _____ _____    ______ ____
ROOT
ATOM      1  C   UNL     1      -1.272  -0.766   0.011  0.00  0.00    +0.100 A 
ATOM      2  C   UNL     1      -1.507  -1.982  -0.637  0.00  0.00    +0.055 A 
ATOM      3  C   UNL     1      -2.796  -2.353  -0.386  0.00  0.00    +0.223 A 
ATOM      4  N   UNL     1      -3.352  -1.401   0.393  0.00  0.00    -0.246 N 
ATOM      5  H   UNL     1      -4.262  -1.399   0.729  0.00  0.00    +0.192 HD
ATOM      6  N   UNL     1      -2.380  -0.418   0.636  0.00  0.00    -0.171 NA
ATOM      7  O   UNL     1      -3.338  -3.497  -0.873  0.00  0.00    -0.423 OA
ATOM      8  C   UNL     1      -2.497  -4.413  -1.394  0.00  0.00    +0.200 C 
ATOM      9  C   UNL     1      -1.204  -4.161  -1.698  0.00  0.00    +0.099 C 
ATOM     10  C   UNL     1      -0.573  -2.808  -1.483  0.00  0.00    +0.108 C 
ENDROOT
BRANCH   1  16
ATOM     11  C   UNL     1      -0.017   1.389   0.010  0.00  0.00    +0.011 A 
ATOM     12  C   UNL     1       1.170   2.093   0.002  0.00  0.00    +0.020 A 
ATOM     13  C   UNL     1       2.378   1.417  -0.013  0.00  0.00    +0.041 A 
ATOM     14  C   UNL     1       2.402   0.033  -0.022  0.00  0.00    +0.020 A 
ATOM     15  C   UNL     1       1.220  -0.680  -0.014  0.00  0.00    +0.011 A 
ATOM     16  C   UNL     1       0.002  -0.004   0.002  0.00  0.00    +0.003 A 
ATOM     17 CL   UNL     1       3.868   2.308  -0.024  0.00  0.00    -0.084 Cl
ENDBRANCH   1  16
BRANCH  10  18
ATOM     18  C   UNL     1      -0.356  -2.131  -2.812  0.00  0.00    +0.005 A 
ATOM     19  C   UNL     1       0.800  -1.692  -3.367  0.00  0.00    +0.014 A 
ATOM     20  C   UNL     1       0.760  -1.093  -4.612  0.00  0.00    +0.041 A 
ATOM     21  C   UNL     1      -0.433  -0.961  -5.240  0.00  0.00    +0.164 A 
ATOM     22  S   UNL     1      -1.553  -1.704  -4.065  0.00  0.00    -0.068 S 
BRANCH  21  23
ATOM     23  N   UNL     1      -0.731  -0.362  -6.561  0.00  0.00    +0.063 N 
ATOM     24  O   UNL     1       0.164   0.096  -7.232  0.00  0.00    -0.126 OA
ATOM     25  O   UNL     1      -1.869  -0.330  -6.968  0.00  0.00    -0.126 OA
ENDBRANCH  21  23
ENDBRANCH  10  18
BRANCH   8  26
ATOM     26  N   UNL     1      -2.982  -5.676  -1.630  0.00  0.00    -0.328 N 
ATOM     27  H   UNL     1      -3.906  -5.887  -1.422  0.00  0.00    +0.145 HD
ATOM     28  H   UNL     1      -2.402  -6.356  -2.004  0.00  0.00    +0.145 HD
ENDBRANCH   8  26
BRANCH   9  29
ATOM     29  C   UNL     1      -0.406  -5.217  -2.243  0.00  0.00    +0.101 C 
ATOM     30  N   UNL     1       0.228  -6.055  -2.676  0.00  0.00    -0.191 NA
ENDBRANCH   9  29
TORSDOF 5
