REMARK  Name = ZINC49207482
REMARK  5 active torsions:
REMARK  status: ('A' for Active; 'I' for Inactive)
REMARK    1  A    between atoms: C_10  and  N_14
REMARK    2  A    between atoms: C_15  and  C_17
REMARK    3  A    between atoms: N_19  and  C_20
REMARK    4  A    between atoms: C_20  and  C_21
REMARK    5  A    between atoms: C_21  and  C_22
REMARK                            x       y       z     vdW  Elec       q    Type
REMARK                         _______ _______ _______ _____ _____    ______ ____
ROOT
ATOM      1  N   UNL     1       3.624  -5.743  -0.068  0.00  0.00    -0.278 N 
ATOM      2  C   UNL     1       2.932  -6.895   0.035  0.00  0.00    +0.303 C 
ATOM      3  O   UNL     1       1.718  -6.875   0.047  0.00  0.00    -0.265 OA
ATOM      4  H   UNL     1       4.590  -5.763  -0.144  0.00  0.00    +0.155 HD
ENDROOT
BRANCH   1  14
ATOM      5  C   UNL     1      -0.429   1.148  -0.166  0.00  0.00    +0.001 A 
ATOM      6  C   UNL     1      -1.503   0.614  -0.860  0.00  0.00    +0.004 A 
ATOM      7  C   UNL     1      -1.506  -0.713  -1.236  0.00  0.00    +0.047 A 
ATOM      8  C   UNL     1      -0.425  -1.528  -0.922  0.00  0.00    +0.136 A 
ATOM      9  C   UNL     1       0.660  -0.985  -0.220  0.00  0.00    +0.028 A 
ATOM     10  C   UNL     1       0.652   0.354   0.155  0.00  0.00    +0.012 A 
ATOM     11  C   UNL     1       1.620  -2.092  -0.049  0.00  0.00    +0.028 A 
ATOM     12  C   UNL     1       2.870  -2.202   0.552  0.00  0.00    +0.014 A 
ATOM     13  C   UNL     1       3.531  -3.410   0.545  0.00  0.00    +0.024 A 
ATOM     14  C   UNL     1       2.948  -4.520  -0.063  0.00  0.00    +0.037 A 
ATOM     15  C   UNL     1       1.703  -4.419  -0.663  0.00  0.00    +0.070 A 
ATOM     16  C   UNL     1       1.028  -3.206  -0.662  0.00  0.00    +0.138 A 
ATOM     17  O   UNL     1      -0.171  -2.834  -1.162  0.00  0.00    -0.455 OA
ENDBRANCH   1  14
BRANCH   2  18
ATOM     18  C   UNL     1       3.659  -8.196   0.132  0.00  0.00    +0.299 C 
ATOM     19  O   UNL     1       4.872  -8.216   0.120  0.00  0.00    -0.265 OA
ATOM     20  N   UNL     1       2.967  -9.348   0.234  0.00  0.00    -0.307 N 
ATOM     21  H   UNL     1       1.997  -9.332   0.245  0.00  0.00    +0.149 HD
BRANCH  20  22
ATOM     22  C   UNL     1       3.680 -10.624   0.331  0.00  0.00    +0.112 C 
BRANCH  22  23
ATOM     23  C   UNL     1       2.668 -11.767   0.436  0.00  0.00    +0.095 C 
BRANCH  23  24
ATOM     24  C   UNL     1       3.401 -13.080   0.534  0.00  0.00    +0.139 A 
ATOM     25  N   UNL     1       3.770 -13.837  -0.467  0.00  0.00    -0.134 NA
ATOM     26  N   UNL     1       4.375 -14.886  -0.033  0.00  0.00    -0.129 NA
ATOM     27  C   UNL     1       4.424 -14.853   1.289  0.00  0.00    +0.161 A 
ATOM     28  N   UNL     1       3.805 -13.691   1.681  0.00  0.00    -0.286 N 
ATOM     29  C   UNL     1       3.704 -13.374   3.003  0.00  0.00    +0.094 A 
ATOM     30  C   UNL     1       4.213 -14.195   3.946  0.00  0.00    +0.018 A 
ATOM     31  C   UNL     1       4.855 -15.390   3.576  0.00  0.00    +0.005 A 
ATOM     32  C   UNL     1       4.956 -15.723   2.260  0.00  0.00    +0.048 A 
ENDBRANCH  23  24
ENDBRANCH  22  23
ENDBRANCH  20  22
ENDBRANCH   2  18
TORSDOF 5
