REMARK  Name = ZINC02278473
REMARK  5 active torsions:
REMARK  status: ('A' for Active; 'I' for Inactive)
REMARK    1  A    between atoms: C_4  and  C_7
REMARK    2  A    between atoms: C_7  and  C_8
REMARK    3  A    between atoms: C_11  and  C_35
REMARK    4  A    between atoms: C_14  and  C_16
REMARK    5  A    between atoms: C_17  and  C_29
REMARK                            x       y       z     vdW  Elec       q    Type
REMARK                         _______ _______ _______ _____ _____    ______ ____
ROOT
ATOM      1  C   UNL     1      -2.486   2.646  -4.082  0.00  0.00    +0.237 C 
ATOM      2  O   UNL     1      -2.993   2.554  -5.180  0.00  0.00    -0.274 OA
ATOM      3  N   UNL     1      -2.113   3.853  -3.612  0.00  0.00    -0.211 N 
ATOM      4  C   UNL     1      -2.248   5.149  -4.295  0.00  0.00    +0.152 C 
ATOM      5  C   UNL     1      -1.676   6.158  -3.325  0.00  0.00    +0.027 C 
ATOM      6  C   UNL     1      -1.278   5.488  -2.243  0.00  0.00    +0.056 C 
ATOM      7  N   UNL     1      -1.514   4.126  -2.375  0.00  0.00    -0.261 N 
ATOM      8  H   UNL     1      -1.296   3.458  -1.706  0.00  0.00    +0.170 HD
ENDROOT
BRANCH   6   9
ATOM      9  C   UNL     1      -0.660   6.113  -1.057  0.00  0.00    +0.070 A 
ATOM     10  C   UNL     1       0.530   6.829  -1.176  0.00  0.00    +0.005 A 
ATOM     11  C   UNL     1       1.100   7.438   0.035  0.00  0.00    +0.008 A 
ATOM     12  C   UNL     1       2.289   8.171  -0.030  0.00  0.00    +0.030 A 
ATOM     13  C   UNL     1       2.809   8.733   1.114  0.00  0.00    +0.042 A 
ATOM     14  C   UNL     1       2.157   8.575   2.331  0.00  0.00    +0.022 A 
ATOM     15  C   UNL     1       0.985   7.856   2.411  0.00  0.00    +0.028 A 
ATOM     16  C   UNL     1       0.442   7.279   1.266  0.00  0.00    +0.050 A 
ATOM     17  N   UNL     1      -0.733   6.558   1.344  0.00  0.00    -0.322 N 
ATOM     18  H   UNL     1      -1.172   6.460   2.203  0.00  0.00    +0.169 HD
ATOM     19  C   UNL     1      -1.285   5.987   0.259  0.00  0.00    +0.259 A 
ATOM     20  O   UNL     1      -2.324   5.360   0.373  0.00  0.00    -0.267 OA
ATOM     21 CL   UNL     1       4.285   9.643   1.037  0.00  0.00    -0.084 Cl
BRANCH  10  22
ATOM     22  C   UNL     1       1.198   6.978  -2.485  0.00  0.00    -0.016 A 
ATOM     23  C   UNL     1       1.264   8.230  -3.101  0.00  0.00    +0.008 A 
ATOM     24  C   UNL     1       1.889   8.362  -4.323  0.00  0.00    +0.001 A 
ATOM     25  C   UNL     1       2.450   7.258  -4.940  0.00  0.00    +0.000 A 
ATOM     26  C   UNL     1       2.384   6.013  -4.338  0.00  0.00    +0.001 A 
ATOM     27  C   UNL     1       1.766   5.868  -3.113  0.00  0.00    +0.008 A 
ENDBRANCH  10  22
ENDBRANCH   6   9
BRANCH   4  28
ATOM     28  C   UNL     1      -1.459   5.150  -5.579  0.00  0.00    -0.021 A 
ATOM     29  C   UNL     1      -0.240   4.500  -5.642  0.00  0.00    +0.006 A 
ATOM     30  C   UNL     1       0.481   4.497  -6.821  0.00  0.00    +0.000 A 
ATOM     31  C   UNL     1      -0.011   5.152  -7.934  0.00  0.00    +0.000 A 
ATOM     32  C   UNL     1      -1.227   5.806  -7.870  0.00  0.00    +0.000 A 
ATOM     33  C   UNL     1      -1.951   5.805  -6.693  0.00  0.00    +0.006 A 
ENDBRANCH   4  28
BRANCH   1  34
ATOM     34  C   UNL     1      -2.274   1.412  -3.244  0.00  0.00    +0.132 C 
BRANCH  34  38
ATOM     35  C   UNL     1      -3.687  -2.013  -5.369  0.00  0.00    +0.000 A 
ATOM     36  C   UNL     1      -2.375  -1.603  -5.513  0.00  0.00    +0.000 A 
ATOM     37  C   UNL     1      -1.918  -0.495  -4.826  0.00  0.00    +0.004 A 
ATOM     38  C   UNL     1      -2.772   0.204  -3.994  0.00  0.00    -0.039 A 
ATOM     39  C   UNL     1      -4.083  -0.209  -3.846  0.00  0.00    +0.004 A 
ATOM     40  C   UNL     1      -4.542  -1.315  -4.537  0.00  0.00    +0.000 A 
ENDBRANCH  34  38
ENDBRANCH   1  34
TORSDOF 5
