REMARK  Name = ZINC06284599
REMARK  14 active torsions:
REMARK  status: ('A' for Active; 'I' for Inactive)
REMARK    1  A    between atoms: C_1  and  C_2
REMARK    2  A    between atoms: C_2  and  C_3
REMARK    3  A    between atoms: C_7  and  C_32
REMARK    4  A    between atoms: C_8  and  N_9
REMARK    5  A    between atoms: N_9  and  C_10
REMARK    6  A    between atoms: C_10  and  N_12
REMARK    7  A    between atoms: N_12  and  C_13
REMARK    8  A    between atoms: N_12  and  C_23
REMARK    9  A    between atoms: C_13  and  C_14
REMARK   10  A    between atoms: C_17  and  C_20
REMARK   11  A    between atoms: C_20  and  C_21
REMARK   12  A    between atoms: C_20  and  C_22
REMARK   13  A    between atoms: C_23  and  C_25
REMARK   14  A    between atoms: C_23  and  C_26
REMARK                            x       y       z     vdW  Elec       q    Type
REMARK                         _______ _______ _______ _____ _____    ______ ____
ROOT
ATOM      1  N   UNL     1      -2.136  -0.860  -4.389  0.00  0.00    -0.301 N 
ENDROOT
BRANCH   1   2
ATOM      2  C   UNL     1      -2.537  -1.073  -3.120  0.00  0.00    +0.138 C 
ATOM      3  S   UNL     1      -4.016  -1.880  -2.814  0.00  0.00    -0.018 S 
BRANCH   2   4
ATOM      4  N   UNL     1      -1.774  -0.651  -2.093  0.00  0.00    -0.296 N 
ATOM      5  H   UNL     1      -0.982  -0.118  -2.264  0.00  0.00    +0.154 HD
BRANCH   4  11
ATOM      6  C   UNL     1      -2.542   0.010   0.100  0.00  0.00    -0.026 A 
ATOM      7  C   UNL     1      -2.893  -0.321   1.394  0.00  0.00    +0.005 A 
ATOM      8  C   UNL     1      -2.824  -1.635   1.816  0.00  0.00    +0.001 A 
ATOM      9  C   UNL     1      -2.404  -2.624   0.945  0.00  0.00    +0.005 A 
ATOM     10  C   UNL     1      -2.052  -2.300  -0.350  0.00  0.00    -0.029 A 
ATOM     11  C   UNL     1      -2.125  -0.981  -0.779  0.00  0.00    +0.039 A 
ATOM     12  C   UNL     1      -1.594  -3.378  -1.299  0.00  0.00    +0.045 C 
BRANCH   6  14
ATOM     13  C   UNL     1      -3.962   1.690  -1.044  0.00  0.00    +0.009 C 
ATOM     14  C   UNL     1      -2.616   1.443  -0.360  0.00  0.00    +0.033 C 
ENDBRANCH   6  14
ENDBRANCH   4  11
ENDBRANCH   2   4
ENDBRANCH   1   2
BRANCH   1  15
ATOM     15  C   UNL     1      -0.917  -0.092  -4.653  0.00  0.00    +0.103 C 
ATOM     16  C   UNL     1      -0.765   0.122  -6.161  0.00  0.00    +0.033 C 
BRANCH  15  17
ATOM     17  C   UNL     1       0.277  -0.848  -4.130  0.00  0.00    -0.027 A 
ATOM     18  C   UNL     1       0.399  -2.203  -4.377  0.00  0.00    +0.005 A 
ATOM     19  C   UNL     1       1.494  -2.897  -3.897  0.00  0.00    +0.000 A 
ATOM     20  C   UNL     1       2.467  -2.236  -3.171  0.00  0.00    +0.000 A 
ATOM     21  C   UNL     1       2.345  -0.881  -2.925  0.00  0.00    +0.000 A 
ATOM     22  C   UNL     1       1.252  -0.186  -3.408  0.00  0.00    +0.005 A 
ENDBRANCH  15  17
ENDBRANCH   1  15
BRANCH   1  23
ATOM     23  C   UNL     1      -2.920  -1.397  -5.505  0.00  0.00    +0.142 C 
BRANCH  23  24
ATOM     24  C   UNL     1      -3.935  -0.374  -5.944  0.00  0.00    -0.030 A 
ATOM     25  C   UNL     1      -5.136  -0.258  -5.270  0.00  0.00    +0.005 A 
ATOM     26  C   UNL     1      -6.067   0.681  -5.673  0.00  0.00    +0.004 A 
ATOM     27  C   UNL     1      -5.797   1.504  -6.750  0.00  0.00    -0.045 A 
ATOM     28  C   UNL     1      -4.596   1.389  -7.424  0.00  0.00    +0.004 A 
ATOM     29  C   UNL     1      -3.663   0.453  -7.018  0.00  0.00    +0.005 A 
BRANCH  27  30
ATOM     30  C   UNL     1      -6.813   2.527  -7.190  0.00  0.00    +0.013 C 
ATOM     31  C   UNL     1      -6.201   3.926  -7.096  0.00  0.00    +0.012 C 
ATOM     32  C   UNL     1      -7.226   2.246  -8.636  0.00  0.00    +0.012 C 
ENDBRANCH  27  30
ENDBRANCH  23  24
ENDBRANCH   1  23
TORSDOF 9
