REMARK  Name = ZINC09892214
REMARK  10 active torsions:
REMARK  status: ('A' for Active; 'I' for Inactive)
REMARK    1  A    between atoms: C_1  and  C_2
REMARK    2  A    between atoms: C_5  and  C_8
REMARK    3  A    between atoms: C_8  and  C_10
REMARK    4  A    between atoms: C_10  and  O_11
REMARK    5  A    between atoms: O_11  and  C_12
REMARK    6  A    between atoms: C_12  and  C_14
REMARK    7  A    between atoms: C_14  and  C_16
REMARK    8  A    between atoms: C_14  and  N_27
REMARK    9  A    between atoms: C_16  and  C_17
REMARK   10  A    between atoms: C_28  and  C_30
REMARK                            x       y       z     vdW  Elec       q    Type
REMARK                         _______ _______ _______ _____ _____    ______ ____
ROOT
ATOM      1  C   UNL     1      -1.972   7.223  -0.826  0.00  0.00    +0.186 C 
ENDROOT
BRANCH   1   2
ATOM      2  N   UNL     1      -1.960   5.758  -0.842  0.00  0.00    -0.302 N 
ATOM      3  C   UNL     1      -2.750   5.067   0.004  0.00  0.00    +0.220 C 
ATOM      4  O   UNL     1      -3.537   5.655   0.715  0.00  0.00    -0.275 OA
ATOM      5  H   UNL     1      -1.383   5.285  -1.462  0.00  0.00    +0.150 HD
BRANCH   3   6
ATOM      6  C   UNL     1      -2.656   3.564   0.065  0.00  0.00    +0.048 C 
ATOM      7  C   UNL     1      -1.210   3.155   0.353  0.00  0.00    +0.019 C 
ATOM      8  C   UNL     1      -1.115   1.629   0.416  0.00  0.00    -0.009 C 
ATOM      9  C   UNL     1      -2.024   1.107   1.530  0.00  0.00    +0.007 C 
ATOM     10  C   UNL     1      -3.470   1.516   1.243  0.00  0.00    -0.009 C 
ATOM     11  C   UNL     1      -3.565   3.042   1.180  0.00  0.00    +0.019 C 
ATOM     12  C   UNL     1      -3.912   0.922  -0.096  0.00  0.00    +0.007 C 
ATOM     13  C   UNL     1      -3.003   1.445  -1.211  0.00  0.00    -0.009 C 
ATOM     14  C   UNL     1      -1.557   1.035  -0.923  0.00  0.00    +0.007 C 
ATOM     15  C   UNL     1      -3.098   2.970  -1.274  0.00  0.00    +0.019 C 
ENDBRANCH   3   6
ENDBRANCH   1   2
BRANCH   1  16
ATOM     16  C   UNL     1      -3.157   7.723  -1.611  0.00  0.00    +0.328 C 
ATOM     17  O   UNL     1      -3.913   6.938  -2.131  0.00  0.00    -0.249 OA
BRANCH  16  18
ATOM     18  O   UNL     1      -3.372   9.043  -1.733  0.00  0.00    -0.455 OA
BRANCH  18  19
ATOM     19  C   UNL     1      -4.532   9.453  -2.503  0.00  0.00    +0.311 C 
BRANCH  19  20
ATOM     20  C   UNL     1      -4.611  10.958  -2.530  0.00  0.00    +0.200 C 
ATOM     21  O   UNL     1      -3.772  11.619  -1.957  0.00  0.00    -0.288 OA
BRANCH  20  26
ATOM     22  C   UNL     1      -8.888  13.563  -5.353  0.00  0.00    +0.044 C 
ATOM     23  C   UNL     1      -7.766  12.880  -4.613  0.00  0.00    -0.050 A 
ATOM     24  C   UNL     1      -6.811  13.639  -3.959  0.00  0.00    +0.004 A 
ATOM     25  C   UNL     1      -5.782  13.021  -3.280  0.00  0.00    +0.012 A 
ATOM     26  C   UNL     1      -5.706  11.625  -3.253  0.00  0.00    +0.021 A 
ATOM     27  C   UNL     1      -6.672  10.866  -3.921  0.00  0.00    +0.012 A 
ATOM     28  C   UNL     1      -7.698  11.498  -4.591  0.00  0.00    +0.004 A 
ENDBRANCH  20  26
ENDBRANCH  19  20
ENDBRANCH  18  19
ENDBRANCH  16  18
ENDBRANCH   1  16
BRANCH   1  29
ATOM     29  C   UNL     1      -0.682   7.751  -1.456  0.00  0.00    +0.071 C 
BRANCH  29  30
ATOM     30  C   UNL     1       0.493   7.361  -0.596  0.00  0.00    -0.020 A 
ATOM     31  C   UNL     1       1.034   8.088   0.394  0.00  0.00    +0.087 A 
ATOM     32  N   UNL     1       2.084   7.411   0.950  0.00  0.00    -0.360 N 
ATOM     33  H   UNL     1       2.630   7.734   1.684  0.00  0.00    +0.165 HD
ATOM     34  C   UNL     1       2.255   6.204   0.309  0.00  0.00    +0.047 A 
ATOM     35  C   UNL     1       1.265   6.120  -0.687  0.00  0.00    +0.003 A 
ATOM     36  C   UNL     1       1.194   4.991  -1.505  0.00  0.00    +0.010 A 
ATOM     37  C   UNL     1       2.088   3.971  -1.332  0.00  0.00    +0.001 A 
ATOM     38  C   UNL     1       3.066   4.049  -0.351  0.00  0.00    +0.002 A 
ATOM     39  C   UNL     1       3.154   5.154   0.467  0.00  0.00    +0.026 A 
ENDBRANCH  29  30
ENDBRANCH   1  29
TORSDOF 9
