REMARK  Name = ZINC00738004
REMARK  10 active torsions:
REMARK  status: ('A' for Active; 'I' for Inactive)
REMARK    1  A    between atoms: C_1  and  C_2
REMARK    2  A    between atoms: C_2  and  C_3
REMARK    3  A    between atoms: C_2  and  C_4
REMARK    4  A    between atoms: C_4  and  N_5
REMARK    5  A    between atoms: C_6  and  C_8
REMARK    6  A    between atoms: C_8  and  S_9
REMARK    7  A    between atoms: S_9  and  C_10
REMARK    8  A    between atoms: N_20  and  C_23
REMARK    9  A    between atoms: C_23  and  C_24
REMARK   10  A    between atoms: C_25  and  C_26
REMARK                            x       y       z     vdW  Elec       q    Type
REMARK                         _______ _______ _______ _____ _____    ______ ____
ROOT
ATOM      1  C   UNL     1       0.174   0.961   2.735  0.00  0.00    +0.192 A 
ATOM      2  N   UNL     1      -0.113   1.166   4.013  0.00  0.00    -0.207 NA
ATOM      3  C   UNL     1       0.644   0.641   4.970  0.00  0.00    +0.127 A 
ATOM      4  C   UNL     1       1.756  -0.123   4.613  0.00  0.00    +0.083 A 
ATOM      5  C   UNL     1       2.024  -0.309   3.269  0.00  0.00    +0.135 A 
ATOM      6  N   UNL     1       1.223   0.240   2.366  0.00  0.00    -0.210 NA
ATOM      7 CL   UNL     1       3.395  -1.250   2.769  0.00  0.00    -0.062 Cl
ATOM      8  N   UNL     1       0.338   0.854   6.305  0.00  0.00    -0.319 N 
ATOM      9  C   UNL     1       0.181  -0.421   7.019  0.00  0.00    +0.088 C 
ATOM     10  C   UNL     1      -0.078  -0.144   8.501  0.00  0.00    -0.059 C 
ATOM     11  N   UNL     1      -1.284   0.685   8.639  0.00  0.00    +0.384 N 
ATOM     12  C   UNL     1      -1.127   1.960   7.925  0.00  0.00    -0.059 C 
ATOM     13  C   UNL     1      -0.869   1.682   6.442  0.00  0.00    +0.088 C 
ATOM     14  H   UNL     1      -2.124   0.140   8.183  0.00  0.00    -0.081 HD
ENDROOT
BRANCH   1  15
ATOM     15  S   UNL     1      -0.860   1.669   1.497  0.00  0.00    -0.077 S 
BRANCH  15  16
ATOM     16  C   UNL     1      -0.013   1.086   0.008  0.00  0.00    +0.173 C 
BRANCH  16  18
ATOM     17  N   UNL     1      -0.288   1.272  -2.443  0.00  0.00    -0.314 N 
ATOM     18  C   UNL     1      -0.742   1.585  -1.213  0.00  0.00    +0.223 C 
ATOM     19  O   UNL     1      -1.736   2.268  -1.088  0.00  0.00    -0.275 OA
ATOM     20  H   UNL     1       0.614   0.653  -2.556  0.00  0.00    +0.149 HD
BRANCH  17  21
ATOM     21  C   UNL     1      -0.997   1.758  -3.630  0.00  0.00    +0.107 C 
BRANCH  21  23
ATOM     22  C   UNL     1      -0.369  -0.262  -4.960  0.00  0.00    +0.009 C 
ATOM     23  C   UNL     1      -0.281   1.264  -4.889  0.00  0.00    -0.000 C 
ATOM     24  C   UNL     1      -0.946   1.872  -6.125  0.00  0.00    +0.009 C 
ENDBRANCH  21  23
ENDBRANCH  17  21
ENDBRANCH  16  18
ENDBRANCH  15  16
ENDBRANCH   1  15
BRANCH  11  25
ATOM     25  C   UNL     1      -1.609   0.910  10.054  0.00  0.00    -0.051 C 
BRANCH  25  26
ATOM     26  C   UNL     1      -1.520  -0.394  10.803  0.00  0.00    -0.045 C 
ATOM     27  C   UNL     1      -0.742  -0.493  11.872  0.00  0.00    +0.002 C 
BRANCH  27  28
ATOM     28  C   UNL     1      -0.655  -1.772  12.607  0.00  0.00    -0.025 A 
ATOM     29  C   UNL     1      -1.395  -2.876  12.183  0.00  0.00    +0.008 A 
ATOM     30  C   UNL     1      -1.304  -4.069  12.870  0.00  0.00    +0.001 A 
ATOM     31  C   UNL     1      -0.492  -4.168  13.985  0.00  0.00    +0.000 A 
ATOM     32  C   UNL     1       0.240  -3.076  14.415  0.00  0.00    +0.001 A 
ATOM     33  C   UNL     1       0.163  -1.879  13.733  0.00  0.00    +0.008 A 
ENDBRANCH  27  28
ENDBRANCH  25  26
ENDBRANCH  11  25
TORSDOF 8
