REMARK  Name = ZINC13637458
REMARK  7 active torsions:
REMARK  status: ('A' for Active; 'I' for Inactive)
REMARK    1  A    between atoms: C_1  and  C_2
REMARK    2  A    between atoms: C_2  and  C_3
REMARK    3  A    between atoms: C_2  and  C_4
REMARK    4  A    between atoms: C_2  and  N_5
REMARK    5  A    between atoms: C_6  and  C_8
REMARK    6  A    between atoms: C_15  and  C_24
REMARK    7  A    between atoms: C_27  and  O_30
REMARK                            x       y       z     vdW  Elec       q    Type
REMARK                         _______ _______ _______ _____ _____    ______ ____
ROOT
ATOM      1  C   UNL     1      -1.494   2.690  -2.042  0.00  0.00    +0.058 A 
ATOM      2  C   UNL     1      -2.737   2.519  -1.432  0.00  0.00    +0.015 A 
ATOM      3  C   UNL     1      -2.830   1.781  -0.272  0.00  0.00    +0.001 A 
ATOM      4  C   UNL     1      -1.699   1.213   0.284  0.00  0.00    +0.006 A 
ATOM      5  C   UNL     1      -0.454   1.371  -0.307  0.00  0.00    -0.019 A 
ATOM      6  C   UNL     1      -0.344   2.111  -1.473  0.00  0.00    +0.044 A 
ATOM      7  N   UNL     1       0.870   2.310  -2.112  0.00  0.00    -0.336 N 
ATOM      8  C   UNL     1       1.829   1.241  -1.830  0.00  0.00    +0.105 C 
ATOM      9  C   UNL     1       2.051   1.144  -0.319  0.00  0.00    +0.029 C 
ATOM     10  C   UNL     1       0.727   0.724   0.354  0.00  0.00    +0.049 C 
ATOM     11  C   UNL     1       0.682  -0.776   0.174  0.00  0.00    -0.023 C 
ATOM     12  C   UNL     1       1.883  -1.247  -0.050  0.00  0.00    -0.030 C 
ATOM     13  C   UNL     1       2.904  -0.126  -0.044  0.00  0.00    +0.033 C 
ATOM     14  H   UNL     1       0.740   2.426  -3.106  0.00  0.00    +0.147 HD
ENDROOT
BRANCH   8  15
ATOM     15  C   UNL     1       1.288  -0.068  -2.343  0.00  0.00    -0.027 A 
ATOM     16  C   UNL     1       2.149  -1.121  -2.589  0.00  0.00    +0.009 A 
ATOM     17  C   UNL     1       1.655  -2.325  -3.054  0.00  0.00    +0.046 A 
ATOM     18  C   UNL     1       0.294  -2.472  -3.286  0.00  0.00    +0.117 A 
ATOM     19  C   UNL     1      -0.567  -1.412  -3.043  0.00  0.00    +0.046 A 
ATOM     20  C   UNL     1      -0.068  -0.212  -2.573  0.00  0.00    +0.009 A 
BRANCH  18  21
ATOM     21  O   UNL     1      -0.193  -3.653  -3.748  0.00  0.00    -0.507 OA
ATOM     22  H   UNL     1      -0.224  -3.715  -4.713  0.00  0.00    +0.292 HD
ENDBRANCH  18  21
ENDBRANCH   8  15
BRANCH   1  24
ATOM     23  N   UNL     1      -2.498   3.920  -3.902  0.00  0.00    -0.307 N 
ATOM     24  C   UNL     1      -1.385   3.478  -3.284  0.00  0.00    +0.246 C 
ATOM     25  O   UNL     1      -0.290   3.730  -3.750  0.00  0.00    -0.270 OA
ATOM     26  H   UNL     1      -3.372   3.719  -3.530  0.00  0.00    +0.150 HD
BRANCH  23  28
ATOM     27  C   UNL     1      -1.677   3.873  -6.205  0.00  0.00    +0.031 C 
ATOM     28  C   UNL     1      -2.390   4.703  -5.135  0.00  0.00    +0.026 C 
ATOM     29  C   UNL     1      -3.790   5.076  -5.627  0.00  0.00    +0.031 C 
ATOM     30  C   UNL     1      -1.589   5.978  -4.861  0.00  0.00    +0.031 C 
ENDBRANCH  23  28
ENDBRANCH   1  24
TORSDOF 4
