REMARK  Name = ZINC13500150
REMARK  12 active torsions:
REMARK  status: ('A' for Active; 'I' for Inactive)
REMARK    1  A    between atoms: C_1  and  C_2
REMARK    2  A    between atoms: C_2  and  C_3
REMARK    3  A    between atoms: C_3  and  C_4
REMARK    4  A    between atoms: C_4  and  C_6
REMARK    5  A    between atoms: C_4  and  N_72
REMARK    6  A    between atoms: N_10  and  C_11
REMARK    7  A    between atoms: C_11  and  C_12
REMARK    8  A    between atoms: C_12  and  C_13
REMARK    9  A    between atoms: C_19  and  C_20
REMARK   10  A    between atoms: C_19  and  N_72
REMARK   11  A    between atoms: C_24  and  C_32
REMARK   12  A    between atoms: C_33  and  N_72
REMARK                            x       y       z     vdW  Elec       q    Type
REMARK                         _______ _______ _______ _____ _____    ______ ____
ROOT
ATOM      1  N   UNL     1      -0.546   2.009   1.330  0.00  0.00    +0.391 N 
ATOM      2  H   UNL     1      -1.443   1.528   1.199  0.00  0.00    -0.080 HD
ENDROOT
BRANCH   1   3
ATOM      3  C   UNL     1      -0.802   3.442   1.588  0.00  0.00    -0.067 C 
ATOM      4  C   UNL     1       0.512   4.249   1.593  0.00  0.00    -0.015 C 
ATOM      5  C   UNL     1       0.303   5.308   2.705  0.00  0.00    -0.002 C 
ATOM      6  C   UNL     1      -0.475   4.518   3.788  0.00  0.00    -0.002 C 
ATOM      7  C   UNL     1      -1.430   3.613   2.983  0.00  0.00    -0.015 C 
ENDBRANCH   1   3
BRANCH   1   8
ATOM      8  C   UNL     1       0.266   1.854   0.105  0.00  0.00    +0.003 C 
BRANCH   8   9
ATOM      9  C   UNL     1      -0.158   2.886  -0.908  0.00  0.00    +0.138 A 
ATOM     10  N   UNL     1      -1.386   3.223  -1.215  0.00  0.00    -0.115 NA
ATOM     11  N   UNL     1      -1.334   4.138  -2.121  0.00  0.00    -0.023 NA
ATOM     12  N   UNL     1      -0.103   4.392  -2.401  0.00  0.00    -0.044 NA
ATOM     13  N   UNL     1       0.653   3.645  -1.670  0.00  0.00    -0.231 N 
BRANCH  13  14
ATOM     14  C   UNL     1       2.118   3.623  -1.671  0.00  0.00    +0.152 C 
BRANCH  14  15
ATOM     15  C   UNL     1       2.612   2.602  -2.698  0.00  0.00    +0.058 C 
BRANCH  15  16
ATOM     16  C   UNL     1       4.118   2.579  -2.699  0.00  0.00    -0.046 A 
ATOM     17  C   UNL     1       4.821   3.417  -3.545  0.00  0.00    +0.004 A 
ATOM     18  C   UNL     1       6.204   3.400  -3.542  0.00  0.00    +0.000 A 
ATOM     19  C   UNL     1       6.883   2.538  -2.701  0.00  0.00    +0.000 A 
ATOM     20  C   UNL     1       6.180   1.697  -1.860  0.00  0.00    +0.000 A 
ATOM     21  C   UNL     1       4.798   1.718  -1.858  0.00  0.00    +0.004 A 
ENDBRANCH  15  16
ENDBRANCH  14  15
ENDBRANCH  13  14
ENDBRANCH   8   9
BRANCH   8  22
ATOM     22  C   UNL     1       0.030   0.454  -0.464  0.00  0.00    -0.008 C 
BRANCH  22  24
ATOM     23  C   UNL     1      -1.696  -1.108  -1.373  0.00  0.00    +0.004 C 
ATOM     24  C   UNL     1      -1.424   0.330  -0.926  0.00  0.00    -0.005 C 
ENDBRANCH  22  24
ENDBRANCH   8  22
ENDBRANCH   1   8
BRANCH   1  25
ATOM     25  C   UNL     1       0.158   1.407   2.482  0.00  0.00    -0.036 C 
BRANCH  25  26
ATOM     26  C   UNL     1       1.623   1.760   2.448  0.00  0.00    +0.001 A 
ATOM     27  C   UNL     1       2.095   2.762   3.230  0.00  0.00    +0.017 A 
ATOM     28  C   UNL     1       3.524   3.076   3.178  0.00  0.00    -0.001 A 
ATOM     29  C   UNL     1       4.070   4.095   3.966  0.00  0.00    +0.013 A 
ATOM     30  C   UNL     1       5.407   4.365   3.891  0.00  0.00    -0.050 A 
ATOM     31  C   UNL     1       6.228   3.639   3.040  0.00  0.00    +0.005 A 
ATOM     32  C   UNL     1       5.712   2.632   2.254  0.00  0.00    +0.026 A 
ATOM     33  C   UNL     1       4.353   2.337   2.314  0.00  0.00    +0.049 A 
ATOM     34  N   UNL     1       3.810   1.334   1.540  0.00  0.00    -0.322 N 
ATOM     35  H   UNL     1       4.384   0.826   0.945  0.00  0.00    +0.169 HD
ATOM     36  C   UNL     1       2.498   1.049   1.599  0.00  0.00    +0.251 A 
ATOM     37  O   UNL     1       2.052   0.155   0.900  0.00  0.00    -0.268 OA
ATOM     38  C   UNL     1       5.995   5.463   4.740  0.00  0.00    +0.044 C 
ENDBRANCH  25  26
ENDBRANCH   1  25
TORSDOF 10
