REMARK  Name = ZINC40757727
REMARK  4 active torsions:
REMARK  status: ('A' for Active; 'I' for Inactive)
REMARK    1  A    between atoms: C_1  and  N_2
REMARK    2  A    between atoms: N_2  and  C_3
REMARK    3  A    between atoms: C_10  and  N_25
REMARK    4  A    between atoms: C_11  and  N_15
REMARK                            x       y       z     vdW  Elec       q    Type
REMARK                         _______ _______ _______ _____ _____    ______ ____
ROOT
ATOM      1  C   UNL     1       1.267   0.381   0.639  0.00  0.00    +0.137 C 
ATOM      2  N   UNL     1       0.004   0.005  -0.001  0.00  0.00    -0.287 N 
ATOM      3  C   UNL     1       0.012  -0.596  -1.254  0.00  0.00    +0.151 A 
ATOM      4  C   UNL     1       0.059   0.182  -2.413  0.00  0.00    +0.104 A 
ATOM      5  C   UNL     1       0.066  -0.473  -3.646  0.00  0.00    +0.129 A 
ATOM      6  N   UNL     1       0.026  -1.803  -3.670  0.00  0.00    -0.332 N 
ATOM      7  C   UNL     1      -0.019  -2.500  -2.553  0.00  0.00    +0.200 A 
ATOM      8  N   UNL     1      -0.021  -1.922  -1.369  0.00  0.00    -0.220 NA
ATOM      9  H   UNL     1       0.029  -2.266  -4.523  0.00  0.00    +0.168 HD
ENDROOT
BRANCH   5  10
ATOM     10  N   UNL     1       0.112   0.254  -4.831  0.00  0.00    -0.285 N 
ATOM     11  C   UNL     1       1.394   0.507  -5.502  0.00  0.00    +0.113 C 
ATOM     12  C   UNL     1       1.417   1.982  -5.927  0.00  0.00    +0.024 C 
ATOM     13  C   UNL     1       0.301   2.219  -6.944  0.00  0.00    +0.038 C 
ATOM     14  C   UNL     1      -1.011   1.701  -6.417  0.00  0.00    -0.026 A 
ATOM     15  C   UNL     1      -1.063   0.751  -5.407  0.00  0.00    +0.038 A 
ATOM     16  C   UNL     1      -2.291   0.285  -4.951  0.00  0.00    +0.024 A 
ATOM     17  C   UNL     1      -3.461   0.765  -5.504  0.00  0.00    +0.002 A 
ATOM     18  C   UNL     1      -3.410   1.709  -6.512  0.00  0.00    +0.000 A 
ATOM     19  C   UNL     1      -2.189   2.183  -6.963  0.00  0.00    +0.005 A 
ENDBRANCH   5  10
BRANCH   2  20
ATOM     20  C   UNL     1      -1.208   0.250   0.650  0.00  0.00    +0.035 A 
ATOM     21  C   UNL     1      -2.399  -0.202   0.095  0.00  0.00    +0.023 A 
ATOM     22  C   UNL     1      -3.596   0.041   0.741  0.00  0.00    +0.002 A 
ATOM     23  C   UNL     1      -3.609   0.734   1.937  0.00  0.00    +0.000 A 
ATOM     24  C   UNL     1      -2.426   1.186   2.492  0.00  0.00    +0.002 A 
ATOM     25  C   UNL     1      -1.225   0.941   1.855  0.00  0.00    +0.023 A 
ENDBRANCH   2  20
BRANCH   4  26
ATOM     26  N   UNL     1       0.100   1.583  -2.340  0.00  0.00    -0.353 N 
ATOM     27  H   UNL     1       0.022   2.026  -1.481  0.00  0.00    +0.143 HD
ATOM     28  H   UNL     1       0.206   2.108  -3.149  0.00  0.00    +0.143 HD
ENDBRANCH   4  26
TORSDOF 3
