REMARK  Name = ZINC39665848
REMARK  10 active torsions:
REMARK  status: ('A' for Active; 'I' for Inactive)
REMARK    1  A    between atoms: C_1  and  C_2
REMARK    2  A    between atoms: C_6  and  C_7
REMARK    3  A    between atoms: C_11  and  C_20
REMARK    4  A    between atoms: N_22  and  C_23
REMARK    5  A    between atoms: C_23  and  C_24
REMARK    6  A    between atoms: C_24  and  C_26
REMARK    7  A    between atoms: C_24  and  O_27
REMARK    8  A    between atoms: O_27  and  C_28
REMARK    9  A    between atoms: C_31  and  O_34
REMARK   10  A    between atoms: O_34  and  C_35
REMARK                            x       y       z     vdW  Elec       q    Type
REMARK                         _______ _______ _______ _____ _____    ______ ____
ROOT
ATOM      1  C   UNL     1      -0.094  -0.504   2.247  0.00  0.00    +0.254 C 
ATOM      2  O   UNL     1      -0.022   0.696   2.434  0.00  0.00    -0.269 OA
ATOM      3  N   UNL     1      -0.157  -1.347   3.297  0.00  0.00    -0.296 N 
ATOM      4  C   UNL     1      -0.125  -2.828   3.277  0.00  0.00    +0.121 C 
ATOM      5  C   UNL     1       0.740  -3.217   4.496  0.00  0.00    +0.100 C 
ATOM      6  C   UNL     1       0.638  -2.015   5.450  0.00  0.00    -0.004 C 
ATOM      7  C   UNL     1      -0.266  -1.000   4.735  0.00  0.00    +0.115 C 
ATOM      8  C   UNL     1       2.018  -1.409   5.685  0.00  0.00    -0.010 C 
ATOM      9  C   UNL     1       1.898  -0.251   6.681  0.00  0.00    -0.082 C 
ATOM     10  N   UNL     1       1.337  -0.745   7.944  0.00  0.00    +0.379 N 
ATOM     11  C   UNL     1      -0.027  -1.242   7.725  0.00  0.00    -0.082 C 
ATOM     12  C   UNL     1       0.011  -2.442   6.774  0.00  0.00    -0.010 C 
ATOM     13  H   UNL     1       1.913  -1.494   8.296  0.00  0.00    -0.086 HD
ATOM     14  H   UNL     1       1.315   0.005   8.617  0.00  0.00    -0.086 HD
ENDROOT
BRANCH   1  20
ATOM     15  C   UNL     1      -0.153   1.159  -0.386  0.00  0.00    +0.045 C 
ATOM     16  C   UNL     1      -0.139  -0.346  -0.323  0.00  0.00    -0.031 A 
ATOM     17  C   UNL     1      -0.145  -1.125  -1.455  0.00  0.00    +0.011 A 
ATOM     18  C   UNL     1      -0.131  -2.475  -1.327  0.00  0.00    +0.046 A 
ATOM     19  S   UNL     1      -0.108  -2.731   0.333  0.00  0.00    -0.092 S 
ATOM     20  C   UNL     1      -0.112  -1.034   0.881  0.00  0.00    +0.077 A 
ENDBRANCH   1  20
BRANCH   5  21
ATOM     21  C   UNL     1       0.193  -4.458   5.153  0.00  0.00    +0.218 C 
ATOM     22  O   UNL     1      -0.981  -4.739   5.036  0.00  0.00    -0.275 OA
ATOM     23  N   UNL     1       1.009  -5.256   5.870  0.00  0.00    -0.312 N 
ATOM     24  H   UNL     1       1.948  -5.032   5.964  0.00  0.00    +0.149 HD
BRANCH  23  25
ATOM     25  C   UNL     1       0.477  -6.463   6.508  0.00  0.00    +0.148 C 
BRANCH  25  26
ATOM     26  C   UNL     1       1.602  -7.184   7.254  0.00  0.00    +0.187 C 
ATOM     27  C   UNL     1       1.047  -8.444   7.921  0.00  0.00    +0.053 C 
BRANCH  26  28
ATOM     28  O   UNL     1       2.630  -7.547   6.330  0.00  0.00    -0.488 OA
BRANCH  28  29
ATOM     29  C   UNL     1       3.908  -7.539   6.794  0.00  0.00    +0.121 A 
ATOM     30  C   UNL     1       4.965  -7.747   5.920  0.00  0.00    +0.049 A 
ATOM     31  C   UNL     1       6.263  -7.739   6.391  0.00  0.00    +0.049 A 
ATOM     32  C   UNL     1       6.510  -7.524   7.739  0.00  0.00    +0.120 A 
ATOM     33  C   UNL     1       5.454  -7.315   8.613  0.00  0.00    +0.049 A 
ATOM     34  C   UNL     1       4.156  -7.319   8.141  0.00  0.00    +0.049 A 
BRANCH  32  35
ATOM     35  O   UNL     1       7.788  -7.517   8.203  0.00  0.00    -0.495 OA
ATOM     36  C   UNL     1       7.969  -7.289   9.602  0.00  0.00    +0.277 C 
ENDBRANCH  32  35
ENDBRANCH  28  29
ENDBRANCH  26  28
ENDBRANCH  25  26
ENDBRANCH  23  25
ENDBRANCH   5  21
TORSDOF 7
