REMARK  Name = ZINC58853778
REMARK  8 active torsions:
REMARK  status: ('A' for Active; 'I' for Inactive)
REMARK    1  A    between atoms: C_1  and  C_2
REMARK    2  A    between atoms: C_4  and  C_16
REMARK    3  A    between atoms: C_5  and  C_15
REMARK    4  A    between atoms: N_6  and  C_7
REMARK    5  A    between atoms: N_17  and  N_18
REMARK    6  A    between atoms: C_19  and  C_21
REMARK    7  A    between atoms: C_21  and  S_22
REMARK    8  A    between atoms: S_22  and  C_23
REMARK                            x       y       z     vdW  Elec       q    Type
REMARK                         _______ _______ _______ _____ _____    ______ ____
ROOT
ATOM      1  N   UNL     1       0.074  -5.710  -1.697  0.00  0.00    -0.206 N 
ATOM      2  C   UNL     1       0.093  -6.927  -1.117  0.00  0.00    +0.242 C 
ATOM      3  O   UNL     1       0.100  -7.021   0.093  0.00  0.00    -0.273 OA
ATOM      4  H   UNL     1       0.068  -5.635  -2.664  0.00  0.00    +0.177 HD
ENDROOT
BRANCH   1   6
ATOM      5  C   UNL     1       0.043  -3.384  -1.463  0.00  0.00    +0.140 C 
ATOM      6  N   UNL     1       0.061  -4.556  -0.904  0.00  0.00    -0.188 NA
BRANCH   5  10
ATOM      7  C   UNL     1      -0.018   1.503   0.010  0.00  0.00    +0.064 C 
ATOM      8  C   UNL     1       0.002  -0.004   0.002  0.00  0.00    +0.022 A 
ATOM      9  C   UNL     1       0.008  -0.781  -1.097  0.00  0.00    +0.032 A 
ATOM     10  C   UNL     1       0.030  -2.170  -0.628  0.00  0.00    +0.016 A 
ATOM     11  C   UNL     1       0.035  -2.113   0.736  0.00  0.00    +0.030 A 
ATOM     12  N   UNL     1       0.024  -0.804   1.109  0.00  0.00    -0.317 N 
ATOM     13  C   UNL     1       0.056  -3.296   1.669  0.00  0.00    +0.064 C 
BRANCH  12  14
ATOM     14  C   UNL     1       0.029  -0.345   2.433  0.00  0.00    +0.049 A 
ATOM     15  C   UNL     1       1.132  -0.577   3.244  0.00  0.00    +0.046 A 
ATOM     16  C   UNL     1       1.135  -0.122   4.550  0.00  0.00    +0.044 A 
ATOM     17  C   UNL     1       0.041   0.562   5.048  0.00  0.00    +0.040 A 
ATOM     18  C   UNL     1      -1.059   0.794   4.242  0.00  0.00    +0.044 A 
ATOM     19  C   UNL     1      -1.065   0.347   2.933  0.00  0.00    +0.046 A 
ATOM     20 CL   UNL     1      -2.430   1.653   4.871  0.00  0.00    -0.083 Cl
ATOM     21 CL   UNL     1       2.514  -0.412   5.565  0.00  0.00    -0.083 Cl
ENDBRANCH  12  14
ENDBRANCH   5  10
ENDBRANCH   1   6
BRANCH   2  22
ATOM     22  C   UNL     1       0.106  -8.169  -1.970  0.00  0.00    +0.167 C 
BRANCH  22  23
ATOM     23  S   UNL     1       0.131  -9.635  -0.903  0.00  0.00    -0.139 S 
BRANCH  23  24
ATOM     24  C   UNL     1       0.145 -11.026  -2.068  0.00  0.00    +0.108 C 
ATOM     25  C   UNL     1      -1.174 -11.107  -2.796  0.00  0.00    -0.022 A 
ATOM     26  C   UNL     1      -1.829 -10.223  -3.627  0.00  0.00    +0.005 A 
ATOM     27  C   UNL     1      -3.056 -10.561  -4.170  0.00  0.00    +0.000 A 
ATOM     28  C   UNL     1      -3.628 -11.787  -3.880  0.00  0.00    +0.001 A 
ATOM     29  C   UNL     1      -2.980 -12.677  -3.049  0.00  0.00    +0.009 A 
ATOM     30  C   UNL     1      -1.742 -12.342  -2.498  0.00  0.00    -0.013 A 
ATOM     31  C   UNL     1      -0.841 -13.095  -1.590  0.00  0.00    -0.013 A 
ATOM     32  C   UNL     1       0.290 -12.329  -1.320  0.00  0.00    -0.022 A 
ATOM     33  C   UNL     1       1.280 -12.817  -0.494  0.00  0.00    +0.005 A 
ATOM     34  C   UNL     1       1.153 -14.073   0.071  0.00  0.00    +0.000 A 
ATOM     35  C   UNL     1       0.033 -14.841  -0.190  0.00  0.00    +0.001 A 
ATOM     36  C   UNL     1      -0.962 -14.361  -1.016  0.00  0.00    +0.009 A 
ENDBRANCH  23  24
ENDBRANCH  22  23
ENDBRANCH   2  22
TORSDOF 6
