REMARK  Name = ZINC35843675
REMARK  13 active torsions:
REMARK  status: ('A' for Active; 'I' for Inactive)
REMARK    1  A    between atoms: C_1  and  C_2
REMARK    2  A    between atoms: C_5  and  C_8
REMARK    3  A    between atoms: C_8  and  N_9
REMARK    4  A    between atoms: N_9  and  C_10
REMARK    5  A    between atoms: N_9  and  C_35
REMARK    6  A    between atoms: C_10  and  C_11
REMARK    7  A    between atoms: N_13  and  C_14
REMARK    8  A    between atoms: N_13  and  C_26
REMARK    9  A    between atoms: C_14  and  C_15
REMARK   10  A    between atoms: C_15  and  C_16
REMARK   11  A    between atoms: C_26  and  C_27
REMARK   12  A    between atoms: C_35  and  C_36
REMARK   13  A    between atoms: C_35  and  C_37
REMARK                            x       y       z     vdW  Elec       q    Type
REMARK                         _______ _______ _______ _____ _____    ______ ____
ROOT
ATOM      1  C   UNL     1       2.843  -4.367  -0.357  0.00  0.00    +0.199 C 
ATOM      2  O   UNL     1       3.772  -3.638  -0.081  0.00  0.00    -0.278 OA
ATOM      3  N   UNL     1       3.049  -5.688  -0.522  0.00  0.00    -0.298 N 
ENDROOT
BRANCH   1   4
ATOM      4  C   UNL     1       1.458  -3.794  -0.517  0.00  0.00    +0.020 C 
BRANCH   4   5
ATOM      5  N   UNL     1       1.528  -2.327  -0.483  0.00  0.00    +0.390 N 
ATOM      6  H   UNL     1       2.193  -2.038   0.218  0.00  0.00    -0.080 HD
BRANCH   5   7
ATOM      7  C   UNL     1       1.953  -1.827  -1.798  0.00  0.00    -0.074 C 
ATOM      8  C   UNL     1       3.333  -2.394  -2.136  0.00  0.00    -0.013 C 
ATOM      9  C   UNL     1       0.946  -2.268  -2.861  0.00  0.00    -0.013 C 
ENDBRANCH   5   7
BRANCH   5  10
ATOM     10  C   UNL     1       0.204  -1.781  -0.157  0.00  0.00    -0.042 C 
BRANCH  10  15
ATOM     11  C   UNL     1       0.607   3.933   0.605  0.00  0.00    +0.044 C 
ATOM     12  C   UNL     1       0.502   2.443   0.406  0.00  0.00    -0.050 A 
ATOM     13  C   UNL     1       0.231   1.930  -0.849  0.00  0.00    +0.003 A 
ATOM     14  C   UNL     1       0.135   0.563  -1.031  0.00  0.00    +0.002 A 
ATOM     15  C   UNL     1       0.310  -0.291   0.042  0.00  0.00    -0.064 A 
ATOM     16  C   UNL     1       0.581   0.222   1.296  0.00  0.00    +0.002 A 
ATOM     17  C   UNL     1       0.681   1.588   1.478  0.00  0.00    +0.003 A 
ENDBRANCH  10  15
ENDBRANCH   5  10
ENDBRANCH   4   5
ENDBRANCH   1   4
BRANCH   3  18
ATOM     18  C   UNL     1       4.369  -6.264  -0.250  0.00  0.00    +0.113 C 
BRANCH  18  19
ATOM     19  C   UNL     1       4.444  -6.695   1.216  0.00  0.00    +0.056 C 
BRANCH  19  20
ATOM     20  C   UNL     1       5.802  -7.287   1.496  0.00  0.00    -0.021 A 
ATOM     21  C   UNL     1       6.128  -8.588   1.461  0.00  0.00    +0.087 A 
ATOM     22  N   UNL     1       7.452  -8.746   1.771  0.00  0.00    -0.360 N 
ATOM     23  H   UNL     1       7.917  -9.596   1.810  0.00  0.00    +0.165 HD
ATOM     24  C   UNL     1       8.024  -7.519   2.019  0.00  0.00    +0.047 A 
ATOM     25  C   UNL     1       7.017  -6.550   1.852  0.00  0.00    +0.003 A 
ATOM     26  C   UNL     1       7.313  -5.198   2.036  0.00  0.00    +0.010 A 
ATOM     27  C   UNL     1       8.583  -4.822   2.376  0.00  0.00    +0.001 A 
ATOM     28  C   UNL     1       9.580  -5.774   2.538  0.00  0.00    +0.002 A 
ATOM     29  C   UNL     1       9.307  -7.114   2.370  0.00  0.00    +0.026 A 
ENDBRANCH  19  20
ENDBRANCH  18  19
ENDBRANCH   3  18
BRANCH   3  30
ATOM     30  C   UNL     1       1.953  -6.550  -0.974  0.00  0.00    +0.142 C 
BRANCH  30  31
ATOM     31  C   UNL     1       2.045  -6.739  -2.466  0.00  0.00    -0.029 A 
ATOM     32  C   UNL     1       1.329  -5.913  -3.312  0.00  0.00    +0.007 A 
ATOM     33  C   UNL     1       1.412  -6.086  -4.681  0.00  0.00    +0.022 A 
ATOM     34  C   UNL     1       2.212  -7.085  -5.205  0.00  0.00    +0.059 A 
ATOM     35  C   UNL     1       2.930  -7.912  -4.357  0.00  0.00    +0.060 A 
ATOM     36  C   UNL     1       2.850  -7.734  -2.987  0.00  0.00    +0.026 A 
ATOM     37 CL   UNL     1       3.935  -9.166  -5.013  0.00  0.00    -0.082 Cl
ATOM     38 CL   UNL     1       2.316  -7.303  -6.924  0.00  0.00    -0.082 Cl
ENDBRANCH  30  31
ENDBRANCH   3  30
TORSDOF 10
