REMARK  Name = ZINC00818731
REMARK  6 active torsions:
REMARK  status: ('A' for Active; 'I' for Inactive)
REMARK    1  A    between atoms: C_1  and  C_2
REMARK    2  A    between atoms: C_9  and  N_31
REMARK    3  A    between atoms: C_10  and  C_29
REMARK    4  A    between atoms: C_11  and  C_13
REMARK    5  A    between atoms: N_15  and  C_22
REMARK    6  A    between atoms: C_22  and  C_23
REMARK                            x       y       z     vdW  Elec       q    Type
REMARK                         _______ _______ _______ _____ _____    ______ ____
ROOT
ATOM      1  C   UNL     1       1.041  -2.970   0.737  0.00  0.00    +0.068 C 
ATOM      2  C   UNL     1       1.879  -1.725   0.606  0.00  0.00    +0.068 A 
ATOM      3  C   UNL     1       1.410  -0.457   0.289  0.00  0.00    +0.049 A 
ATOM      4  C   UNL     1       2.478   0.396   0.269  0.00  0.00    +0.222 A 
ATOM      5  N   UNL     1       3.575  -0.319   0.563  0.00  0.00    -0.246 N 
ATOM      6  H   UNL     1       4.510   0.033   0.623  0.00  0.00    +0.192 HD
ATOM      7  N   UNL     1       3.178  -1.649   0.773  0.00  0.00    -0.176 NA
ATOM      8  O   UNL     1       2.354   1.718  -0.007  0.00  0.00    -0.423 OA
ATOM      9  C   UNL     1       1.112   2.244   0.004  0.00  0.00    +0.200 C 
ATOM     10  C   UNL     1      -0.018   1.504   0.010  0.00  0.00    +0.098 C 
ATOM     11  C   UNL     1       0.002  -0.004   0.002  0.00  0.00    +0.103 C 
ENDROOT
BRANCH  11  12
ATOM     12  C   UNL     1      -0.430  -0.511  -1.350  0.00  0.00    -0.009 A 
ATOM     13  C   UNL     1       0.163  -0.253  -2.526  0.00  0.00    +0.091 A 
ATOM     14  N   UNL     1      -0.507  -0.888  -3.536  0.00  0.00    -0.342 N 
ATOM     15  C   UNL     1      -1.582  -1.579  -3.022  0.00  0.00    +0.050 A 
ATOM     16  C   UNL     1      -1.580  -1.373  -1.630  0.00  0.00    +0.004 A 
ATOM     17  C   UNL     1      -2.568  -1.962  -0.838  0.00  0.00    +0.010 A 
ATOM     18  C   UNL     1      -3.533  -2.735  -1.420  0.00  0.00    +0.001 A 
ATOM     19  C   UNL     1      -3.539  -2.941  -2.793  0.00  0.00    +0.002 A 
ATOM     20  C   UNL     1      -2.574  -2.370  -3.593  0.00  0.00    +0.026 A 
BRANCH  14  21
ATOM     21  C   UNL     1      -0.141  -0.835  -4.953  0.00  0.00    +0.157 C 
BRANCH  21  22
ATOM     22  C   UNL     1      -0.928   0.255  -5.635  0.00  0.00    -0.028 A 
ATOM     23  C   UNL     1      -2.154  -0.032  -6.207  0.00  0.00    +0.005 A 
ATOM     24  C   UNL     1      -2.878   0.968  -6.828  0.00  0.00    +0.000 A 
ATOM     25  C   UNL     1      -2.372   2.253  -6.887  0.00  0.00    +0.000 A 
ATOM     26  C   UNL     1      -1.144   2.539  -6.320  0.00  0.00    +0.000 A 
ATOM     27  C   UNL     1      -0.422   1.540  -5.694  0.00  0.00    +0.005 A 
ENDBRANCH  21  22
ENDBRANCH  14  21
ENDBRANCH  11  12
BRANCH   9  28
ATOM     28  N   UNL     1       0.990   3.612   0.007  0.00  0.00    -0.328 N 
ATOM     29  H   UNL     1       0.110   4.020   0.014  0.00  0.00    +0.145 HD
ATOM     30  H   UNL     1       1.783   4.170   0.002  0.00  0.00    +0.145 HD
ENDBRANCH   9  28
BRANCH  10  31
ATOM     31  C   UNL     1      -1.283   2.176   0.020  0.00  0.00    +0.101 C 
ATOM     32  N   UNL     1      -2.286   2.710   0.027  0.00  0.00    -0.191 NA
ENDBRANCH  10  31
TORSDOF 5
