REMARK  Name = ZINC38610345
REMARK  11 active torsions:
REMARK  status: ('A' for Active; 'I' for Inactive)
REMARK    1  A    between atoms: C_1  and  C_2
REMARK    2  A    between atoms: C_2  and  C_3
REMARK    3  A    between atoms: C_3  and  C_4
REMARK    4  A    between atoms: C_4  and  C_5
REMARK    5  A    between atoms: C_5  and  O_6
REMARK    6  A    between atoms: O_6  and  C_7
REMARK    7  A    between atoms: C_11  and  C_13
REMARK    8  A    between atoms: C_16  and  C_32
REMARK    9  A    between atoms: N_23  and  C_24
REMARK   10  A    between atoms: C_24  and  C_25
REMARK   11  A    between atoms: C_37  and  O_38
REMARK                            x       y       z     vdW  Elec       q    Type
REMARK                         _______ _______ _______ _____ _____    ______ ____
ROOT
ATOM      1  C   UNL     1      -5.619  -7.785   0.192  0.00  0.00    +0.142 C 
ATOM      2  C   UNL     1      -5.634  -8.529   1.500  0.00  0.00    +0.035 A 
ATOM      3  C   UNL     1      -4.995  -8.786   2.717  0.00  0.00    +0.102 A 
ATOM      4  N   UNL     1      -5.739  -9.652   3.377  0.00  0.00    -0.173 NA
ATOM      5  N   UNL     1      -6.784  -9.966   2.697  0.00  0.00    -0.272 N 
ATOM      6  H   UNL     1      -7.471 -10.586   2.987  0.00  0.00    +0.189 HD
ATOM      7  C   UNL     1      -6.782  -9.297   1.506  0.00  0.00    +0.126 A 
ATOM      8  C   UNL     1      -7.502  -9.072   0.248  0.00  0.00    +0.266 C 
ATOM      9  O   UNL     1      -8.554  -9.603  -0.054  0.00  0.00    -0.268 OA
ATOM     10  N   UNL     1      -6.834  -8.194  -0.524  0.00  0.00    -0.281 N 
ENDROOT
BRANCH   1  15
ATOM     11  C   UNL     1      -4.542  -4.168   0.380  0.00  0.00    +0.121 A 
ATOM     12  C   UNL     1      -5.681  -3.569   0.898  0.00  0.00    +0.045 A 
ATOM     13  C   UNL     1      -6.794  -4.336   1.185  0.00  0.00    +0.004 A 
ATOM     14  C   UNL     1      -6.773  -5.700   0.956  0.00  0.00    +0.006 A 
ATOM     15  C   UNL     1      -5.639  -6.299   0.440  0.00  0.00    -0.019 A 
ATOM     16  C   UNL     1      -4.525  -5.535   0.146  0.00  0.00    +0.051 A 
BRANCH  11  17
ATOM     17  O   UNL     1      -3.447  -3.416   0.096  0.00  0.00    -0.492 OA
BRANCH  17  18
ATOM     18  C   UNL     1      -3.535  -2.014   0.362  0.00  0.00    +0.229 C 
BRANCH  18  19
ATOM     19  C   UNL     1      -2.216  -1.338  -0.017  0.00  0.00    +0.041 C 
BRANCH  19  20
ATOM     20  C   UNL     1      -2.312   0.162   0.268  0.00  0.00    +0.003 C 
BRANCH  20  22
ATOM     21  C   UNL     1      -1.088   2.338   0.173  0.00  0.00    +0.004 C 
ATOM     22  C   UNL     1      -0.993   0.838  -0.112  0.00  0.00    -0.003 C 
ENDBRANCH  20  22
ENDBRANCH  19  20
ENDBRANCH  18  19
ENDBRANCH  17  18
ENDBRANCH  11  17
ENDBRANCH   1  15
BRANCH   3  23
ATOM     23  C   UNL     1      -3.716  -8.194   3.181  0.00  0.00    +0.044 A 
ATOM     24  C   UNL     1      -2.973  -7.381   2.329  0.00  0.00    +0.014 A 
ATOM     25  C   UNL     1      -1.783  -6.832   2.764  0.00  0.00    +0.001 A 
ATOM     26  C   UNL     1      -1.326  -7.087   4.045  0.00  0.00    +0.004 A 
ATOM     27  C   UNL     1      -2.056  -7.893   4.898  0.00  0.00    +0.046 A 
ATOM     28  C   UNL     1      -3.255  -8.445   4.476  0.00  0.00    +0.126 A 
BRANCH  28  29
ATOM     29  O   UNL     1      -3.976  -9.232   5.316  0.00  0.00    -0.506 OA
ATOM     30  H   UNL     1      -3.750 -10.171   5.266  0.00  0.00    +0.292 HD
ENDBRANCH  28  29
ENDBRANCH   3  23
BRANCH  10  31
ATOM     31  C   UNL     1      -7.247  -7.727  -1.850  0.00  0.00    +0.144 C 
BRANCH  31  32
ATOM     32  C   UNL     1      -6.675  -8.638  -2.905  0.00  0.00    -0.030 A 
ATOM     33  C   UNL     1      -5.431  -8.372  -3.447  0.00  0.00    +0.006 A 
ATOM     34  C   UNL     1      -4.905  -9.207  -4.415  0.00  0.00    +0.020 A 
ATOM     35  C   UNL     1      -5.623 -10.310  -4.840  0.00  0.00    +0.041 A 
ATOM     36  C   UNL     1      -6.868 -10.576  -4.297  0.00  0.00    +0.020 A 
ATOM     37  C   UNL     1      -7.390  -9.744  -3.326  0.00  0.00    +0.006 A 
ATOM     38 CL   UNL     1      -4.964 -11.359  -6.056  0.00  0.00    -0.084 Cl
ENDBRANCH  31  32
ENDBRANCH  10  31
TORSDOF 10
