REMARK  Name = ZINC39872163
REMARK  7 active torsions:
REMARK  status: ('A' for Active; 'I' for Inactive)
REMARK    1  A    between atoms: C_1  and  O_2
REMARK    2  A    between atoms: O_2  and  C_3
REMARK    3  A    between atoms: C_6  and  N_10
REMARK    4  A    between atoms: C_11  and  C_26
REMARK    5  A    between atoms: C_29  and  O_34
REMARK    6  A    between atoms: C_30  and  O_32
REMARK    7  A    between atoms: O_32  and  C_33
REMARK                            x       y       z     vdW  Elec       q    Type
REMARK                         _______ _______ _______ _____ _____    ______ ____
ROOT
ATOM      1  N   UNL     1       2.541  -2.502   4.231  0.00  0.00    -0.253 N 
ATOM      2  C   UNL     1       2.688  -3.955   4.415  0.00  0.00    +0.150 C 
ATOM      3  C   UNL     1       3.439  -4.129   5.694  0.00  0.00    +0.072 A 
ATOM      4  C   UNL     1       3.874  -5.337   6.403  0.00  0.00    +0.199 A 
ATOM      5  O   UNL     1       3.815  -6.453   5.918  0.00  0.00    -0.287 OA
ATOM      6  C   UNL     1       4.395  -5.070   7.768  0.00  0.00    +0.064 A 
ATOM      7  C   UNL     1       4.661  -6.125   8.640  0.00  0.00    +0.015 A 
ATOM      8  C   UNL     1       5.135  -5.862   9.896  0.00  0.00    +0.001 A 
ATOM      9  C   UNL     1       5.351  -4.553  10.302  0.00  0.00    +0.004 A 
ATOM     10  C   UNL     1       5.095  -3.500   9.453  0.00  0.00    +0.047 A 
ATOM     11  C   UNL     1       4.613  -3.741   8.166  0.00  0.00    +0.139 A 
ATOM     12  O   UNL     1       4.378  -2.692   7.345  0.00  0.00    -0.450 OA
ATOM     13  C   UNL     1       3.703  -2.885   6.195  0.00  0.00    +0.199 A 
ATOM     14  C   UNL     1       3.139  -1.886   5.270  0.00  0.00    +0.287 C 
ATOM     15  O   UNL     1       3.202  -0.683   5.424  0.00  0.00    -0.266 OA
ENDROOT
BRANCH   1  19
ATOM     16  C   UNL     1       0.626  -0.619   1.042  0.00  0.00    +0.138 A 
ATOM     17  C   UNL     1       1.202   0.139   2.051  0.00  0.00    +0.049 A 
ATOM     18  C   UNL     1       1.836  -0.484   3.107  0.00  0.00    +0.027 A 
ATOM     19  C   UNL     1       1.898  -1.871   3.160  0.00  0.00    +0.039 A 
ATOM     20  C   UNL     1       1.321  -2.630   2.150  0.00  0.00    +0.047 A 
ATOM     21  C   UNL     1       0.682  -2.005   1.097  0.00  0.00    +0.084 A 
ATOM     22 CL   UNL     1      -0.045  -2.953  -0.163  0.00  0.00    -0.080 Cl
BRANCH  16  24
ATOM     23  C   UNL     1      -0.017   1.425   0.010  0.00  0.00    +0.277 C 
ATOM     24  O   UNL     1       0.002  -0.004   0.002  0.00  0.00    -0.494 OA
ENDBRANCH  16  24
ENDBRANCH   1  19
BRANCH   2  25
ATOM     25  C   UNL     1       3.467  -4.548   3.269  0.00  0.00    -0.018 A 
ATOM     26  C   UNL     1       4.559  -3.875   2.755  0.00  0.00    +0.009 A 
ATOM     27  C   UNL     1       5.277  -4.415   1.704  0.00  0.00    +0.049 A 
ATOM     28  C   UNL     1       4.901  -5.634   1.163  0.00  0.00    +0.158 A 
ATOM     29  C   UNL     1       3.802  -6.313   1.681  0.00  0.00    +0.162 A 
ATOM     30  C   UNL     1       3.090  -5.768   2.738  0.00  0.00    +0.055 A 
BRANCH  29  31
ATOM     31  O   UNL     1       3.430  -7.510   1.154  0.00  0.00    -0.491 OA
ATOM     32  C   UNL     1       2.292  -8.149   1.735  0.00  0.00    +0.277 C 
ENDBRANCH  29  31
BRANCH  28  33
ATOM     33  O   UNL     1       5.606  -6.167   0.129  0.00  0.00    -0.503 OA
ATOM     34  H   UNL     1       6.337  -6.737   0.403  0.00  0.00    +0.292 HD
ENDBRANCH  28  33
ENDBRANCH   2  25
TORSDOF 5
