REMARK  Name = ZINC09186412
REMARK  12 active torsions:
REMARK  status: ('A' for Active; 'I' for Inactive)
REMARK    1  A    between atoms: C_1  and  N_2
REMARK    2  A    between atoms: C_3  and  C_11
REMARK    3  A    between atoms: N_7  and  C_10
REMARK    4  A    between atoms: C_11  and  N_12
REMARK    5  A    between atoms: C_13  and  C_15
REMARK    6  A    between atoms: C_15  and  C_17
REMARK    7  A    between atoms: C_15  and  N_24
REMARK    8  A    between atoms: C_17  and  C_18
REMARK    9  A    between atoms: N_24  and  S_25
REMARK   10  A    between atoms: S_25  and  C_28
REMARK   11  A    between atoms: C_31  and  O_34
REMARK   12  A    between atoms: O_34  and  C_35
REMARK                            x       y       z     vdW  Elec       q    Type
REMARK                         _______ _______ _______ _____ _____    ______ ____
ROOT
ATOM      1  C   UNL     1       3.337  -1.782   1.954  0.00  0.00    +0.166 C 
ENDROOT
BRANCH   1   3
ATOM      2  N   UNL     1       1.782   0.130   2.177  0.00  0.00    -0.308 N 
ATOM      3  C   UNL     1       3.054  -0.315   2.156  0.00  0.00    +0.232 C 
ATOM      4  O   UNL     1       3.972   0.465   2.301  0.00  0.00    -0.274 OA
ATOM      5  H   UNL     1       1.049  -0.494   2.061  0.00  0.00    +0.149 HD
BRANCH   2   6
ATOM      6  C   UNL     1       1.508   1.555   2.373  0.00  0.00    +0.158 C 
BRANCH   6   9
ATOM      7  C   UNL     1      -0.013   1.086   0.008  0.00  0.00    +0.154 C 
ATOM      8  N   UNL     1      -0.698   1.558   1.213  0.00  0.00    -0.299 N 
ATOM      9  C   UNL     1       0.019   1.788   2.356  0.00  0.00    +0.045 A 
ATOM     10  C   UNL     1      -0.613   2.224   3.466  0.00  0.00    +0.093 A 
ATOM     11  C   UNL     1      -2.012   2.435   3.425  0.00  0.00    +0.257 A 
ATOM     12  O   UNL     1      -2.604   2.828   4.413  0.00  0.00    -0.268 OA
ATOM     13  N   UNL     1      -2.683   2.197   2.279  0.00  0.00    -0.264 N 
ATOM     14  C   UNL     1      -2.027   1.768   1.185  0.00  0.00    +0.332 A 
ATOM     15  O   UNL     1      -2.645   1.562   0.158  0.00  0.00    -0.246 OA
ATOM     16  C   UNL     1      -4.131   2.412   2.224  0.00  0.00    +0.157 C 
ENDBRANCH   6   9
ENDBRANCH   2   6
ENDBRANCH   1   3
BRANCH   1  17
ATOM     17  N   UNL     1       4.784  -2.007   1.972  0.00  0.00    -0.178 NA
ATOM     18  H   UNL     1       5.350  -1.478   2.555  0.00  0.00    +0.149 HD
BRANCH  17  19
ATOM     19  S   UNL     1       5.453  -3.166   0.995  0.00  0.00    +0.059 S 
ATOM     20  O   UNL     1       6.856  -3.124   1.218  0.00  0.00    -0.153 OA
ATOM     21  O   UNL     1       4.687  -4.348   1.183  0.00  0.00    -0.153 OA
BRANCH  19  22
ATOM     22  C   UNL     1       5.193  -2.657  -0.671  0.00  0.00    +0.105 A 
ATOM     23  C   UNL     1       4.050  -3.050  -1.343  0.00  0.00    +0.032 A 
ATOM     24  C   UNL     1       3.841  -2.648  -2.648  0.00  0.00    +0.047 A 
ATOM     25  C   UNL     1       4.784  -1.857  -3.288  0.00  0.00    +0.120 A 
ATOM     26  C   UNL     1       5.933  -1.468  -2.614  0.00  0.00    +0.047 A 
ATOM     27  C   UNL     1       6.134  -1.869  -1.307  0.00  0.00    +0.032 A 
BRANCH  25  28
ATOM     28  O   UNL     1       4.583  -1.464  -4.573  0.00  0.00    -0.495 OA
ATOM     29  C   UNL     1       3.378  -1.902  -5.205  0.00  0.00    +0.277 C 
ENDBRANCH  25  28
ENDBRANCH  19  22
ENDBRANCH  17  19
ENDBRANCH   1  17
BRANCH   1  30
ATOM     30  C   UNL     1       2.681  -2.587   3.078  0.00  0.00    +0.065 C 
BRANCH  30  31
ATOM     31  C   UNL     1       2.858  -4.059   2.810  0.00  0.00    -0.045 A 
ATOM     32  C   UNL     1       1.907  -4.749   2.082  0.00  0.00    +0.004 A 
ATOM     33  C   UNL     1       2.071  -6.098   1.832  0.00  0.00    +0.000 A 
ATOM     34  C   UNL     1       3.183  -6.761   2.319  0.00  0.00    +0.000 A 
ATOM     35  C   UNL     1       4.132  -6.072   3.051  0.00  0.00    +0.000 A 
ATOM     36  C   UNL     1       3.970  -4.722   3.297  0.00  0.00    +0.004 A 
ENDBRANCH  30  31
ENDBRANCH   1  30
TORSDOF 9
