REMARK  Name = ZINC36849927
REMARK  7 active torsions:
REMARK  status: ('A' for Active; 'I' for Inactive)
REMARK    1  A    between atoms: C_1  and  C_2
REMARK    2  A    between atoms: C_2  and  C_3
REMARK    3  A    between atoms: C_6  and  C_9
REMARK    4  A    between atoms: C_9  and  C_11
REMARK    5  A    between atoms: C_9  and  N_12
REMARK    6  A    between atoms: C_13  and  C_15
REMARK    7  A    between atoms: C_15  and  N_16
REMARK                            x       y       z     vdW  Elec       q    Type
REMARK                         _______ _______ _______ _____ _____    ______ ____
ROOT
ATOM      1  N   UNL     1       6.292  -0.325  -7.641  0.00  0.00    -0.215 N 
ATOM      2  C   UNL     1       7.030  -1.290  -8.227  0.00  0.00    +0.251 C 
ATOM      3  O   UNL     1       7.468  -2.294  -7.710  0.00  0.00    -0.272 OA
ATOM      4  C   UNL     1       7.196  -0.855  -9.667  0.00  0.00    +0.138 C 
ATOM      5  C   UNL     1       8.671  -0.644  -9.987  0.00  0.00    +0.040 C 
ATOM      6  C   UNL     1       8.809  -0.395 -11.494  0.00  0.00    +0.008 C 
ATOM      7  C   UNL     1       8.485  -1.692 -12.231  0.00  0.00    +0.035 C 
ATOM      8  C   UNL     1       7.162  -2.248 -11.772  0.00  0.00    -0.042 A 
ATOM      9  C   UNL     1       6.571  -1.864 -10.588  0.00  0.00    -0.012 A 
ATOM     10  C   UNL     1       5.353  -2.418 -10.217  0.00  0.00    +0.006 A 
ATOM     11  C   UNL     1       4.730  -3.347 -11.026  0.00  0.00    +0.000 A 
ATOM     12  C   UNL     1       5.322  -3.729 -12.215  0.00  0.00    +0.000 A 
ATOM     13  C   UNL     1       6.533  -3.181 -12.584  0.00  0.00    +0.004 A 
ATOM     14  N   UNL     1       6.469   0.420  -9.738  0.00  0.00    -0.281 N 
ATOM     15  C   UNL     1       5.970   0.644  -8.507  0.00  0.00    +0.310 C 
ATOM     16  O   UNL     1       5.306   1.619  -8.214  0.00  0.00    -0.252 OA
ATOM     17  H   UNL     1       6.365   0.987 -10.518  0.00  0.00    +0.152 HD
ENDROOT
BRANCH   1  18
ATOM     18  C   UNL     1       5.888  -0.338  -6.233  0.00  0.00    +0.213 C 
BRANCH  18  20
ATOM     19  N   UNL     1       3.993  -1.180  -4.884  0.00  0.00    -0.307 N 
ATOM     20  C   UNL     1       4.564  -1.046  -6.098  0.00  0.00    +0.231 C 
ATOM     21  O   UNL     1       4.013  -1.495  -7.080  0.00  0.00    -0.274 OA
ATOM     22  H   UNL     1       4.434  -0.821  -4.098  0.00  0.00    +0.149 HD
BRANCH  19  23
ATOM     23  C   UNL     1       2.707  -1.868  -4.752  0.00  0.00    +0.100 C 
ATOM     24  C   UNL     1       2.943  -3.376  -4.645  0.00  0.00    +0.033 C 
BRANCH  23  28
ATOM     25  C   UNL     1       0.707  -0.490  -1.238  0.00  0.00    -0.048 A 
ATOM     26  C   UNL     1      -0.011  -0.719  -2.397  0.00  0.00    +0.004 A 
ATOM     27  C   UNL     1       0.636  -1.164  -3.534  0.00  0.00    +0.006 A 
ATOM     28  C   UNL     1       2.002  -1.381  -3.513  0.00  0.00    -0.027 A 
ATOM     29  C   UNL     1       2.720  -1.152  -2.354  0.00  0.00    +0.006 A 
ATOM     30  C   UNL     1       2.073  -0.702  -1.218  0.00  0.00    +0.004 A 
BRANCH  25  32
ATOM     31  C   UNL     1      -0.019   1.526   0.010  0.00  0.00    +0.009 C 
ATOM     32  C   UNL     1       0.002  -0.004   0.002  0.00  0.00    +0.032 C 
ENDBRANCH  25  32
ENDBRANCH  23  28
ENDBRANCH  19  23
ENDBRANCH  18  20
ENDBRANCH   1  18
TORSDOF 5
