REMARK  Name = ZINC21425080
REMARK  9 active torsions:
REMARK  status: ('A' for Active; 'I' for Inactive)
REMARK    1  A    between atoms: C_1  and  C_2
REMARK    2  A    between atoms: C_2  and  C_4
REMARK    3  A    between atoms: C_2  and  N_14
REMARK    4  A    between atoms: C_15  and  C_17
REMARK    5  A    between atoms: C_17  and  S_18
REMARK    6  A    between atoms: S_18  and  C_19
REMARK    7  A    between atoms: C_20  and  C_28
REMARK    8  A    between atoms: C_22  and  C_26
REMARK    9  A    between atoms: C_23  and  N_25
REMARK                            x       y       z     vdW  Elec       q    Type
REMARK                         _______ _______ _______ _____ _____    ______ ____
ROOT
ATOM      1  N   UNL     1      -2.157   1.539  -3.717  0.00  0.00    -0.312 N 
ATOM      2  C   UNL     1      -3.126   2.206  -4.374  0.00  0.00    +0.223 C 
ATOM      3  O   UNL     1      -2.861   3.227  -4.973  0.00  0.00    -0.275 OA
ATOM      4  H   UNL     1      -2.398   0.614  -3.173  0.00  0.00    +0.149 HD
ENDROOT
BRANCH   1   6
ATOM      5  C   UNL     1      -0.066   1.553  -4.986  0.00  0.00    +0.028 C 
ATOM      6  C   UNL     1      -0.782   2.046  -3.727  0.00  0.00    +0.076 C 
BRANCH   6   7
ATOM      7  C   UNL     1      -0.043   1.539  -2.488  0.00  0.00    -0.010 C 
ATOM      8  C   UNL     1      -0.759   2.033  -1.229  0.00  0.00    +0.012 C 
ATOM      9  C   UNL     1      -0.019   1.526   0.010  0.00  0.00    -0.010 C 
ATOM     10  C   UNL     1       1.417   2.055  -0.000  0.00  0.00    +0.007 C 
ATOM     11  C   UNL     1       2.133   1.562  -1.259  0.00  0.00    -0.010 C 
ATOM     12  C   UNL     1       1.393   2.069  -2.499  0.00  0.00    +0.012 C 
ATOM     13  C   UNL     1       2.154   0.032  -1.268  0.00  0.00    +0.007 C 
ATOM     14  C   UNL     1       0.718  -0.497  -1.257  0.00  0.00    -0.010 C 
ATOM     15  C   UNL     1       0.002  -0.004   0.002  0.00  0.00    +0.007 C 
ATOM     16  C   UNL     1      -0.022   0.009  -2.496  0.00  0.00    +0.012 C 
ENDBRANCH   6   7
ENDBRANCH   1   6
BRANCH   2  17
ATOM     17  C   UNL     1      -4.540   1.685  -4.363  0.00  0.00    +0.171 C 
BRANCH  17  18
ATOM     18  S   UNL     1      -5.599   2.792  -5.326  0.00  0.00    -0.095 S 
BRANCH  18  19
ATOM     19  C   UNL     1      -7.146   1.967  -5.149  0.00  0.00    +0.117 A 
ATOM     20  C   UNL     1      -8.297   2.507  -5.758  0.00  0.00    +0.085 A 
ATOM     21  C   UNL     1      -9.516   1.841  -5.616  0.00  0.00    +0.043 A 
ATOM     22  C   UNL     1      -9.546   0.666  -4.862  0.00  0.00    +0.092 A 
ATOM     23  C   UNL     1      -8.352   0.194  -4.280  0.00  0.00    +0.135 A 
ATOM     24  N   UNL     1      -7.215   0.850  -4.441  0.00  0.00    -0.224 NA
BRANCH  23  25
ATOM     25  N   UNL     1      -8.371  -0.966  -3.532  0.00  0.00    -0.342 N 
ATOM     26  H   UNL     1      -7.443  -1.340  -3.075  0.00  0.00    +0.144 HD
ATOM     27  H   UNL     1      -9.313  -1.516  -3.393  0.00  0.00    +0.144 HD
ENDBRANCH  23  25
BRANCH  22  28
ATOM     28  C   UNL     1     -10.773  -0.051  -4.682  0.00  0.00    +0.103 C 
ATOM     29  N   UNL     1     -11.746  -0.619  -4.540  0.00  0.00    -0.191 NA
ENDBRANCH  22  28
BRANCH  20  30
ATOM     30  C   UNL     1      -8.216   3.719  -6.517  0.00  0.00    +0.102 C 
ATOM     31  N   UNL     1      -8.152   4.680  -7.119  0.00  0.00    -0.191 NA
ENDBRANCH  20  30
ENDBRANCH  18  19
ENDBRANCH  17  18
ENDBRANCH   2  17
TORSDOF 8
