REMARK  Name = ZINC38659875
REMARK  10 active torsions:
REMARK  status: ('A' for Active; 'I' for Inactive)
REMARK    1  A    between atoms: C_1  and  O_2
REMARK    2  A    between atoms: O_2  and  C_3
REMARK    3  A    between atoms: C_6  and  O_36
REMARK    4  A    between atoms: C_7  and  C_9
REMARK    5  A    between atoms: C_14  and  O_23
REMARK    6  A    between atoms: C_18  and  N_22
REMARK    7  A    between atoms: C_19  and  C_20
REMARK    8  A    between atoms: O_23  and  C_24
REMARK    9  A    between atoms: C_24  and  C_26
REMARK   10  A    between atoms: O_36  and  C_37
REMARK                            x       y       z     vdW  Elec       q    Type
REMARK                         _______ _______ _______ _____ _____    ______ ____
ROOT
ATOM      1  C   UNL     1       1.330  -4.121  -2.293  0.00  0.00    +0.102 C 
ATOM      2  C   UNL     1       2.068  -4.653  -1.093  0.00  0.00    +0.008 A 
ATOM      3  C   UNL     1       3.452  -4.630  -1.080  0.00  0.00    +0.012 A 
ATOM      4  C   UNL     1       4.146  -5.115   0.011  0.00  0.00    +0.047 A 
ATOM      5  C   UNL     1       3.455  -5.627   1.101  0.00  0.00    +0.135 A 
ATOM      6  C   UNL     1       2.070  -5.650   1.091  0.00  0.00    +0.093 A 
ATOM      7  C   UNL     1       1.373  -5.163  -0.007  0.00  0.00    +0.138 A 
ATOM      8  O   UNL     1       0.018  -5.194  -0.001  0.00  0.00    -0.441 OA
ATOM      9  C   UNL     1      -0.659  -5.102  -1.158  0.00  0.00    +0.199 C 
ATOM     10  C   UNL     1      -0.094  -4.603  -2.278  0.00  0.00    +0.098 C 
ENDROOT
BRANCH   1  15
ATOM     11  C   UNL     1       0.797  -0.552  -1.171  0.00  0.00    +0.121 A 
ATOM     12  C   UNL     1       1.383   0.156  -2.210  0.00  0.00    +0.049 A 
ATOM     13  C   UNL     1       1.950  -0.520  -3.273  0.00  0.00    +0.049 A 
ATOM     14  C   UNL     1       1.933  -1.907  -3.301  0.00  0.00    +0.124 A 
ATOM     15  C   UNL     1       1.348  -2.615  -2.262  0.00  0.00    +0.010 A 
ATOM     16  C   UNL     1       0.786  -1.939  -1.196  0.00  0.00    +0.053 A 
BRANCH  11  18
ATOM     17  C   UNL     1       0.287   1.541  -0.165  0.00  0.00    +0.277 C 
ATOM     18  O   UNL     1       0.239   0.114  -0.125  0.00  0.00    -0.495 OA
ENDBRANCH  11  18
BRANCH  14  19
ATOM     19  O   UNL     1       2.490  -2.572  -4.348  0.00  0.00    -0.495 OA
ATOM     20  C   UNL     1       3.075  -1.780  -5.384  0.00  0.00    +0.277 C 
ENDBRANCH  14  19
ENDBRANCH   1  15
BRANCH   9  21
ATOM     21  N   UNL     1      -1.964  -5.528  -1.202  0.00  0.00    -0.328 N 
ATOM     22  H   UNL     1      -2.383  -5.889  -0.405  0.00  0.00    +0.145 HD
ATOM     23  H   UNL     1      -2.466  -5.469  -2.029  0.00  0.00    +0.145 HD
ENDBRANCH   9  21
BRANCH  10  24
ATOM     24  C   UNL     1      -0.871  -4.531  -3.479  0.00  0.00    +0.101 C 
ATOM     25  N   UNL     1      -1.487  -4.474  -4.432  0.00  0.00    -0.191 NA
ENDBRANCH  10  24
BRANCH   5  26
ATOM     26  O   UNL     1       4.136  -6.104   2.175  0.00  0.00    -0.422 OA
BRANCH  26  27
ATOM     27  C   UNL     1       4.835  -5.227   2.922  0.00  0.00    +0.345 C 
ATOM     28  O   UNL     1       4.765  -4.036   2.687  0.00  0.00    -0.245 OA
BRANCH  27  29
ATOM     29  C   UNL     1       5.684  -5.710   4.025  0.00  0.00    +0.067 A 
ATOM     30  C   UNL     1       5.876  -7.071   4.228  0.00  0.00    +0.015 A 
ATOM     31  C   UNL     1       6.676  -7.524   5.268  0.00  0.00    +0.001 A 
ATOM     32  C   UNL     1       7.299  -6.665   6.121  0.00  0.00    +0.008 A 
ATOM     33  C   UNL     1       7.150  -5.276   5.975  0.00  0.00    -0.017 A 
ATOM     34  C   UNL     1       6.347  -4.768   4.925  0.00  0.00    -0.004 A 
ATOM     35  C   UNL     1       6.199  -3.384   4.773  0.00  0.00    +0.009 A 
ATOM     36  C   UNL     1       6.835  -2.541   5.635  0.00  0.00    +0.001 A 
ATOM     37  C   UNL     1       7.630  -3.037   6.666  0.00  0.00    +0.001 A 
ATOM     38  C   UNL     1       7.786  -4.377   6.848  0.00  0.00    +0.008 A 
ENDBRANCH  27  29
ENDBRANCH  26  27
ENDBRANCH   5  26
TORSDOF 8
