REMARK  Name = ZINC09292552
REMARK  11 active torsions:
REMARK  status: ('A' for Active; 'I' for Inactive)
REMARK    1  A    between atoms: C_1  and  O_2
REMARK    2  A    between atoms: O_2  and  C_3
REMARK    3  A    between atoms: C_7  and  C_11
REMARK    4  A    between atoms: C_8  and  O_9
REMARK    5  A    between atoms: O_9  and  C_10
REMARK    6  A    between atoms: C_14  and  C_25
REMARK    7  A    between atoms: C_20  and  N_24
REMARK    8  A    between atoms: C_21  and  C_22
REMARK    9  A    between atoms: C_28  and  O_31
REMARK   10  A    between atoms: O_31  and  C_32
REMARK   11  A    between atoms: C_32  and  C_33
REMARK                            x       y       z     vdW  Elec       q    Type
REMARK                         _______ _______ _______ _____ _____    ______ ____
ROOT
ATOM      1  C   UNL     1       1.304  -4.210  -2.267  0.00  0.00    +0.105 C 
ATOM      2  C   UNL     1       2.747  -4.599  -2.461  0.00  0.00    +0.054 A 
ATOM      3  C   UNL     1       3.777  -4.561  -1.582  0.00  0.00    +0.074 A 
ATOM      4  N   UNL     1       4.886  -5.016  -2.238  0.00  0.00    -0.273 N 
ATOM      5  H   UNL     1       5.777  -5.103  -1.863  0.00  0.00    +0.189 HD
ATOM      6  N   UNL     1       4.509  -5.338  -3.551  0.00  0.00    -0.135 NA
ATOM      7  C   UNL     1       3.237  -5.091  -3.687  0.00  0.00    +0.245 A 
ATOM      8  O   UNL     1       2.433  -5.248  -4.773  0.00  0.00    -0.421 OA
ATOM      9  C   UNL     1       1.101  -5.178  -4.576  0.00  0.00    +0.201 C 
ATOM     10  C   UNL     1       0.517  -4.716  -3.449  0.00  0.00    +0.098 C 
ENDROOT
BRANCH   1  15
ATOM     11  C   UNL     1       0.544  -0.733  -0.978  0.00  0.00    +0.162 A 
ATOM     12  C   UNL     1       0.978   0.049  -2.036  0.00  0.00    +0.049 A 
ATOM     13  C   UNL     1       1.515  -0.547  -3.162  0.00  0.00    +0.004 A 
ATOM     14  C   UNL     1       1.620  -1.924  -3.235  0.00  0.00    +0.008 A 
ATOM     15  C   UNL     1       1.189  -2.710  -2.183  0.00  0.00    +0.011 A 
ATOM     16  C   UNL     1       0.655  -2.118  -1.049  0.00  0.00    +0.166 A 
BRANCH  11  18
ATOM     17  C   UNL     1      -0.067   1.279   0.134  0.00  0.00    +0.277 C 
ATOM     18  O   UNL     1       0.016  -0.148   0.131  0.00  0.00    -0.491 OA
ENDBRANCH  11  18
BRANCH  16  19
ATOM     19  O   UNL     1       0.236  -2.890  -0.011  0.00  0.00    -0.491 OA
ATOM     20  C   UNL     1      -1.125  -3.324  -0.034  0.00  0.00    +0.277 C 
ENDBRANCH  16  19
ENDBRANCH   1  15
BRANCH   3  21
ATOM     21  C   UNL     1       3.714  -4.111  -0.174  0.00  0.00    +0.000 A 
ATOM     22  C   UNL     1       2.703  -4.580   0.665  0.00  0.00    +0.013 A 
ATOM     23  C   UNL     1       2.647  -4.158   1.977  0.00  0.00    +0.046 A 
ATOM     24  C   UNL     1       3.595  -3.268   2.462  0.00  0.00    +0.121 A 
ATOM     25  C   UNL     1       4.603  -2.799   1.630  0.00  0.00    +0.046 A 
ATOM     26  C   UNL     1       4.668  -3.220   0.319  0.00  0.00    +0.013 A 
BRANCH  24  27
ATOM     27  O   UNL     1       3.537  -2.854   3.755  0.00  0.00    -0.487 OA
BRANCH  27  28
ATOM     28  C   UNL     1       4.544  -1.937   4.189  0.00  0.00    +0.264 C 
BRANCH  28  29
ATOM     29  C   UNL     1       4.319  -1.594   5.639  0.00  0.00    -0.010 A 
ATOM     30  C   UNL     1       3.516  -0.521   5.979  0.00  0.00    +0.007 A 
ATOM     31  C   UNL     1       3.310  -0.206   7.309  0.00  0.00    +0.000 A 
ATOM     32  C   UNL     1       3.906  -0.964   8.300  0.00  0.00    +0.000 A 
ATOM     33  C   UNL     1       4.708  -2.037   7.960  0.00  0.00    +0.000 A 
ATOM     34  C   UNL     1       4.911  -2.355   6.630  0.00  0.00    +0.007 A 
ENDBRANCH  28  29
ENDBRANCH  27  28
ENDBRANCH  24  27
ENDBRANCH   3  21
BRANCH   9  35
ATOM     35  N   UNL     1       0.282  -5.608  -5.589  0.00  0.00    -0.328 N 
ATOM     36  H   UNL     1       0.666  -5.947  -6.413  0.00  0.00    +0.145 HD
ATOM     37  H   UNL     1      -0.682  -5.573  -5.482  0.00  0.00    +0.145 HD
ENDBRANCH   9  35
BRANCH  10  38
ATOM     38  C   UNL     1      -0.913  -4.705  -3.374  0.00  0.00    +0.101 C 
ATOM     39  N   UNL     1      -2.047  -4.697  -3.314  0.00  0.00    -0.191 NA
ENDBRANCH  10  38
TORSDOF 9
