REMARK  Name = ZINC01836631
REMARK  11 active torsions:
REMARK  status: ('A' for Active; 'I' for Inactive)
REMARK    1  A    between atoms: C_1  and  C_2
REMARK    2  A    between atoms: C_2  and  C_3
REMARK    3  A    between atoms: C_3  and  O_4
REMARK    4  A    between atoms: O_4  and  C_5
REMARK    5  A    between atoms: C_8  and  C_13
REMARK    6  A    between atoms: C_10  and  O_11
REMARK    7  A    between atoms: O_11  and  C_12
REMARK    8  A    between atoms: C_22  and  C_30
REMARK    9  A    between atoms: C_23  and  N_29
REMARK   10  A    between atoms: C_24  and  C_25
REMARK   11  A    between atoms: C_24  and  C_27
REMARK                            x       y       z     vdW  Elec       q    Type
REMARK                         _______ _______ _______ _____ _____    ______ ____
ROOT
ATOM      1  C   UNL     1      -2.513   0.975   0.020  0.00  0.00    +0.066 C 
ATOM      2  C   UNL     1      -2.515  -0.015   1.186  0.00  0.00    +0.030 C 
ATOM      3  C   UNL     1      -2.651   0.678   2.521  0.00  0.00    +0.009 C 
ATOM      4  C   UNL     1      -1.308   0.809   3.236  0.00  0.00    +0.005 C 
ATOM      5  C   UNL     1      -0.723  -0.597   3.427  0.00  0.00    +0.027 C 
ATOM      6  C   UNL     1      -0.504  -1.191   2.059  0.00  0.00    -0.022 C 
ATOM      7  C   UNL     1      -1.309  -0.897   1.057  0.00  0.00    -0.029 C 
ATOM      8  C   UNL     1      -1.029  -1.456  -0.291  0.00  0.00    +0.074 C 
ATOM      9  C   UNL     1      -1.653  -0.924  -1.372  0.00  0.00    +0.054 C 
ATOM     10  C   UNL     1      -2.646   0.196  -1.290  0.00  0.00    +0.188 C 
ENDROOT
BRANCH   1  14
ATOM     11  C   UNL     1       1.157   3.170   0.005  0.00  0.00    +0.162 A 
ATOM     12  C   UNL     1       1.079   1.941  -0.629  0.00  0.00    +0.050 A 
ATOM     13  C   UNL     1      -0.107   1.232  -0.620  0.00  0.00    +0.008 A 
ATOM     14  C   UNL     1      -1.220   1.749   0.017  0.00  0.00    -0.037 A 
ATOM     15  C   UNL     1      -1.148   2.973   0.657  0.00  0.00    +0.053 A 
ATOM     16  C   UNL     1       0.039   3.688   0.651  0.00  0.00    +0.162 A 
BRANCH  16  17
ATOM     17  O   UNL     1       0.110   4.894   1.276  0.00  0.00    -0.491 OA
ATOM     18  C   UNL     1      -1.077   5.364   1.918  0.00  0.00    +0.277 C 
ENDBRANCH  16  17
BRANCH  11  19
ATOM     19  O   UNL     1       2.324   3.869  -0.004  0.00  0.00    -0.488 OA
BRANCH  19  20
ATOM     20  C   UNL     1       3.430   3.276  -0.686  0.00  0.00    +0.229 C 
BRANCH  20  22
ATOM     21  C   UNL     1       5.829   3.567  -1.321  0.00  0.00    +0.007 C 
ATOM     22  C   UNL     1       4.645   4.202  -0.590  0.00  0.00    +0.038 C 
ENDBRANCH  20  22
ENDBRANCH  19  20
ENDBRANCH  11  19
ENDBRANCH   1  14
BRANCH   9  23
ATOM     23  N   UNL     1      -1.361  -1.439  -2.604  0.00  0.00    -0.358 N 
ATOM     24  H   UNL     1      -1.851  -1.030  -3.501  0.00  0.00    +0.142 HD
ATOM     25  H   UNL     1      -0.637  -2.261  -2.699  0.00  0.00    +0.142 HD
ENDBRANCH   9  23
BRANCH  10  26
ATOM     26  C   UNL     1      -4.006  -0.360  -1.381  0.00  0.00    +0.091 C 
ATOM     27  N   UNL     1      -5.055  -0.789  -1.452  0.00  0.00    -0.194 NA
ENDBRANCH  10  26
BRANCH  10  28
ATOM     28  C   UNL     1      -2.428   1.114  -2.419  0.00  0.00    +0.091 C 
ATOM     29  N   UNL     1      -2.259   1.823  -3.290  0.00  0.00    -0.194 NA
ENDBRANCH  10  28
BRANCH   8  30
ATOM     30  C   UNL     1      -0.109  -2.543  -0.448  0.00  0.00    +0.101 C 
ATOM     31  N   UNL     1       0.620  -3.405  -0.572  0.00  0.00    -0.191 NA
ENDBRANCH   8  30
TORSDOF 9
