REMARK  Name = ZINC57836734
REMARK  4 active torsions:
REMARK  status: ('A' for Active; 'I' for Inactive)
REMARK    1  A    between atoms: C_5  and  C_7
REMARK    2  A    between atoms: C_9  and  C_12
REMARK    3  A    between atoms: C_12  and  C_13
REMARK    4  A    between atoms: C_22  and  N_24
REMARK                            x       y       z     vdW  Elec       q    Type
REMARK                         _______ _______ _______ _____ _____    ______ ____
ROOT
ATOM      1  C   UNL     1       4.256  -4.799  -1.215  0.00  0.00    +0.226 C 
ATOM      2  O   UNL     1       3.936  -3.900  -1.963  0.00  0.00    -0.275 OA
ATOM      3  N   UNL     1       5.403  -5.476  -1.426  0.00  0.00    -0.271 N 
ATOM      4  C   UNL     1       6.343  -5.214  -2.519  0.00  0.00    +0.118 C 
ATOM      5  C   UNL     1       7.476  -6.237  -2.329  0.00  0.00    +0.056 C 
ATOM      6  C   UNL     1       7.076  -7.025  -1.102  0.00  0.00    -0.022 A 
ATOM      7  C   UNL     1       5.871  -6.527  -0.631  0.00  0.00    +0.040 A 
ATOM      8  C   UNL     1       5.300  -7.098   0.507  0.00  0.00    +0.026 A 
ATOM      9  C   UNL     1       5.930  -8.141   1.152  0.00  0.00    +0.034 A 
ATOM     10  C   UNL     1       7.134  -8.628   0.677  0.00  0.00    +0.127 A 
ATOM     11  C   UNL     1       7.702  -8.072  -0.455  0.00  0.00    +0.038 A 
ENDROOT
BRANCH  10  12
ATOM     12  N   UNL     1       7.808  -9.747   1.373  0.00  0.00    +0.056 N 
ATOM     13  O   UNL     1       7.307 -10.236   2.358  0.00  0.00    -0.126 OA
ATOM     14  O   UNL     1       8.861 -10.171   0.956  0.00  0.00    -0.126 OA
ENDBRANCH  10  12
BRANCH   1  15
ATOM     15  C   UNL     1       3.373  -5.160  -0.049  0.00  0.00    +0.152 C 
BRANCH  15  18
ATOM     16  C   UNL     1       1.269  -2.143  -0.022  0.00  0.00    +0.127 A 
ATOM     17  N   UNL     1       2.314  -2.958  -0.031  0.00  0.00    -0.242 NA
ATOM     18  C   UNL     1       2.164  -4.260  -0.038  0.00  0.00    +0.058 A 
ATOM     19  C   UNL     1       0.914  -4.797  -0.035  0.00  0.00    +0.071 A 
ATOM     20  S   UNL     1      -0.083  -3.313  -0.015  0.00  0.00    -0.074 S 
BRANCH  16  25
ATOM     21  C   UNL     1      -0.017   1.379   0.010  0.00  0.00    +0.004 A 
ATOM     22  C   UNL     1       1.194   2.059   0.002  0.00  0.00    +0.020 A 
ATOM     23  C   UNL     1       2.375   1.341  -0.013  0.00  0.00    +0.111 A 
ATOM     24  N   UNL     1       2.367   0.023  -0.020  0.00  0.00    -0.253 NA
ATOM     25  C   UNL     1       1.231  -0.665  -0.013  0.00  0.00    +0.096 A 
ATOM     26  C   UNL     1       0.002  -0.004   0.002  0.00  0.00    +0.030 A 
ENDBRANCH  16  25
ENDBRANCH  15  18
ENDBRANCH   1  15
TORSDOF 4
