REMARK  Name = ZINC59832216
REMARK  9 active torsions:
REMARK  status: ('A' for Active; 'I' for Inactive)
REMARK    1  A    between atoms: C_2  and  C_3
REMARK    2  A    between atoms: C_3  and  N_4
REMARK    3  A    between atoms: C_6  and  C_9
REMARK    4  A    between atoms: N_10  and  N_11
REMARK    5  A    between atoms: C_14  and  S_17
REMARK    6  A    between atoms: S_17  and  C_18
REMARK    7  A    between atoms: C_18  and  C_19
REMARK    8  A    between atoms: C_19  and  C_20
REMARK    9  A    between atoms: N_22  and  C_23
REMARK                            x       y       z     vdW  Elec       q    Type
REMARK                         _______ _______ _______ _____ _____    ______ ____
ROOT
ATOM      1  N   UNL     1      -1.735  -6.597  -4.384  0.00  0.00    -0.205 N 
ATOM      2  C   UNL     1      -1.653  -6.947  -5.719  0.00  0.00    +0.232 A 
ATOM      3  N   UNL     1      -1.431  -6.125  -6.723  0.00  0.00    -0.186 NA
ATOM      4  C   UNL     1      -1.417  -6.811  -7.871  0.00  0.00    +0.210 A 
ATOM      5  N   UNL     1      -1.630  -8.079  -7.613  0.00  0.00    -0.144 NA
ATOM      6  N   UNL     1      -1.780  -8.194  -6.221  0.00  0.00    -0.245 N 
ATOM      7  H   UNL     1      -1.898  -7.278  -3.713  0.00  0.00    +0.177 HD
ATOM      8  H   UNL     1      -1.945  -9.008  -5.720  0.00  0.00    +0.192 HD
ENDROOT
BRANCH   1  10
ATOM      9  C   UNL     1      -1.660  -4.928  -2.749  0.00  0.00    +0.141 C 
ATOM     10  N   UNL     1      -1.583  -5.258  -4.001  0.00  0.00    -0.187 NA
BRANCH   9  13
ATOM     11  N   UNL     1      -1.360  -1.692  -1.131  0.00  0.00    -0.267 N 
ATOM     12  C   UNL     1      -1.556  -3.024  -1.060  0.00  0.00    +0.118 A 
ATOM     13  C   UNL     1      -1.499  -3.518  -2.345  0.00  0.00    +0.032 A 
ATOM     14  C   UNL     1      -1.259  -2.424  -3.204  0.00  0.00    +0.143 A 
ATOM     15  N   UNL     1      -1.183  -1.343  -2.475  0.00  0.00    -0.179 NA
BRANCH  11  16
ATOM     16  C   UNL     1      -1.341  -0.766   0.004  0.00  0.00    +0.170 C 
BRANCH  16  18
ATOM     17  C   UNL     1      -0.080   1.324   0.001  0.00  0.00    +0.006 C 
ATOM     18  C   UNL     1      -0.052   0.015  -0.005  0.00  0.00    -0.012 C 
ENDBRANCH  16  18
ENDBRANCH  11  16
ENDBRANCH   9  13
ENDBRANCH   1  10
BRANCH   4  19
ATOM     19  S   UNL     1      -1.157  -6.122  -9.472  0.00  0.00    -0.084 S 
BRANCH  19  20
ATOM     20  C   UNL     1      -1.255  -7.551 -10.586  0.00  0.00    +0.086 C 
BRANCH  20  21
ATOM     21  C   UNL     1      -1.043  -7.088 -12.028  0.00  0.00    +0.107 C 
BRANCH  21  22
ATOM     22  C   UNL     1      -1.125  -8.275 -12.954  0.00  0.00    +0.218 C 
ATOM     23  O   UNL     1      -1.333  -9.382 -12.503  0.00  0.00    -0.275 OA
ATOM     24  N   UNL     1      -0.968  -8.107 -14.282  0.00  0.00    -0.285 N 
ATOM     25  H   UNL     1      -0.869  -7.214 -14.649  0.00  0.00    +0.155 HD
BRANCH  24  26
ATOM     26  C   UNL     1      -0.947  -9.220 -15.132  0.00  0.00    +0.037 A 
ATOM     27  C   UNL     1      -0.123  -9.226 -16.249  0.00  0.00    +0.027 A 
ATOM     28  C   UNL     1      -0.101 -10.323 -17.088  0.00  0.00    +0.051 A 
ATOM     29  C   UNL     1      -0.902 -11.421 -16.817  0.00  0.00    +0.166 A 
ATOM     30  C   UNL     1      -1.730 -11.419 -15.697  0.00  0.00    +0.168 A 
ATOM     31  C   UNL     1      -1.747 -10.320 -14.854  0.00  0.00    +0.072 A 
ATOM     32  O   UNL     1      -2.409 -12.602 -15.654  0.00  0.00    -0.453 OA
ATOM     33  C   UNL     1      -2.296 -13.159 -16.977  0.00  0.00    +0.466 C 
ATOM     34  O   UNL     1      -1.063 -12.607 -17.476  0.00  0.00    -0.453 OA
ENDBRANCH  24  26
ENDBRANCH  21  22
ENDBRANCH  20  21
ENDBRANCH  19  20
ENDBRANCH   4  19
TORSDOF 9
