REMARK  Name = ZINC18197094
REMARK  8 active torsions:
REMARK  status: ('A' for Active; 'I' for Inactive)
REMARK    1  A    between atoms: C_1  and  O_2
REMARK    2  A    between atoms: O_2  and  C_3
REMARK    3  A    between atoms: C_6  and  C_11
REMARK    4  A    between atoms: C_8  and  O_9
REMARK    5  A    between atoms: O_9  and  C_10
REMARK    6  A    between atoms: C_16  and  C_26
REMARK    7  A    between atoms: C_23  and  O_24
REMARK    8  A    between atoms: C_29  and  O_32
REMARK                            x       y       z     vdW  Elec       q    Type
REMARK                         _______ _______ _______ _____ _____    ______ ____
ROOT
ATOM      1  C   UNL     1      -2.296   4.461   3.493  0.00  0.00    +0.032 C 
ATOM      2  C   UNL     1      -1.357   5.137   2.492  0.00  0.00    +0.059 C 
ATOM      3  C   UNL     1      -1.286   4.316   1.224  0.00  0.00    +0.017 C 
ATOM      4  C   UNL     1      -1.420   2.973   1.262  0.00  0.00    +0.024 C 
ATOM      5  C   UNL     1      -1.333   2.113   0.020  0.00  0.00    +0.092 C 
ATOM      6  C   UNL     1      -1.431   2.980  -1.203  0.00  0.00    +0.067 A 
ATOM      7  C   UNL     1      -1.308   4.342  -1.150  0.00  0.00    +0.126 A 
ATOM      8  N   UNL     1      -1.440   4.817  -2.403  0.00  0.00    -0.260 N 
ATOM      9  H   UNL     1      -1.394   5.777  -2.677  0.00  0.00    +0.190 HD
ATOM     10  N   UNL     1      -1.653   3.723  -3.254  0.00  0.00    -0.134 NA
ATOM     11  C   UNL     1      -1.647   2.625  -2.531  0.00  0.00    +0.237 A 
ATOM     12  N   UNL     1      -1.086   5.003   0.053  0.00  0.00    -0.303 N 
ATOM     13  C   UNL     1      -1.650   2.305   2.478  0.00  0.00    +0.162 C 
ATOM     14  O   UNL     1      -1.760   1.094   2.479  0.00  0.00    -0.292 OA
ATOM     15  C   UNL     1      -1.764   3.053   3.777  0.00  0.00    +0.088 C 
ATOM     16  H   UNL     1      -0.797   5.928   0.064  0.00  0.00    +0.153 HD
ENDROOT
BRANCH   1  20
ATOM     17  C   UNL     1      -2.396   6.720   7.123  0.00  0.00    +0.161 A 
ATOM     18  C   UNL     1      -1.200   6.190   6.666  0.00  0.00    +0.049 A 
ATOM     19  C   UNL     1      -1.172   5.455   5.495  0.00  0.00    +0.008 A 
ATOM     20  C   UNL     1      -2.333   5.258   4.772  0.00  0.00    -0.040 A 
ATOM     21  C   UNL     1      -3.530   5.784   5.222  0.00  0.00    +0.053 A 
ATOM     22  C   UNL     1      -3.566   6.516   6.397  0.00  0.00    +0.162 A 
BRANCH  17  24
ATOM     23  C   UNL     1      -1.187   7.607   8.969  0.00  0.00    +0.277 C 
ATOM     24  O   UNL     1      -2.426   7.438   8.277  0.00  0.00    -0.491 OA
ENDBRANCH  17  24
BRANCH  22  25
ATOM     25  O   UNL     1      -4.742   7.034   6.842  0.00  0.00    -0.491 OA
ATOM     26  C   UNL     1      -5.903   6.784   6.046  0.00  0.00    +0.277 C 
ENDBRANCH  22  25
ENDBRANCH   1  20
BRANCH   5  27
ATOM     27  C   UNL     1      -0.017   1.378   0.010  0.00  0.00    -0.035 A 
ATOM     28  C   UNL     1       1.170   2.088   0.002  0.00  0.00    +0.008 A 
ATOM     29  C   UNL     1       2.377   1.417  -0.013  0.00  0.00    +0.046 A 
ATOM     30  C   UNL     1       2.399   0.030  -0.021  0.00  0.00    +0.117 A 
ATOM     31  C   UNL     1       1.207  -0.680  -0.014  0.00  0.00    +0.046 A 
ATOM     32  C   UNL     1       0.002  -0.004   0.002  0.00  0.00    +0.008 A 
BRANCH  30  33
ATOM     33  O   UNL     1       3.586  -0.632  -0.037  0.00  0.00    -0.507 OA
ATOM     34  H   UNL     1       3.920  -0.818  -0.925  0.00  0.00    +0.292 HD
ENDBRANCH  30  33
ENDBRANCH   5  27
BRANCH  11  35
ATOM     35  O   UNL     1      -1.821   1.360  -3.000  0.00  0.00    -0.491 OA
ATOM     36  H   UNL     1      -1.956   1.388  -3.991  0.00  0.00    +0.294 HD
ENDBRANCH  11  35
TORSDOF 6
