REMARK  Name = ZINC04237029
REMARK  13 active torsions:
REMARK  status: ('A' for Active; 'I' for Inactive)
REMARK    1  A    between atoms: C_1  and  C_2
REMARK    2  A    between atoms: C_2  and  C_3
REMARK    3  A    between atoms: C_3  and  C_4
REMARK    4  A    between atoms: C_4  and  C_5
REMARK    5  A    between atoms: C_5  and  C_6
REMARK    6  A    between atoms: C_17  and  C_36
REMARK    7  A    between atoms: C_18  and  C_20
REMARK    8  A    between atoms: C_20  and  C_21
REMARK    9  A    between atoms: N_23  and  C_24
REMARK   10  A    between atoms: C_29  and  O_35
REMARK   11  A    between atoms: C_31  and  C_32
REMARK   12  A    between atoms: C_31  and  C_33
REMARK   13  A    between atoms: C_33  and  O_34
REMARK                            x       y       z     vdW  Elec       q    Type
REMARK                         _______ _______ _______ _____ _____    ______ ____
ROOT
ATOM      1  C   UNL     1       5.528   9.952   1.422  0.00  0.00    +0.219 C 
ATOM      2  O   UNL     1       4.459  10.163   0.888  0.00  0.00    -0.275 OA
ATOM      3  N   UNL     1       5.912   8.687   1.684  0.00  0.00    -0.265 N 
ATOM      4  C   UNL     1       5.084   7.624   1.343  0.00  0.00    +0.165 A 
ATOM      5  N   UNL     1       5.280   6.334   1.515  0.00  0.00    -0.229 NA
ATOM      6  C   UNL     1       4.388   5.423   1.133  0.00  0.00    +0.058 A 
ATOM      7  C   UNL     1       3.257   5.904   0.554  0.00  0.00    +0.015 A 
ATOM      8  S   UNL     1       3.522   7.657   0.580  0.00  0.00    -0.057 S 
ATOM      9  C   UNL     1       2.099   5.127   0.037  0.00  0.00    +0.049 C 
ATOM     10  C   UNL     1       2.502   3.644  -0.082  0.00  0.00    +0.011 C 
ATOM     11  C   UNL     1       3.217   3.219   1.202  0.00  0.00    -0.019 C 
ATOM     12  C   UNL     1       4.576   3.924   1.310  0.00  0.00    +0.054 C 
ATOM     13  C   UNL     1       3.484   1.710   1.182  0.00  0.00    +0.010 C 
ATOM     14  C   UNL     1       2.174   0.941   1.026  0.00  0.00    +0.032 C 
ATOM     15  C   UNL     1       1.521   1.343  -0.300  0.00  0.00    +0.123 C 
ATOM     16  C   UNL     1       1.212   2.838  -0.261  0.00  0.00    +0.021 C 
ATOM     17  C   UNL     1       0.539   3.250  -1.572  0.00  0.00    +0.016 C 
ATOM     18  C   UNL     1       2.355   3.580   2.414  0.00  0.00    +0.012 C 
ATOM     19  H   UNL     1       6.766   8.519   2.111  0.00  0.00    +0.157 HD
ENDROOT
BRANCH  15  20
ATOM     20  O   UNL     1       0.309   0.607  -0.480  0.00  0.00    -0.391 OA
ATOM     21  H   UNL     1       0.433  -0.352  -0.513  0.00  0.00    +0.210 HD
ENDBRANCH  15  20
BRANCH   1  22
ATOM     22  C   UNL     1       6.426  11.104   1.792  0.00  0.00    +0.096 C 
BRANCH  22  23
ATOM     23  C   UNL     1       5.758  12.421   1.388  0.00  0.00    +0.009 C 
BRANCH  23  24
ATOM     24  C   UNL     1       6.670  13.591   1.764  0.00  0.00    +0.000 C 
BRANCH  24  26
ATOM     25  C   UNL     1       6.914  16.077   1.736  0.00  0.00    +0.004 C 
ATOM     26  C   UNL     1       6.003  14.907   1.360  0.00  0.00    -0.003 C 
ENDBRANCH  24  26
ENDBRANCH  23  24
ENDBRANCH  22  23
ENDBRANCH   1  22
BRANCH  12  27
ATOM     27  C   UNL     1       5.187   3.647   2.685  0.00  0.00    +0.106 C 
BRANCH  27  28
ATOM     28  C   UNL     1       6.600   4.170   2.722  0.00  0.00    +0.214 C 
ATOM     29  O   UNL     1       7.072   4.711   1.744  0.00  0.00    -0.276 OA
ATOM     30  N   UNL     1       7.339   4.036   3.841  0.00  0.00    -0.312 N 
ATOM     31  H   UNL     1       6.962   3.603   4.622  0.00  0.00    +0.149 HD
BRANCH  30  32
ATOM     32  C   UNL     1       8.713   4.544   3.876  0.00  0.00    +0.073 C 
ATOM     33  C   UNL     1       9.779   3.653   4.515  0.00  0.00    +0.024 C 
ATOM     34  C   UNL     1       9.296   4.908   5.243  0.00  0.00    +0.024 C 
ENDBRANCH  30  32
ENDBRANCH  27  28
ENDBRANCH  12  27
BRANCH  16  35
ATOM     35  C   UNL     1       0.266   3.129   0.906  0.00  0.00    +0.165 C 
BRANCH  35  36
ATOM     36  O   UNL     1      -1.003   2.523   0.653  0.00  0.00    -0.394 OA
ATOM     37  H   UNL     1      -1.654   2.667   1.353  0.00  0.00    +0.209 HD
ENDBRANCH  35  36
ENDBRANCH  16  35
TORSDOF 10
