REMARK  Name = ZINC39944835
REMARK  10 active torsions:
REMARK  status: ('A' for Active; 'I' for Inactive)
REMARK    1  A    between atoms: C_1  and  C_2
REMARK    2  A    between atoms: C_2  and  C_4
REMARK    3  A    between atoms: C_2  and  C_10
REMARK    4  A    between atoms: C_4  and  C_5
REMARK    5  A    between atoms: C_5  and  C_6
REMARK    6  A    between atoms: C_6  and  C_7
REMARK    7  A    between atoms: C_7  and  C_8
REMARK    8  A    between atoms: C_7  and  C_9
REMARK    9  A    between atoms: C_16  and  C_36
REMARK   10  A    between atoms: C_27  and  C_35
REMARK                            x       y       z     vdW  Elec       q    Type
REMARK                         _______ _______ _______ _____ _____    ______ ____
ROOT
ATOM      1  C   UNL     1      -1.319  -0.720   0.192  0.00  0.00    -0.002 C 
ATOM      2  C   UNL     1      -0.899  -2.199   0.412  0.00  0.00    +0.004 C 
ATOM      3  C   UNL     1      -1.307  -2.969  -0.877  0.00  0.00    +0.004 C 
ATOM      4  C   UNL     1      -1.467  -1.831  -1.899  0.00  0.00    -0.001 C 
ATOM      5  C   UNL     1      -2.220  -0.779  -1.058  0.00  0.00    -0.026 C 
ATOM      6  C   UNL     1      -2.401   0.495  -1.830  0.00  0.00    +0.007 C 
ATOM      7  C   UNL     1      -2.936   0.238  -3.246  0.00  0.00    +0.005 C 
ATOM      8  C   UNL     1      -3.306  -1.211  -3.495  0.00  0.00    -0.001 C 
ATOM      9  C   UNL     1      -2.153  -2.163  -3.188  0.00  0.00    -0.004 C 
ATOM     10  C   UNL     1      -2.676  -3.599  -3.236  0.00  0.00    +0.004 C 
ATOM     11  C   UNL     1      -3.206  -3.878  -4.647  0.00  0.00    +0.005 C 
ATOM     12  C   UNL     1      -3.038  -2.643  -5.528  0.00  0.00    +0.002 C 
ATOM     13  C   UNL     1      -3.767  -1.435  -4.944  0.00  0.00    -0.024 C 
ATOM     14  C   UNL     1      -3.470  -0.194  -5.782  0.00  0.00    +0.029 C 
ATOM     15  C   UNL     1      -3.963  -0.381  -7.220  0.00  0.00    +0.123 C 
ATOM     16  C   UNL     1      -3.426  -1.682  -7.771  0.00  0.00    +0.147 C 
ATOM     17  O   UNL     1      -2.903  -1.718  -8.860  0.00  0.00    -0.296 OA
ATOM     18  C   UNL     1      -3.555  -2.939  -6.940  0.00  0.00    +0.079 C 
ATOM     19 BR   UNL     1      -3.319   1.112  -8.329  0.00  0.00    -0.080 Br
ATOM     20  C   UNL     1      -5.280  -1.684  -4.918  0.00  0.00    +0.012 C 
ATOM     21  C   UNL     1      -3.575  -1.298  -0.556  0.00  0.00    +0.012 C 
ENDROOT
BRANCH   1  23
ATOM     22  C   UNL     1       0.779   0.129   1.235  0.00  0.00    +0.008 C 
ATOM     23  C   UNL     1      -0.091   0.153  -0.023  0.00  0.00    -0.010 C 
BRANCH  23  24
ATOM     24  C   UNL     1       0.714  -0.383  -1.210  0.00  0.00    +0.003 C 
BRANCH  24  25
ATOM     25  C   UNL     1       2.078   0.308  -1.253  0.00  0.00    +0.001 C 
BRANCH  25  26
ATOM     26  C   UNL     1       2.883  -0.228  -2.439  0.00  0.00    +0.003 C 
BRANCH  26  27
ATOM     27  C   UNL     1       4.248   0.463  -2.483  0.00  0.00    -0.017 C 
ATOM     28  C   UNL     1       5.054   0.079  -1.240  0.00  0.00    +0.007 C 
ATOM     29  C   UNL     1       5.003   0.021  -3.738  0.00  0.00    +0.007 C 
ENDBRANCH  26  27
ENDBRANCH  25  26
ENDBRANCH  24  25
ENDBRANCH  23  24
ENDBRANCH   1  23
TORSDOF 5
