REMARK  Name = ZINC40095137
REMARK  10 active torsions:
REMARK  status: ('A' for Active; 'I' for Inactive)
REMARK    1  A    between atoms: C_1  and  C_2
REMARK    2  A    between atoms: C_7  and  C_12
REMARK    3  A    between atoms: C_12  and  C_14
REMARK    4  A    between atoms: N_18  and  C_29
REMARK    5  A    between atoms: C_19  and  C_21
REMARK    6  A    between atoms: C_29  and  C_30
REMARK    7  A    between atoms: C_30  and  O_31
REMARK    8  A    between atoms: O_31  and  C_32
REMARK    9  A    between atoms: C_32  and  C_33
REMARK   10  A    between atoms: C_33  and  O_34
REMARK                            x       y       z     vdW  Elec       q    Type
REMARK                         _______ _______ _______ _____ _____    ______ ____
ROOT
ATOM      1  C   UNL     1      -2.182  -6.342   3.380  0.00  0.00    +0.076 C 
ATOM      2  C   UNL     1      -2.716  -7.543   3.704  0.00  0.00    +0.249 C 
ATOM      3  C   UNL     1      -1.760  -8.288   4.549  0.00  0.00    +0.288 C 
ATOM      4  O   UNL     1      -1.949  -9.400   5.001  0.00  0.00    -0.266 OA
ATOM      5  N   UNL     1      -0.650  -7.554   4.743  0.00  0.00    -0.281 N 
ATOM      6  C   UNL     1      -0.818  -6.284   4.026  0.00  0.00    +0.146 C 
ATOM      7  O   UNL     1      -3.933  -7.990   3.315  0.00  0.00    -0.282 OA
ENDROOT
BRANCH   6   8
ATOM      8  C   UNL     1      -0.753  -5.133   4.997  0.00  0.00    -0.004 A 
ATOM      9  C   UNL     1      -1.049  -5.336   6.331  0.00  0.00    +0.008 A 
ATOM     10  C   UNL     1      -0.990  -4.281   7.222  0.00  0.00    +0.020 A 
ATOM     11  C   UNL     1      -0.633  -3.020   6.777  0.00  0.00    +0.042 A 
ATOM     12  C   UNL     1      -0.336  -2.816   5.442  0.00  0.00    +0.040 A 
ATOM     13  C   UNL     1      -0.391  -3.873   4.552  0.00  0.00    +0.048 A 
ATOM     14 CL   UNL     1      -0.012  -3.620   2.877  0.00  0.00    -0.083 Cl
ATOM     15 CL   UNL     1      -0.558  -1.694   7.896  0.00  0.00    -0.083 Cl
ENDBRANCH   6   8
BRANCH   1  16
ATOM     16  C   UNL     1      -2.805  -5.301   2.557  0.00  0.00    +0.195 C 
ATOM     17  O   UNL     1      -3.281  -4.312   3.083  0.00  0.00    -0.287 OA
BRANCH  16  23
ATOM     18  C   UNL     1      -3.958  -4.070  -4.654  0.00  0.00    +0.052 C 
ATOM     19  C   UNL     1      -4.208  -4.829  -3.349  0.00  0.00    +0.175 C 
ATOM     20  C   UNL     1      -4.252  -3.854  -2.149  0.00  0.00    +0.083 C 
ATOM     21  C   UNL     1      -3.590  -4.672  -1.056  0.00  0.00    -0.002 A 
ATOM     22  C   UNL     1      -3.550  -4.523   0.308  0.00  0.00    +0.019 A 
ATOM     23  C   UNL     1      -2.855  -5.452   1.089  0.00  0.00    +0.023 A 
ATOM     24  C   UNL     1      -2.208  -6.526   0.469  0.00  0.00    +0.015 A 
ATOM     25  C   UNL     1      -2.252  -6.663  -0.898  0.00  0.00    +0.046 A 
ATOM     26  C   UNL     1      -2.942  -5.734  -1.680  0.00  0.00    +0.124 A 
ATOM     27  O   UNL     1      -3.093  -5.679  -3.033  0.00  0.00    -0.488 OA
ENDBRANCH  16  23
ENDBRANCH   1  16
BRANCH   5  28
ATOM     28  C   UNL     1       0.522  -7.953   5.527  0.00  0.00    +0.137 C 
BRANCH  28  29
ATOM     29  C   UNL     1       1.521  -8.673   4.619  0.00  0.00    +0.179 C 
BRANCH  29  30
ATOM     30  O   UNL     1       2.016  -7.760   3.637  0.00  0.00    -0.376 OA
BRANCH  30  31
ATOM     31  C   UNL     1       2.962  -8.335   2.733  0.00  0.00    +0.187 C 
BRANCH  31  32
ATOM     32  C   UNL     1       3.421  -7.273   1.732  0.00  0.00    +0.184 C 
BRANCH  32  33
ATOM     33  O   UNL     1       4.135  -6.245   2.422  0.00  0.00    -0.393 OA
ATOM     34  H   UNL     1       4.456  -5.536   1.848  0.00  0.00    +0.209 HD
ENDBRANCH  32  33
ENDBRANCH  31  32
ENDBRANCH  30  31
ENDBRANCH  29  30
ENDBRANCH  28  29
ENDBRANCH   5  28
TORSDOF 9
