REMARK  Name = ZINC12297499
REMARK  10 active torsions:
REMARK  status: ('A' for Active; 'I' for Inactive)
REMARK    1  A    between atoms: C_1  and  C_2
REMARK    2  A    between atoms: C_6  and  N_9
REMARK    3  A    between atoms: C_7  and  C_8
REMARK    4  A    between atoms: C_14  and  N_63
REMARK    5  A    between atoms: C_19  and  C_20
REMARK    6  A    between atoms: C_19  and  N_63
REMARK    7  A    between atoms: C_23  and  O_32
REMARK    8  A    between atoms: C_24  and  C_26
REMARK    9  A    between atoms: C_26  and  N_27
REMARK   10  A    between atoms: O_32  and  C_33
REMARK                            x       y       z     vdW  Elec       q    Type
REMARK                         _______ _______ _______ _____ _____    ______ ____
ROOT
ATOM      1  N   UNL     1      -0.338  -4.190   1.849  0.00  0.00    +0.386 N 
ATOM      2  H   UNL     1      -1.033  -4.795   2.302  0.00  0.00    -0.085 HD
ATOM      3  H   UNL     1       0.099  -3.583   2.552  0.00  0.00    -0.085 HD
ENDROOT
BRANCH   1   9
ATOM      4  N   UNL     1       0.238   0.025   0.317  0.00  0.00    -0.236 N 
ATOM      5  C   UNL     1      -0.762  -0.854   0.512  0.00  0.00    +0.047 A 
ATOM      6  C   UNL     1      -0.213  -2.092   0.609  0.00  0.00    -0.020 A 
ATOM      7  C   UNL     1       1.167  -1.963   0.467  0.00  0.00    +0.137 A 
ATOM      8  N   UNL     1       1.442  -0.694   0.285  0.00  0.00    -0.174 NA
ATOM      9  C   UNL     1      -1.007  -3.355   0.834  0.00  0.00    -0.037 C 
ATOM     10  C   UNL     1      -2.403  -2.965   1.337  0.00  0.00    -0.011 C 
ATOM     11  C   UNL     1      -2.997  -1.894   0.417  0.00  0.00    +0.005 C 
ATOM     12  C   UNL     1      -2.240  -0.574   0.612  0.00  0.00    +0.056 C 
BRANCH   4  18
ATOM     13  C   UNL     1       1.606   4.578   1.579  0.00  0.00    +0.044 C 
ATOM     14  C   UNL     1       0.751   3.641   0.765  0.00  0.00    -0.046 A 
ATOM     15  C   UNL     1      -0.171   4.149  -0.131  0.00  0.00    +0.004 A 
ATOM     16  C   UNL     1      -0.958   3.293  -0.879  0.00  0.00    +0.002 A 
ATOM     17  C   UNL     1      -0.821   1.926  -0.737  0.00  0.00    +0.028 A 
ATOM     18  C   UNL     1       0.100   1.412   0.166  0.00  0.00    +0.069 A 
ATOM     19  C   UNL     1       0.889   2.275   0.916  0.00  0.00    -0.022 A 
ATOM     20  C   UNL     1       1.895   1.722   1.892  0.00  0.00    +0.046 C 
ENDBRANCH   4  18
ENDBRANCH   1   9
BRANCH   1  21
ATOM     21  C   UNL     1       0.699  -5.029   1.218  0.00  0.00    -0.046 C 
BRANCH  21  22
ATOM     22  C   UNL     1       1.365  -5.870   2.276  0.00  0.00    -0.064 A 
ATOM     23  C   UNL     1       0.861  -7.121   2.583  0.00  0.00    +0.005 A 
ATOM     24  C   UNL     1       1.470  -7.894   3.552  0.00  0.00    +0.046 A 
ATOM     25  C   UNL     1       2.587  -7.414   4.219  0.00  0.00    +0.125 A 
ATOM     26  C   UNL     1       3.091  -6.159   3.911  0.00  0.00    +0.016 A 
ATOM     27  C   UNL     1       2.482  -5.392   2.936  0.00  0.00    +0.010 A 
BRANCH  25  28
ATOM     28  O   UNL     1       3.188  -8.173   5.173  0.00  0.00    -0.495 OA
ATOM     29  C   UNL     1       2.616  -9.455   5.438  0.00  0.00    +0.277 C 
ENDBRANCH  25  28
BRANCH  26  30
ATOM     30  C   UNL     1       4.305  -5.635   4.633  0.00  0.00    +0.182 C 
BRANCH  30  31
ATOM     31  N   UNL     1       5.517  -6.128   3.973  0.00  0.00    -0.267 N 
ATOM     32  C   UNL     1       6.527  -5.370   3.499  0.00  0.00    +0.108 A 
ATOM     33  C   UNL     1       7.454  -6.202   2.969  0.00  0.00    +0.041 A 
ATOM     34  C   UNL     1       6.989  -7.513   3.116  0.00  0.00    +0.134 A 
ATOM     35  N   UNL     1       5.828  -7.470   3.718  0.00  0.00    -0.179 NA
ENDBRANCH  30  31
ENDBRANCH  26  30
ENDBRANCH  21  22
ENDBRANCH   1  21
TORSDOF 7
