REMARK  Name = ZINC59385374
REMARK  7 active torsions:
REMARK  status: ('A' for Active; 'I' for Inactive)
REMARK    1  A    between atoms: C_1  and  C_2
REMARK    2  A    between atoms: C_3  and  C_18
REMARK    3  A    between atoms: C_4  and  C_10
REMARK    4  A    between atoms: C_15  and  O_16
REMARK    5  A    between atoms: O_16  and  C_17
REMARK    6  A    between atoms: N_20  and  N_21
REMARK    7  A    between atoms: C_22  and  C_23
REMARK                            x       y       z     vdW  Elec       q    Type
REMARK                         _______ _______ _______ _____ _____    ______ ____
ROOT
ATOM      1  C   UNL     1       0.420   1.350   0.268  0.00  0.00    +0.061 C 
ATOM      2  C   UNL     1       0.261  -0.139   0.099  0.00  0.00    +0.017 C 
ATOM      3  C   UNL     1      -0.976  -0.681   0.113  0.00  0.00    +0.057 C 
ATOM      4  C   UNL     1      -1.091  -2.182  -0.061  0.00  0.00    +0.143 C 
ATOM      5  N   UNL     1       0.165  -2.932  -0.232  0.00  0.00    -0.315 N 
ATOM      6  C   UNL     1       1.327  -2.248  -0.224  0.00  0.00    +0.135 C 
ATOM      7  S   UNL     1       2.794  -3.107  -0.422  0.00  0.00    -0.019 S 
ATOM      8  N   UNL     1       1.370  -0.918  -0.071  0.00  0.00    -0.300 N 
ATOM      9  H   UNL     1       0.157  -3.895  -0.348  0.00  0.00    +0.149 HD
ATOM     10  H   UNL     1       2.237  -0.485  -0.078  0.00  0.00    +0.154 HD
ENDROOT
BRANCH   4  11
ATOM     11  C   UNL     1      -1.956  -2.445  -1.266  0.00  0.00    +0.019 A 
ATOM     12  C   UNL     1      -2.164  -1.447  -2.199  0.00  0.00    +0.009 A 
ATOM     13  C   UNL     1      -2.958  -1.687  -3.305  0.00  0.00    +0.001 A 
ATOM     14  C   UNL     1      -3.546  -2.927  -3.481  0.00  0.00    +0.004 A 
ATOM     15  C   UNL     1      -3.341  -3.928  -2.551  0.00  0.00    +0.046 A 
ATOM     16  C   UNL     1      -2.540  -3.690  -1.443  0.00  0.00    +0.125 A 
BRANCH  16  17
ATOM     17  O   UNL     1      -2.332  -4.675  -0.530  0.00  0.00    -0.495 OA
ATOM     18  C   UNL     1      -2.872  -5.964  -0.832  0.00  0.00    +0.277 C 
ENDBRANCH  16  17
ENDBRANCH   4  11
BRANCH   3  19
ATOM     19  C   UNL     1      -2.126   0.127   0.285  0.00  0.00    +0.263 C 
ATOM     20  O   UNL     1      -2.007   1.321   0.489  0.00  0.00    -0.269 OA
ATOM     21  N   UNL     1      -3.354  -0.427   0.222  0.00  0.00    -0.203 N 
ATOM     22  H   UNL     1      -3.448  -1.389   0.141  0.00  0.00    +0.178 HD
BRANCH  21  23
ATOM     23  N   UNL     1      -4.493   0.387   0.274  0.00  0.00    -0.187 NA
ATOM     24  C   UNL     1      -5.673  -0.151   0.312  0.00  0.00    +0.138 C 
BRANCH  24  25
ATOM     25  C   UNL     1      -6.875   0.702   0.256  0.00  0.00    -0.004 A 
ATOM     26  C   UNL     1      -6.745   2.090   0.156  0.00  0.00    +0.009 A 
ATOM     27  C   UNL     1      -7.873   2.882   0.103  0.00  0.00    +0.002 A 
ATOM     28  C   UNL     1      -9.130   2.307   0.149  0.00  0.00    +0.020 A 
ATOM     29  C   UNL     1      -9.267   0.933   0.248  0.00  0.00    +0.042 A 
ATOM     30  C   UNL     1      -8.146   0.127   0.296  0.00  0.00    +0.029 A 
ATOM     31 CL   UNL     1     -10.849   0.221   0.306  0.00  0.00    -0.084 Cl
ENDBRANCH  24  25
ENDBRANCH  21  23
ENDBRANCH   3  19
TORSDOF 5
