REMARK  Name = ZINC18049234
REMARK  9 active torsions:
REMARK  status: ('A' for Active; 'I' for Inactive)
REMARK    1  A    between atoms: C_1  and  C_2
REMARK    2  A    between atoms: C_2  and  C_3
REMARK    3  A    between atoms: C_3  and  C_4
REMARK    4  A    between atoms: C_5  and  C_25
REMARK    5  A    between atoms: C_7  and  C_9
REMARK    6  A    between atoms: N_11  and  C_12
REMARK    7  A    between atoms: C_12  and  C_13
REMARK    8  A    between atoms: N_15  and  C_16
REMARK    9  A    between atoms: C_25  and  C_26
REMARK                            x       y       z     vdW  Elec       q    Type
REMARK                         _______ _______ _______ _____ _____    ______ ____
ROOT
ATOM      1  C   UNL     1       3.895   7.507   0.427  0.00  0.00    +0.251 C 
ATOM      2  O   UNL     1       2.959   8.283   0.459  0.00  0.00    -0.270 OA
ATOM      3  N   UNL     1       3.669   6.183   0.312  0.00  0.00    -0.302 N 
ATOM      4  H   UNL     1       4.416   5.564   0.286  0.00  0.00    +0.150 HD
ENDROOT
BRANCH   1   8
ATOM      5  C   UNL     1       7.899   8.438   0.638  0.00  0.00    -0.006 A 
ATOM      6  C   UNL     1       7.071   9.513   0.697  0.00  0.00    -0.037 A 
ATOM      7  C   UNL     1       5.714   9.318   0.635  0.00  0.00    +0.024 A 
ATOM      8  C   UNL     1       5.269   8.011   0.514  0.00  0.00    +0.074 A 
ATOM      9  S   UNL     1       6.804   7.101   0.499  0.00  0.00    -0.088 S 
BRANCH   6  10
ATOM     10  C   UNL     1       7.636  10.904   0.829  0.00  0.00    +0.032 C 
ATOM     11  C   UNL     1       7.993  11.444  -0.557  0.00  0.00    +0.009 C 
ENDBRANCH   6  10
BRANCH   5  12
ATOM     12  C   UNL     1       9.405   8.412   0.687  0.00  0.00    +0.042 C 
BRANCH  12  14
ATOM     13  C   UNL     1      11.395   8.261   2.190  0.00  0.00    +0.004 C 
ATOM     14  C   UNL     1       9.866   8.287   2.140  0.00  0.00    +0.002 C 
ENDBRANCH  12  14
ENDBRANCH   5  12
ENDBRANCH   1   8
BRANCH   3  15
ATOM     15  C   UNL     1       2.296   5.679   0.225  0.00  0.00    +0.200 C 
BRANCH  15  16
ATOM     16  C   UNL     1       2.319   4.177   0.104  0.00  0.00    +0.234 C 
ATOM     17  O   UNL     1       3.378   3.586   0.091  0.00  0.00    -0.274 OA
ATOM     18  N   UNL     1       1.163   3.491   0.009  0.00  0.00    -0.282 N 
ATOM     19  H   UNL     1       0.321   3.967  -0.061  0.00  0.00    +0.155 HD
BRANCH  18  20
ATOM     20  C   UNL     1       1.178   2.090   0.013  0.00  0.00    +0.072 A 
ATOM     21  C   UNL     1       2.230   1.407   0.608  0.00  0.00    +0.029 A 
ATOM     22  C   UNL     1       2.244   0.026   0.611  0.00  0.00    +0.043 A 
ATOM     23  C   UNL     1       1.210  -0.680   0.022  0.00  0.00    +0.161 A 
ATOM     24  C   UNL     1       0.156  -0.003  -0.574  0.00  0.00    +0.195 A 
ATOM     25  C   UNL     1       0.139   1.381  -0.579  0.00  0.00    +0.182 A 
ATOM     26  F   UNL     1      -0.884   2.043  -1.163  0.00  0.00    -0.200 F 
ATOM     27  F   UNL     1      -0.852  -0.694  -1.149  0.00  0.00    -0.199 F 
ATOM     28  F   UNL     1       1.226  -2.031   0.026  0.00  0.00    -0.202 F 
ENDBRANCH  18  20
ENDBRANCH  15  16
ENDBRANCH   3  15
TORSDOF 7
