REMARK  Name = ZINC57875802
REMARK  11 active torsions:
REMARK  status: ('A' for Active; 'I' for Inactive)
REMARK    1  A    between atoms: C_1  and  C_2
REMARK    2  A    between atoms: C_6  and  C_28
REMARK    3  A    between atoms: C_7  and  N_8
REMARK    4  A    between atoms: C_9  and  C_13
REMARK    5  A    between atoms: C_13  and  S_14
REMARK    6  A    between atoms: S_14  and  C_17
REMARK    7  A    between atoms: C_18  and  C_27
REMARK    8  A    between atoms: C_19  and  C_26
REMARK    9  A    between atoms: C_20  and  C_25
REMARK   10  A    between atoms: C_21  and  C_24
REMARK   11  A    between atoms: C_22  and  C_23
REMARK                            x       y       z     vdW  Elec       q    Type
REMARK                         _______ _______ _______ _____ _____    ______ ____
ROOT
ATOM      1  C   UNL     1       0.598  -1.617   5.026  0.00  0.00    +0.249 C 
ENDROOT
BRANCH   1   3
ATOM      2  N   UNL     1      -0.332   0.465   3.881  0.00  0.00    -0.195 N 
ATOM      3  C   UNL     1       0.386  -0.135   4.856  0.00  0.00    +0.178 A 
ATOM      4  N   UNL     1       0.861   0.809   5.625  0.00  0.00    -0.111 NA
ATOM      5  N   UNL     1       0.494   1.965   5.203  0.00  0.00    -0.023 NA
ATOM      6  N   UNL     1      -0.230   1.843   4.143  0.00  0.00    -0.039 NA
BRANCH   2  13
ATOM      7  C   UNL     1      -2.802  -0.822   4.470  0.00  0.00    +0.046 C 
ATOM      8  C   UNL     1      -2.233  -0.792   3.075  0.00  0.00    -0.025 A 
ATOM      9  C   UNL     1      -2.916  -1.395   2.037  0.00  0.00    +0.005 A 
ATOM     10  C   UNL     1      -2.395  -1.368   0.756  0.00  0.00    +0.001 A 
ATOM     11  C   UNL     1      -1.189  -0.738   0.511  0.00  0.00    +0.005 A 
ATOM     12  C   UNL     1      -0.501  -0.133   1.545  0.00  0.00    -0.025 A 
ATOM     13  C   UNL     1      -1.025  -0.153   2.830  0.00  0.00    +0.075 A 
ATOM     14  C   UNL     1       0.814   0.553   1.277  0.00  0.00    +0.046 C 
ENDBRANCH   2  13
ENDBRANCH   1   3
BRANCH   1  15
ATOM     15  S   UNL     1       2.176  -2.093   4.268  0.00  0.00    +0.005 S 
ATOM     16  O   UNL     1       2.118  -1.907   2.860  0.00  0.00    -0.169 OA
ATOM     17  O   UNL     1       3.259  -1.571   5.024  0.00  0.00    -0.169 OA
BRANCH  15  18
ATOM     18  C   UNL     1       2.275  -3.839   4.487  0.00  0.00    +0.095 A 
ATOM     19  C   UNL     1       2.082  -4.683   3.410  0.00  0.00    -0.022 A 
ATOM     20  C   UNL     1       2.160  -6.052   3.582  0.00  0.00    -0.043 A 
ATOM     21  C   UNL     1       2.432  -6.577   4.831  0.00  0.00    -0.044 A 
ATOM     22  C   UNL     1       2.626  -5.733   5.908  0.00  0.00    -0.043 A 
ATOM     23  C   UNL     1       2.552  -4.364   5.736  0.00  0.00    -0.022 A 
ATOM     24  C   UNL     1       2.769  -3.443   6.909  0.00  0.00    +0.046 C 
ATOM     25  C   UNL     1       2.922  -6.306   7.271  0.00  0.00    +0.044 C 
ATOM     26  C   UNL     1       2.516  -8.070   5.019  0.00  0.00    +0.044 C 
ATOM     27  C   UNL     1       1.948  -6.972   2.407  0.00  0.00    +0.044 C 
ATOM     28  C   UNL     1       1.785  -4.110   2.047  0.00  0.00    +0.046 C 
ENDBRANCH  15  18
ENDBRANCH   1  15
TORSDOF 4
