REMARK  Name = ZINC09271400
REMARK  13 active torsions:
REMARK  status: ('A' for Active; 'I' for Inactive)
REMARK    1  A    between atoms: C_1  and  C_2
REMARK    2  A    between atoms: C_2  and  N_61
REMARK    3  A    between atoms: C_3  and  C_4
REMARK    4  A    between atoms: C_3  and  N_61
REMARK    5  A    between atoms: C_5  and  C_6
REMARK    6  A    between atoms: C_5  and  N_61
REMARK    7  A    between atoms: C_6  and  C_7
REMARK    8  A    between atoms: C_7  and  N_8
REMARK    9  A    between atoms: C_9  and  C_27
REMARK   10  A    between atoms: C_12  and  C_13
REMARK   11  A    between atoms: C_12  and  O_22
REMARK   12  A    between atoms: C_16  and  O_20
REMARK   13  A    between atoms: O_20  and  C_21
REMARK                            x       y       z     vdW  Elec       q    Type
REMARK                         _______ _______ _______ _____ _____    ______ ____
ROOT
ATOM      1  N   UNL     1      -1.644  -4.515  -0.089  0.00  0.00    -0.284 N 
ATOM      2  C   UNL     1      -2.187  -3.155  -0.145  0.00  0.00    +0.144 C 
ATOM      3  C   UNL     1      -1.024  -2.216   0.081  0.00  0.00    +0.071 C 
ATOM      4  C   UNL     1      -1.065  -0.835   0.108  0.00  0.00    +0.133 C 
ATOM      5  C   UNL     1       0.104  -3.029   0.264  0.00  0.00    +0.249 C 
ATOM      6  O   UNL     1       1.238  -2.639   0.477  0.00  0.00    -0.282 OA
ATOM      7  C   UNL     1      -0.324  -4.449   0.151  0.00  0.00    +0.288 C 
ATOM      8  O   UNL     1       0.412  -5.409   0.259  0.00  0.00    -0.266 OA
ENDROOT
BRANCH   4   9
ATOM      9  C   UNL     1       0.154  -0.069   0.404  0.00  0.00    +0.019 A 
ATOM     10  C   UNL     1       0.589   0.928  -0.478  0.00  0.00    +0.015 A 
ATOM     11  C   UNL     1       1.730   1.643  -0.197  0.00  0.00    +0.048 A 
ATOM     12  C   UNL     1       2.453   1.377   0.961  0.00  0.00    +0.138 A 
ATOM     13  C   UNL     1       2.026   0.388   1.841  0.00  0.00    +0.083 A 
ATOM     14  C   UNL     1       0.885  -0.333   1.569  0.00  0.00    +0.035 A 
ATOM     15 CL   UNL     1       2.933   0.062   3.285  0.00  0.00    -0.080 Cl
BRANCH  12  16
ATOM     16  O   UNL     1       3.579   2.086   1.233  0.00  0.00    -0.494 OA
ATOM     17  C   UNL     1       3.960   3.087   0.288  0.00  0.00    +0.277 C 
ENDBRANCH  12  16
ENDBRANCH   4   9
BRANCH   2  18
ATOM     18  C   UNL     1      -2.798  -2.902  -1.500  0.00  0.00    -0.022 A 
ATOM     19  C   UNL     1      -2.187  -3.398  -2.637  0.00  0.00    +0.007 A 
ATOM     20  C   UNL     1      -2.750  -3.172  -3.878  0.00  0.00    +0.020 A 
ATOM     21  C   UNL     1      -3.919  -2.440  -3.985  0.00  0.00    +0.041 A 
ATOM     22  C   UNL     1      -4.527  -1.939  -2.847  0.00  0.00    +0.020 A 
ATOM     23  C   UNL     1      -3.966  -2.171  -1.605  0.00  0.00    +0.007 A 
ATOM     24 CL   UNL     1      -4.623  -2.150  -5.545  0.00  0.00    -0.084 Cl
ENDBRANCH   2  18
BRANCH   4  25
ATOM     25  O   UNL     1      -2.226  -0.190  -0.137  0.00  0.00    -0.506 OA
ATOM     26  H   UNL     1      -2.077   0.797  -0.078  0.00  0.00    +0.292 HD
ENDBRANCH   4  25
BRANCH   1  27
ATOM     27  C   UNL     1      -2.418  -5.748  -0.259  0.00  0.00    +0.107 C 
BRANCH  27  28
ATOM     28  C   UNL     1      -2.942  -6.213   1.101  0.00  0.00    +0.000 C 
BRANCH  28  29
ATOM     29  C   UNL     1      -3.750  -7.500   0.923  0.00  0.00    -0.077 C 
BRANCH  29  30
ATOM     30  N   UNL     1      -4.267  -7.924   2.241  0.00  0.00    +0.379 N 
ATOM     31  H   UNL     1      -4.751  -7.132   2.681  0.00  0.00    -0.082 HD
BRANCH  30  33
ATOM     32  C   UNL     1      -6.561  -8.467   1.593  0.00  0.00    -0.017 C 
ATOM     33  C   UNL     1      -5.225  -9.037   2.074  0.00  0.00    -0.082 C 
ENDBRANCH  30  33
BRANCH  30  34
ATOM     34  C   UNL     1      -3.149  -8.346   3.111  0.00  0.00    -0.082 C 
ATOM     35  C   UNL     1      -3.652  -8.428   4.553  0.00  0.00    -0.017 C 
ENDBRANCH  30  34
ENDBRANCH  29  30
ENDBRANCH  28  29
ENDBRANCH  27  28
ENDBRANCH   1  27
TORSDOF 10
