REMARK  Name = ZINC56921695
REMARK  6 active torsions:
REMARK  status: ('A' for Active; 'I' for Inactive)
REMARK    1  A    between atoms: C_3  and  C_6
REMARK    2  A    between atoms: C_6  and  C_8
REMARK    3  A    between atoms: C_6  and  O_31
REMARK    4  A    between atoms: C_8  and  N_9
REMARK    5  A    between atoms: C_15  and  C_17
REMARK    6  A    between atoms: N_22  and  C_24
REMARK                            x       y       z     vdW  Elec       q    Type
REMARK                         _______ _______ _______ _____ _____    ______ ____
ROOT
ATOM      1  N   UNL     1       5.658   2.388  -1.586  0.00  0.00    -0.297 NA
ATOM      2  C   UNL     1       6.597   1.400  -1.037  0.00  0.00    +0.103 C 
ATOM      3  C   UNL     1       8.010   1.994  -1.026  0.00  0.00    +0.123 C 
ATOM      4  N   UNL     1       8.328   2.469  -2.381  0.00  0.00    -0.299 N 
ATOM      5  C   UNL     1       7.365   3.355  -3.052  0.00  0.00    +0.123 C 
ATOM      6  C   UNL     1       5.977   2.708  -2.984  0.00  0.00    +0.103 C 
ATOM      7  C   UNL     1       9.472   2.101  -2.992  0.00  0.00    +0.221 C 
ATOM      8  O   UNL     1      10.255   1.370  -2.424  0.00  0.00    -0.275 OA
ENDROOT
BRANCH   7   9
ATOM      9  C   UNL     1       9.777   2.599  -4.381  0.00  0.00    +0.102 C 
ATOM     10  C   UNL     1       9.957   4.135  -4.392  0.00  0.00    +0.110 C 
ATOM     11  C   UNL     1      11.446   4.336  -4.222  0.00  0.00    +0.221 C 
ATOM     12  O   UNL     1      11.975   5.380  -3.901  0.00  0.00    -0.275 OA
ATOM     13  N   UNL     1      12.100   3.189  -4.478  0.00  0.00    -0.271 N 
ATOM     14  C   UNL     1      11.168   2.116  -4.848  0.00  0.00    +0.127 C 
BRANCH  13  15
ATOM     15  C   UNL     1      13.489   3.038  -4.401  0.00  0.00    +0.036 A 
ATOM     16  C   UNL     1      14.277   4.080  -3.931  0.00  0.00    +0.025 A 
ATOM     17  C   UNL     1      15.648   3.928  -3.856  0.00  0.00    +0.022 A 
ATOM     18  C   UNL     1      16.236   2.739  -4.250  0.00  0.00    +0.041 A 
ATOM     19  C   UNL     1      15.453   1.699  -4.720  0.00  0.00    +0.022 A 
ATOM     20  C   UNL     1      14.081   1.844  -4.791  0.00  0.00    +0.025 A 
ATOM     21 CL   UNL     1      17.959   2.551  -4.156  0.00  0.00    -0.084 Cl
ENDBRANCH  13  15
ENDBRANCH   7   9
BRANCH   1  22
ATOM     22  C   UNL     1       4.271   1.924  -1.455  0.00  0.00    +0.121 C 
BRANCH  22  23
ATOM     23  C   UNL     1       3.322   3.121  -1.550  0.00  0.00    +0.165 C 
BRANCH  23  26
ATOM     24  C   UNL     1      -0.230   1.922  -2.227  0.00  0.00    +0.008 A 
ATOM     25  C   UNL     1       1.049   2.359  -2.517  0.00  0.00    +0.014 A 
ATOM     26  C   UNL     1       1.896   2.637  -1.496  0.00  0.00    +0.019 A 
ATOM     27  S   UNL     1       0.883   2.280  -0.069  0.00  0.00    -0.099 S 
ATOM     28  C   UNL     1      -0.600   1.785  -0.931  0.00  0.00    +0.045 A 
ENDBRANCH  23  26
BRANCH  23  29
ATOM     29  O   UNL     1       3.566   4.010  -0.458  0.00  0.00    -0.385 OA
ATOM     30  H   UNL     1       3.433   3.609   0.412  0.00  0.00    +0.210 HD
ENDBRANCH  23  29
ENDBRANCH  22  23
ENDBRANCH   1  22
TORSDOF 6
