REMARK  Name = ZINC39695952
REMARK  7 active torsions:
REMARK  status: ('A' for Active; 'I' for Inactive)
REMARK    1  A    between atoms: C_1  and  C_2
REMARK    2  A    between atoms: C_2  and  C_3
REMARK    3  A    between atoms: C_6  and  C_9
REMARK    4  A    between atoms: C_9  and  C_11
REMARK    5  A    between atoms: C_9  and  N_12
REMARK    6  A    between atoms: C_13  and  C_15
REMARK    7  A    between atoms: C_26  and  C_28
REMARK                            x       y       z     vdW  Elec       q    Type
REMARK                         _______ _______ _______ _____ _____    ______ ____
ROOT
ATOM      1  C   UNL     1       1.493  -5.015   6.884  0.00  0.00    +0.100 C 
ATOM      2  C   UNL     1       0.765  -5.838   5.797  0.00  0.00    +0.121 C 
ATOM      3  N   UNL     1       1.675  -6.972   5.513  0.00  0.00    -0.296 N 
ATOM      4  C   UNL     1       2.212  -7.356   6.841  0.00  0.00    +0.115 C 
ATOM      5  C   UNL     1       2.439  -6.016   7.569  0.00  0.00    -0.004 C 
ATOM      6  C   UNL     1       2.086  -6.151   9.046  0.00  0.00    -0.010 C 
ATOM      7  C   UNL     1       3.076  -7.106   9.719  0.00  0.00    -0.082 C 
ATOM      8  N   UNL     1       4.440  -6.586   9.567  0.00  0.00    +0.379 N 
ATOM      9  C   UNL     1       4.806  -6.547   8.146  0.00  0.00    -0.082 C 
ATOM     10  C   UNL     1       3.889  -5.568   7.407  0.00  0.00    -0.010 C 
ATOM     11  C   UNL     1       1.952  -7.529   4.317  0.00  0.00    +0.247 C 
ATOM     12  O   UNL     1       2.658  -8.517   4.256  0.00  0.00    -0.270 OA
ATOM     13  H   UNL     1       4.488  -5.654   9.951  0.00  0.00    -0.086 HD
ATOM     14  H   UNL     1       5.084  -7.184  10.062  0.00  0.00    -0.086 HD
ENDROOT
BRANCH  11  15
ATOM     15  C   UNL     1       1.399  -6.939   3.081  0.00  0.00    +0.045 A 
ATOM     16  C   UNL     1       0.031  -6.656   2.989  0.00  0.00    +0.014 A 
ATOM     17  C   UNL     1      -0.488  -6.106   1.838  0.00  0.00    +0.001 A 
ATOM     18  C   UNL     1       0.337  -5.826   0.759  0.00  0.00    +0.012 A 
ATOM     19  C   UNL     1       1.698  -6.100   0.830  0.00  0.00    +0.031 A 
ATOM     20  C   UNL     1       2.241  -6.655   1.999  0.00  0.00    +0.006 A 
ATOM     21  C   UNL     1       3.702  -6.835   1.806  0.00  0.00    -0.006 A 
ATOM     22  C   UNL     1       4.691  -7.341   2.639  0.00  0.00    +0.009 A 
ATOM     23  C   UNL     1       6.005  -7.397   2.201  0.00  0.00    +0.001 A 
ATOM     24  C   UNL     1       6.341  -6.952   0.938  0.00  0.00    +0.001 A 
ATOM     25  C   UNL     1       5.365  -6.443   0.094  0.00  0.00    +0.012 A 
ATOM     26  C   UNL     1       4.045  -6.382   0.521  0.00  0.00    +0.030 A 
ATOM     27  C   UNL     1       2.803  -5.915  -0.141  0.00  0.00    +0.194 C 
ATOM     28  O   UNL     1       2.711  -5.454  -1.260  0.00  0.00    -0.287 OA
ENDBRANCH  11  15
BRANCH   1  30
ATOM     29  N   UNL     1       2.486  -2.750   6.934  0.00  0.00    -0.308 N 
ATOM     30  C   UNL     1       2.281  -3.896   6.254  0.00  0.00    +0.219 C 
ATOM     31  O   UNL     1       2.730  -4.025   5.135  0.00  0.00    -0.275 OA
ATOM     32  H   UNL     1       2.127  -2.647   7.830  0.00  0.00    +0.149 HD
BRANCH  29  33
ATOM     33  C   UNL     1       3.252  -1.662   6.322  0.00  0.00    +0.100 C 
ATOM     34  C   UNL     1       4.746  -1.895   6.555  0.00  0.00    +0.033 C 
BRANCH  33  38
ATOM     35  C   UNL     1       2.099   2.055   8.085  0.00  0.00    -0.048 A 
ATOM     36  C   UNL     1       2.335   1.978   6.725  0.00  0.00    +0.004 A 
ATOM     37  C   UNL     1       2.708   0.776   6.155  0.00  0.00    +0.006 A 
ATOM     38  C   UNL     1       2.846  -0.350   6.944  0.00  0.00    -0.027 A 
ATOM     39  C   UNL     1       2.611  -0.274   8.304  0.00  0.00    +0.006 A 
ATOM     40  C   UNL     1       2.241   0.929   8.876  0.00  0.00    +0.004 A 
BRANCH  35  42
ATOM     41  C   UNL     1       2.942   4.137   9.134  0.00  0.00    +0.009 C 
ATOM     42  C   UNL     1       1.692   3.366   8.707  0.00  0.00    +0.032 C 
ENDBRANCH  35  42
ENDBRANCH  33  38
ENDBRANCH  29  33
ENDBRANCH   1  30
TORSDOF 5
