REMARK  Name = ZINC04620215
REMARK  6 active torsions:
REMARK  status: ('A' for Active; 'I' for Inactive)
REMARK    1  A    between atoms: C_2  and  C_23
REMARK    2  A    between atoms: C_3  and  C_21
REMARK    3  A    between atoms: C_4  and  S_17
REMARK    4  A    between atoms: C_6  and  C_7
REMARK    5  A    between atoms: S_17  and  C_18
REMARK    6  A    between atoms: C_18  and  C_19
REMARK                            x       y       z     vdW  Elec       q    Type
REMARK                         _______ _______ _______ _____ _____    ______ ____
ROOT
ATOM      1  C   UNL     1      -0.268   1.651   3.719  0.00  0.00    +0.037 A 
ATOM      2  C   UNL     1       0.397   1.191   4.843  0.00  0.00    +0.076 A 
ATOM      3  C   UNL     1       1.332   0.163   4.688  0.00  0.00    +0.095 A 
ATOM      4  C   UNL     1       1.553  -0.363   3.402  0.00  0.00    +0.116 A 
ATOM      5  N   UNL     1       0.885   0.111   2.361  0.00  0.00    -0.243 NA
ATOM      6  C   UNL     1       0.000   1.080   2.488  0.00  0.00    +0.049 A 
ENDROOT
BRANCH   6   7
ATOM      7  C   UNL     1      -0.729   1.579   1.267  0.00  0.00    +0.014 C 
ATOM      8  C   UNL     1      -0.013   1.086   0.008  0.00  0.00    +0.016 C 
ATOM      9  C   UNL     1      -0.753   1.593  -1.232  0.00  0.00    -0.010 C 
ATOM     10  C   UNL     1      -0.773   3.123  -1.223  0.00  0.00    +0.007 C 
ATOM     11  C   UNL     1      -1.490   3.616   0.036  0.00  0.00    -0.010 C 
ATOM     12  C   UNL     1      -0.750   3.109   1.275  0.00  0.00    +0.016 C 
ATOM     13  C   UNL     1      -2.925   3.086   0.047  0.00  0.00    +0.007 C 
ATOM     14  C   UNL     1      -2.904   1.556   0.038  0.00  0.00    -0.010 C 
ATOM     15  C   UNL     1      -2.188   1.063  -1.221  0.00  0.00    +0.007 C 
ATOM     16  C   UNL     1      -2.164   1.050   1.278  0.00  0.00    +0.016 C 
ENDBRANCH   6   7
BRANCH   2  17
ATOM     17  C   UNL     1       0.124   1.789   6.199  0.00  0.00    +0.419 C 
ATOM     18  F   UNL     1      -0.845   2.791   6.081  0.00  0.00    -0.166 F 
ATOM     19  F   UNL     1      -0.340   0.792   7.063  0.00  0.00    -0.166 F 
ATOM     20  F   UNL     1       1.304   2.339   6.712  0.00  0.00    -0.166 F 
ENDBRANCH   2  17
BRANCH   3  21
ATOM     21  C   UNL     1       2.052  -0.345   5.817  0.00  0.00    +0.102 C 
ATOM     22  N   UNL     1       2.622  -0.748   6.713  0.00  0.00    -0.191 NA
ENDBRANCH   3  21
BRANCH   4  23
ATOM     23  S   UNL     1       2.725  -1.660   3.175  0.00  0.00    -0.090 S 
BRANCH  23  24
ATOM     24  C   UNL     1       2.578  -1.907   1.388  0.00  0.00    +0.194 C 
BRANCH  24  25
ATOM     25  C   UNL     1       3.495  -2.977   0.964  0.00  0.00    +0.074 C 
ATOM     26  N   UNL     1       4.203  -3.803   0.636  0.00  0.00    -0.196 NA
ENDBRANCH  24  25
ENDBRANCH  23  24
ENDBRANCH   4  23
TORSDOF 6
