REMARK  Name = ZINC13065206
REMARK  11 active torsions:
REMARK  status: ('A' for Active; 'I' for Inactive)
REMARK    1  A    between atoms: C_1  and  C_2
REMARK    2  A    between atoms: C_2  and  C_3
REMARK    3  A    between atoms: C_3  and  C_5
REMARK    4  A    between atoms: C_3  and  N_73
REMARK    5  A    between atoms: N_9  and  C_10
REMARK    6  A    between atoms: C_16  and  C_17
REMARK    7  A    between atoms: C_16  and  N_73
REMARK    8  A    between atoms: C_20  and  C_30
REMARK    9  A    between atoms: C_23  and  C_29
REMARK   10  A    between atoms: C_31  and  C_32
REMARK   11  A    between atoms: C_31  and  N_73
REMARK                            x       y       z     vdW  Elec       q    Type
REMARK                         _______ _______ _______ _____ _____    ______ ____
ROOT
ATOM      1  N   UNL     1      -2.211   1.444   1.097  0.00  0.00    +0.391 N 
ATOM      2  H   UNL     1      -2.515   0.467   1.011  0.00  0.00    -0.080 HD
ENDROOT
BRANCH   1   3
ATOM      3  C   UNL     1      -1.102   1.687   0.151  0.00  0.00    +0.003 C 
BRANCH   3   4
ATOM      4  C   UNL     1      -0.463   3.025   0.418  0.00  0.00    +0.138 A 
ATOM      5  N   UNL     1      -0.232   3.561   1.592  0.00  0.00    -0.115 NA
ATOM      6  N   UNL     1       0.330   4.705   1.403  0.00  0.00    -0.023 NA
ATOM      7  N   UNL     1       0.463   4.913   0.139  0.00  0.00    -0.044 NA
ATOM      8  N   UNL     1      -0.014   3.900  -0.501  0.00  0.00    -0.228 N 
BRANCH   8   9
ATOM      9  C   UNL     1      -0.058   3.732  -1.956  0.00  0.00    +0.111 C 
ATOM     10  C   UNL     1       1.368   3.651  -2.503  0.00  0.00    +0.027 C 
ATOM     11  C   UNL     1       1.322   3.476  -4.023  0.00  0.00    +0.002 C 
ATOM     12  C   UNL     1       0.601   4.670  -4.652  0.00  0.00    +0.000 C 
ATOM     13  C   UNL     1      -0.825   4.751  -4.104  0.00  0.00    +0.002 C 
ATOM     14  C   UNL     1      -0.779   4.926  -2.585  0.00  0.00    +0.027 C 
ENDBRANCH   8   9
ENDBRANCH   3   4
BRANCH   3  16
ATOM     15  C   UNL     1      -0.689  -0.772  -0.017  0.00  0.00    +0.002 C 
ATOM     16  C   UNL     1      -0.058   0.581   0.320  0.00  0.00    -0.011 C 
ENDBRANCH   3  16
ENDBRANCH   1   3
BRANCH   1  17
ATOM     17  C   UNL     1      -3.350   2.330   0.778  0.00  0.00    -0.036 C 
BRANCH  17  18
ATOM     18  C   UNL     1      -4.096   1.753  -0.397  0.00  0.00    +0.001 A 
ATOM     19  C   UNL     1      -5.157   0.935  -0.188  0.00  0.00    +0.017 A 
ATOM     20  C   UNL     1      -5.864   0.395  -1.351  0.00  0.00    +0.002 A 
ATOM     21  C   UNL     1      -6.968  -0.451  -1.199  0.00  0.00    -0.041 A 
ATOM     22  C   UNL     1      -7.602  -0.942  -2.304  0.00  0.00    +0.004 A 
ATOM     23  C   UNL     1      -7.161  -0.610  -3.578  0.00  0.00    +0.005 A 
ATOM     24  C   UNL     1      -6.075   0.220  -3.752  0.00  0.00    -0.026 A 
ATOM     25  C   UNL     1      -5.413   0.733  -2.641  0.00  0.00    +0.052 A 
ATOM     26  N   UNL     1      -4.324   1.566  -2.786  0.00  0.00    -0.322 N 
ATOM     27  H   UNL     1      -4.015   1.798  -3.675  0.00  0.00    +0.169 HD
ATOM     28  C   UNL     1      -3.685   2.062  -1.712  0.00  0.00    +0.251 A 
ATOM     29  O   UNL     1      -2.726   2.796  -1.877  0.00  0.00    -0.268 OA
ATOM     30  C   UNL     1      -5.606   0.571  -5.141  0.00  0.00    +0.046 C 
ATOM     31  C   UNL     1      -7.455  -0.818   0.179  0.00  0.00    +0.044 C 
ENDBRANCH  17  18
ENDBRANCH   1  17
BRANCH   1  32
ATOM     32  C   UNL     1      -1.756   1.685   2.482  0.00  0.00    -0.045 C 
BRANCH  32  33
ATOM     33  C   UNL     1      -2.768   1.064   3.447  0.00  0.00    +0.102 C 
ATOM     34  C   UNL     1      -2.373   1.367   4.909  0.00  0.00    +0.032 C 
ATOM     35  C   UNL     1      -2.741   0.075   5.673  0.00  0.00    +0.030 C 
ATOM     36  C   UNL     1      -3.316  -0.855   4.582  0.00  0.00    +0.160 C 
ATOM     37  O   UNL     1      -2.738  -0.377   3.348  0.00  0.00    -0.378 OA
ENDBRANCH  32  33
ENDBRANCH   1  32
TORSDOF 8
