REMARK  Name = ZINC07203852
REMARK  5 active torsions:
REMARK  status: ('A' for Active; 'I' for Inactive)
REMARK    1  A    between atoms: C_9  and  S_19
REMARK    2  A    between atoms: N_10  and  C_13
REMARK    3  A    between atoms: S_19  and  C_20
REMARK    4  A    between atoms: C_20  and  C_21
REMARK    5  A    between atoms: C_21  and  C_22
REMARK                            x       y       z     vdW  Elec       q    Type
REMARK                         _______ _______ _______ _____ _____    ______ ____
ROOT
ATOM      1  C   UNL     1      -0.017   1.386   0.010  0.00  0.00    +0.021 A 
ATOM      2  C   UNL     1       1.149   2.100   0.002  0.00  0.00    +0.017 A 
ATOM      3  C   UNL     1       2.370   1.429  -0.013  0.00  0.00    +0.065 A 
ATOM      4  C   UNL     1       2.400   0.015  -0.021  0.00  0.00    +0.080 A 
ATOM      5  C   UNL     1       1.195  -0.693  -0.013  0.00  0.00    +0.048 A 
ATOM      6  C   UNL     1       0.002  -0.004   0.002  0.00  0.00    +0.043 A 
ATOM      7 CL   UNL     1      -1.495  -0.882   0.012  0.00  0.00    -0.083 Cl
ATOM      8  N   UNL     1       3.595  -0.620  -0.036  0.00  0.00    -0.223 NA
ATOM      9  C   UNL     1       4.724   0.046  -0.044  0.00  0.00    +0.172 A 
ATOM     10  N   UNL     1       4.784   1.410  -0.036  0.00  0.00    -0.284 N 
ATOM     11  C   UNL     1       3.650   2.149  -0.022  0.00  0.00    +0.263 A 
ATOM     12  O   UNL     1       3.690   3.365  -0.016  0.00  0.00    -0.267 OA
ENDROOT
BRANCH  10  13
ATOM     13  C   UNL     1       6.087   2.080  -0.045  0.00  0.00    +0.093 C 
ATOM     14  C   UNL     1       6.223   2.948   1.208  0.00  0.00    +0.025 C 
ATOM     15  C   UNL     1       7.584   3.647   1.198  0.00  0.00    +0.002 C 
ATOM     16  C   UNL     1       7.696   4.529  -0.047  0.00  0.00    +0.000 C 
ATOM     17  C   UNL     1       7.559   3.661  -1.300  0.00  0.00    +0.002 C 
ATOM     18  C   UNL     1       6.199   2.962  -1.291  0.00  0.00    +0.025 C 
ENDBRANCH  10  13
BRANCH   9  19
ATOM     19  S   UNL     1       6.234  -0.861  -0.063  0.00  0.00    -0.087 S 
BRANCH  19  20
ATOM     20  C   UNL     1       5.704  -2.596  -0.067  0.00  0.00    +0.086 C 
BRANCH  20  21
ATOM     21  C   UNL     1       6.934  -3.505  -0.085  0.00  0.00    +0.106 C 
BRANCH  21  22
ATOM     22  C   UNL     1       6.494  -4.947  -0.088  0.00  0.00    +0.211 C 
ATOM     23  O   UNL     1       5.312  -5.220  -0.078  0.00  0.00    -0.276 OA
ATOM     24  N   UNL     1       7.413  -5.932  -0.102  0.00  0.00    -0.329 N 
ATOM     25  H   UNL     1       8.358  -5.714  -0.111  0.00  0.00    +0.145 HD
ATOM     26  H   UNL     1       7.130  -6.860  -0.104  0.00  0.00    +0.145 HD
ENDBRANCH  21  22
ENDBRANCH  20  21
ENDBRANCH  19  20
ENDBRANCH   9  19
TORSDOF 5
