REMARK  Name = ZINC20883223
REMARK  12 active torsions:
REMARK  status: ('A' for Active; 'I' for Inactive)
REMARK    1  A    between atoms: C_1  and  C_2
REMARK    2  A    between atoms: C_2  and  C_3
REMARK    3  A    between atoms: C_2  and  O_4
REMARK    4  A    between atoms: O_4  and  C_5
REMARK    5  A    between atoms: C_8  and  C_13
REMARK    6  A    between atoms: C_10  and  O_11
REMARK    7  A    between atoms: O_11  and  C_12
REMARK    8  A    between atoms: C_18  and  C_28
REMARK    9  A    between atoms: C_31  and  O_36
REMARK   10  A    between atoms: C_32  and  O_34
REMARK   11  A    between atoms: O_34  and  C_35
REMARK   12  A    between atoms: O_36  and  C_37
REMARK                            x       y       z     vdW  Elec       q    Type
REMARK                         _______ _______ _______ _____ _____    ______ ____
ROOT
ATOM      1  C   UNL     1      -3.003   1.494  -4.400  0.00  0.00    +0.032 C 
ATOM      2  C   UNL     1      -3.615   0.539  -3.377  0.00  0.00    +0.059 C 
ATOM      3  C   UNL     1      -3.200   0.947  -1.973  0.00  0.00    +0.017 C 
ATOM      4  C   UNL     1      -2.990   2.240  -1.671  0.00  0.00    +0.036 C 
ATOM      5  C   UNL     1      -2.588   2.780  -0.320  0.00  0.00    +0.136 C 
ATOM      6  N   UNL     1      -2.682   1.822   0.761  0.00  0.00    -0.331 N 
ATOM      7  C   UNL     1      -1.871   0.692   0.792  0.00  0.00    +0.049 A 
ATOM      8  C   UNL     1      -0.878   0.537   1.746  0.00  0.00    +0.025 A 
ATOM      9  C   UNL     1      -0.021  -0.547   1.666  0.00  0.00    +0.002 A 
ATOM     10  C   UNL     1      -0.153  -1.469   0.644  0.00  0.00    +0.002 A 
ATOM     11  C   UNL     1      -1.158  -1.329  -0.298  0.00  0.00    +0.025 A 
ATOM     12  C   UNL     1      -2.027  -0.256  -0.209  0.00  0.00    +0.052 A 
ATOM     13  N   UNL     1      -3.085  -0.080  -1.092  0.00  0.00    -0.316 N 
ATOM     14  C   UNL     1      -3.139   3.236  -2.666  0.00  0.00    +0.163 C 
ATOM     15  O   UNL     1      -2.961   4.399  -2.362  0.00  0.00    -0.292 OA
ATOM     16  C   UNL     1      -3.508   2.906  -4.081  0.00  0.00    +0.088 C 
ATOM     17  H   UNL     1      -3.402   1.982   1.576  0.00  0.00    +0.147 HD
ATOM     18  H   UNL     1      -3.867  -0.851  -1.042  0.00  0.00    +0.152 HD
ENDROOT
BRANCH   1  22
ATOM     19  C   UNL     1      -4.233   0.373  -8.340  0.00  0.00    +0.162 A 
ATOM     20  C   UNL     1      -5.178   0.720  -7.388  0.00  0.00    +0.050 A 
ATOM     21  C   UNL     1      -4.778   1.082  -6.115  0.00  0.00    +0.008 A 
ATOM     22  C   UNL     1      -3.434   1.098  -5.789  0.00  0.00    -0.040 A 
ATOM     23  C   UNL     1      -2.486   0.759  -6.735  0.00  0.00    +0.053 A 
ATOM     24  C   UNL     1      -2.881   0.391  -8.011  0.00  0.00    +0.162 A 
BRANCH  24  25
ATOM     25  O   UNL     1      -1.949   0.051  -8.942  0.00  0.00    -0.491 OA
ATOM     26  C   UNL     1      -0.580   0.092  -8.534  0.00  0.00    +0.277 C 
ENDBRANCH  24  25
BRANCH  19  27
ATOM     27  O   UNL     1      -4.626   0.018  -9.592  0.00  0.00    -0.486 OA
BRANCH  27  29
ATOM     28  C   UNL     1      -6.606   1.285 -10.152  0.00  0.00    +0.051 C 
ATOM     29  C   UNL     1      -6.031  -0.095  -9.824  0.00  0.00    +0.167 C 
ATOM     30  C   UNL     1      -6.280  -1.044 -10.998  0.00  0.00    +0.051 C 
ENDBRANCH  27  29
ENDBRANCH  19  27
ENDBRANCH   1  22
BRANCH   5  31
ATOM     31  C   UNL     1      -1.165   3.267  -0.405  0.00  0.00    -0.019 A 
ATOM     32  C   UNL     1      -0.142   2.369  -0.648  0.00  0.00    +0.009 A 
ATOM     33  C   UNL     1       1.165   2.812  -0.733  0.00  0.00    +0.050 A 
ATOM     34  C   UNL     1       1.453   4.157  -0.569  0.00  0.00    +0.162 A 
ATOM     35  C   UNL     1       0.424   5.060  -0.318  0.00  0.00    +0.162 A 
ATOM     36  C   UNL     1      -0.884   4.610  -0.234  0.00  0.00    +0.055 A 
BRANCH  35  37
ATOM     37  O   UNL     1       0.701   6.382  -0.156  0.00  0.00    -0.491 OA
ATOM     38  C   UNL     1      -0.404   7.250   0.098  0.00  0.00    +0.277 C 
ENDBRANCH  35  37
BRANCH  34  39
ATOM     39  O   UNL     1       2.738   4.594  -0.652  0.00  0.00    -0.491 OA
ATOM     40  C   UNL     1       3.742   3.611  -0.912  0.00  0.00    +0.277 C 
ENDBRANCH  34  39
ENDBRANCH   5  31
TORSDOF 7
