REMARK  Name = ZINC04378768
REMARK  4 active torsions:
REMARK  status: ('A' for Active; 'I' for Inactive)
REMARK    1  A    between atoms: C_7  and  C_17
REMARK    2  A    between atoms: N_8  and  C_9
REMARK    3  A    between atoms: C_9  and  C_10
REMARK    4  A    between atoms: C_22  and  C_25
REMARK                            x       y       z     vdW  Elec       q    Type
REMARK                         _______ _______ _______ _____ _____    ______ ____
ROOT
ATOM      1  C   UNL     1      -2.725   0.483  -4.077  0.00  0.00    +0.017 A 
ATOM      2  C   UNL     1      -3.242  -0.671  -3.633  0.00  0.00    +0.048 A 
ATOM      3  S   UNL     1      -2.725  -0.725  -1.928  0.00  0.00    -0.079 S 
ATOM      4  C   UNL     1      -1.824   0.802  -1.864  0.00  0.00    +0.088 A 
ATOM      5  C   UNL     1      -1.955   1.313  -3.159  0.00  0.00    +0.008 A 
ATOM      6  C   UNL     1      -1.246   2.550  -3.150  0.00  0.00    +0.041 A 
ATOM      7  C   UNL     1      -0.737   2.739  -1.902  0.00  0.00    +0.106 A 
ATOM      8  N   UNL     1      -1.098   1.662  -1.111  0.00  0.00    -0.328 N 
ENDROOT
BRANCH   7   9
ATOM      9  C   UNL     1       0.060   3.889  -1.468  0.00  0.00    +0.263 C 
ATOM     10  O   UNL     1       0.848   3.771  -0.548  0.00  0.00    -0.268 OA
ATOM     11  N   UNL     1      -0.079   5.077  -2.089  0.00  0.00    -0.296 N 
ATOM     12  C   UNL     1      -1.046   5.242  -3.183  0.00  0.00    +0.109 C 
ATOM     13  C   UNL     1      -1.959   6.433  -2.852  0.00  0.00    +0.032 C 
ATOM     14  C   UNL     1      -1.098   7.669  -2.583  0.00  0.00    +0.078 C 
ATOM     15  C   UNL     1      -0.192   7.409  -1.378  0.00  0.00    +0.032 C 
ATOM     16  C   UNL     1       0.738   6.231  -1.688  0.00  0.00    +0.109 C 
BRANCH  14  17
ATOM     17  C   UNL     1      -1.991   8.849  -2.295  0.00  0.00    +0.214 C 
ATOM     18  O   UNL     1      -1.909   9.425  -1.231  0.00  0.00    -0.276 OA
ATOM     19  N   UNL     1      -2.879   9.264  -3.220  0.00  0.00    -0.329 N 
ATOM     20  H   UNL     1      -2.944   8.803  -4.071  0.00  0.00    +0.145 HD
ATOM     21  H   UNL     1      -3.453  10.023  -3.034  0.00  0.00    +0.145 HD
ENDBRANCH  14  17
ENDBRANCH   7   9
BRANCH   8  22
ATOM     22  C   UNL     1      -0.748   1.480   0.300  0.00  0.00    +0.154 C 
BRANCH  22  23
ATOM     23  C   UNL     1      -1.764   2.216   1.176  0.00  0.00    +0.138 C 
ATOM     24  C   UNL     1      -1.327   2.136   2.641  0.00  0.00    +0.033 C 
ATOM     25  C   UNL     1      -2.378   2.823   3.518  0.00  0.00    +0.005 C 
ATOM     26  C   UNL     1      -3.738   2.160   3.280  0.00  0.00    +0.028 C 
ATOM     27  C   UNL     1      -4.082   2.239   1.790  0.00  0.00    +0.160 C 
ATOM     28  O   UNL     1      -3.049   1.609   1.030  0.00  0.00    -0.375 OA
ENDBRANCH  22  23
ENDBRANCH   8  22
TORSDOF 4
