REMARK  Name = ZINC03280806
REMARK  12 active torsions:
REMARK  status: ('A' for Active; 'I' for Inactive)
REMARK    1  A    between atoms: C_1  and  C_2
REMARK    2  A    between atoms: C_5  and  N_9
REMARK    3  A    between atoms: C_10  and  C_12
REMARK    4  A    between atoms: C_12  and  O_13
REMARK    5  A    between atoms: O_13  and  C_14
REMARK    6  A    between atoms: C_14  and  C_16
REMARK    7  A    between atoms: C_16  and  C_18
REMARK    8  A    between atoms: C_16  and  N_22
REMARK    9  A    between atoms: C_18  and  C_20
REMARK   10  A    between atoms: C_18  and  O_21
REMARK   11  A    between atoms: N_22  and  S_23
REMARK   12  A    between atoms: S_23  and  C_26
REMARK                            x       y       z     vdW  Elec       q    Type
REMARK                         _______ _______ _______ _____ _____    ______ ____
ROOT
ATOM      1  C   UNL     1      -0.609  -8.525  -4.283  0.00  0.00    +0.213 C 
ENDROOT
BRANCH   1   2
ATOM      2  C   UNL     1       0.017  -8.008  -3.013  0.00  0.00    +0.329 C 
ATOM      3  O   UNL     1       0.198  -8.756  -2.081  0.00  0.00    -0.249 OA
BRANCH   2   4
ATOM      4  O   UNL     1       0.373  -6.718  -2.917  0.00  0.00    -0.454 OA
BRANCH   4   5
ATOM      5  C   UNL     1       0.960  -6.296  -1.684  0.00  0.00    +0.328 C 
BRANCH   5   7
ATOM      6  N   UNL     1       1.858  -4.209  -0.707  0.00  0.00    -0.282 N 
ATOM      7  C   UNL     1       1.292  -4.829  -1.762  0.00  0.00    +0.255 C 
ATOM      8  O   UNL     1       1.049  -4.205  -2.773  0.00  0.00    -0.272 OA
ATOM      9  H   UNL     1       2.124  -4.723   0.072  0.00  0.00    +0.155 HD
BRANCH   6  14
ATOM     10  C   UNL     1       2.682   1.404  -0.821  0.00  0.00    +0.044 C 
ATOM     11  C   UNL     1       2.464  -0.087  -0.790  0.00  0.00    -0.049 A 
ATOM     12  C   UNL     1       1.549  -0.668  -1.650  0.00  0.00    +0.005 A 
ATOM     13  C   UNL     1       1.346  -2.034  -1.625  0.00  0.00    +0.025 A 
ATOM     14  C   UNL     1       2.062  -2.825  -0.735  0.00  0.00    +0.048 A 
ATOM     15  C   UNL     1       2.980  -2.239   0.127  0.00  0.00    +0.039 A 
ATOM     16  C   UNL     1       3.182  -0.872   0.093  0.00  0.00    +0.020 A 
ATOM     17 BR   UNL     1       3.956  -3.310   1.341  0.00  0.00    -0.048 Br
ENDBRANCH   6  14
ENDBRANCH   5   7
ENDBRANCH   4   5
ENDBRANCH   2   4
ENDBRANCH   1   2
BRANCH   1  18
ATOM     18  C   UNL     1       0.361  -8.322  -5.448  0.00  0.00    +0.141 C 
ATOM     19  C   UNL     1      -0.209  -8.978  -6.707  0.00  0.00    +0.040 C 
BRANCH  18  20
ATOM     20  O   UNL     1       0.542  -6.923  -5.680  0.00  0.00    -0.390 OA
ATOM     21  H   UNL     1       0.901  -6.443  -4.922  0.00  0.00    +0.210 HD
ENDBRANCH  18  20
ENDBRANCH   1  18
BRANCH   1  22
ATOM     22  N   UNL     1      -0.903  -9.953  -4.136  0.00  0.00    -0.174 NA
ATOM     23  H   UNL     1      -0.213 -10.611  -4.314  0.00  0.00    +0.149 HD
BRANCH  22  24
ATOM     24  S   UNL     1      -2.414 -10.443  -3.668  0.00  0.00    +0.059 S 
ATOM     25  O   UNL     1      -2.382 -11.862  -3.612  0.00  0.00    -0.153 OA
ATOM     26  O   UNL     1      -2.771  -9.644  -2.548  0.00  0.00    -0.153 OA
BRANCH  24  27
ATOM     27  C   UNL     1      -3.526 -10.015  -4.966  0.00  0.00    +0.105 A 
ATOM     28  C   UNL     1      -4.086  -8.751  -5.008  0.00  0.00    +0.030 A 
ATOM     29  C   UNL     1      -4.958  -8.415  -6.026  0.00  0.00    +0.022 A 
ATOM     30  C   UNL     1      -5.271  -9.344  -7.003  0.00  0.00    +0.041 A 
ATOM     31  C   UNL     1      -4.711 -10.608  -6.960  0.00  0.00    +0.022 A 
ATOM     32  C   UNL     1      -3.835 -10.941  -5.944  0.00  0.00    +0.030 A 
ATOM     33 CL   UNL     1      -6.368  -8.922  -8.281  0.00  0.00    -0.084 Cl
ENDBRANCH  24  27
ENDBRANCH  22  24
ENDBRANCH   1  22
TORSDOF 10
