REMARK  Name = ZINC11936392
REMARK  6 active torsions:
REMARK  status: ('A' for Active; 'I' for Inactive)
REMARK    1  A    between atoms: C_6  and  C_11
REMARK    2  A    between atoms: C_11  and  N_58
REMARK    3  A    between atoms: C_17  and  C_19
REMARK    4  A    between atoms: C_19  and  C_20
REMARK    5  A    between atoms: N_22  and  C_23
REMARK    6  A    between atoms: C_23  and  C_24
REMARK                            x       y       z     vdW  Elec       q    Type
REMARK                         _______ _______ _______ _____ _____    ______ ____
ROOT
ATOM      1  C   UNL     1       5.839   3.290   7.041  0.00  0.00    -0.058 C 
ATOM      2  C   UNL     1       6.383   4.717   7.128  0.00  0.00    +0.085 C 
ATOM      3  N   UNL     1       6.412   5.323   5.800  0.00  0.00    -0.318 N 
ATOM      4  C   UNL     1       5.706   4.848   4.769  0.00  0.00    +0.200 C 
ATOM      5  O   UNL     1       5.764   5.431   3.707  0.00  0.00    -0.278 OA
ATOM      6  C   UNL     1       4.843   3.622   4.870  0.00  0.00    +0.028 C 
ATOM      7  H   UNL     1       6.968   6.105   5.660  0.00  0.00    +0.149 HD
ATOM      8  N   UNL     1       4.569   3.330   6.290  0.00  0.00    +0.391 N 
ATOM      9  H   UNL     1       3.973   4.072   6.677  0.00  0.00    -0.080 HD
ENDROOT
BRANCH   8  10
ATOM     10  C   UNL     1       3.864   2.033   6.413  0.00  0.00    -0.042 C 
BRANCH  10  16
ATOM     11  C   UNL     1       0.406   2.091  11.867  0.00  0.00    +0.001 A 
ATOM     12  C   UNL     1      -0.341   2.667  10.842  0.00  0.00    +0.001 A 
ATOM     13  C   UNL     1       0.165   2.777   9.583  0.00  0.00    +0.008 A 
ATOM     14  C   UNL     1       1.459   2.303   9.310  0.00  0.00    -0.018 A 
ATOM     15  C   UNL     1       2.015   2.399   8.022  0.00  0.00    +0.010 A 
ATOM     16  C   UNL     1       3.272   1.929   7.795  0.00  0.00    -0.063 A 
ATOM     17  C   UNL     1       4.017   1.348   8.819  0.00  0.00    +0.002 A 
ATOM     18  C   UNL     1       3.514   1.244  10.079  0.00  0.00    +0.009 A 
ATOM     19  C   UNL     1       2.219   1.718  10.353  0.00  0.00    -0.018 A 
ATOM     20  C   UNL     1       1.663   1.622  11.640  0.00  0.00    +0.008 A 
ENDBRANCH  10  16
ENDBRANCH   8  10
BRANCH   6  21
ATOM     21  C   UNL     1       3.517   3.873   4.149  0.00  0.00    +0.089 C 
BRANCH  21  22
ATOM     22  C   UNL     1       2.780   4.999   4.829  0.00  0.00    +0.212 C 
ATOM     23  O   UNL     1       3.218   5.478   5.853  0.00  0.00    -0.276 OA
ATOM     24  N   UNL     1       1.635   5.472   4.299  0.00  0.00    -0.310 N 
ATOM     25  H   UNL     1       1.285   5.088   3.479  0.00  0.00    +0.149 HD
BRANCH  24  26
ATOM     26  C   UNL     1       0.919   6.566   4.960  0.00  0.00    +0.161 C 
BRANCH  26  27
ATOM     27  C   UNL     1      -0.319   6.904   4.171  0.00  0.00    +0.083 A 
ATOM     28  C   UNL     1      -1.588   6.334   4.348  0.00  0.00    -0.002 A 
ATOM     29  C   UNL     1      -2.430   6.900   3.451  0.00  0.00    +0.040 A 
ATOM     30  N   UNL     1      -1.720   7.799   2.731  0.00  0.00    -0.281 N 
ATOM     31  H   UNL     1      -2.075   8.374   1.994  0.00  0.00    +0.189 HD
ATOM     32  N   UNL     1      -0.396   7.781   3.204  0.00  0.00    -0.177 NA
ATOM     33  C   UNL     1      -3.819   6.319   3.595  0.00  0.00    +0.055 C 
ATOM     34  C   UNL     1      -3.627   5.018   4.404  0.00  0.00    +0.011 C 
ATOM     35  C   UNL     1      -2.329   5.315   5.186  0.00  0.00    +0.039 C 
ENDBRANCH  26  27
ENDBRANCH  24  26
ENDBRANCH  21  22
ENDBRANCH   6  21
TORSDOF 6
