REMARK  Name = ZINC02192118
REMARK  15 active torsions:
REMARK  status: ('A' for Active; 'I' for Inactive)
REMARK    1  A    between atoms: C_1  and  C_2
REMARK    2  A    between atoms: C_2  and  C_3
REMARK    3  A    between atoms: C_2  and  C_4
REMARK    4  A    between atoms: C_2  and  C_5
REMARK    5  A    between atoms: C_7  and  S_16
REMARK    6  A    between atoms: C_9  and  C_12
REMARK    7  A    between atoms: C_10  and  O_11
REMARK    8  A    between atoms: C_12  and  C_13
REMARK    9  A    between atoms: C_12  and  C_14
REMARK   10  A    between atoms: C_12  and  C_15
REMARK   11  A    between atoms: S_16  and  C_17
REMARK   12  A    between atoms: C_17  and  C_19
REMARK   13  A    between atoms: C_19  and  C_20
REMARK   14  A    between atoms: C_19  and  O_24
REMARK   15  A    between atoms: O_24  and  C_25
REMARK                            x       y       z     vdW  Elec       q    Type
REMARK                         _______ _______ _______ _____ _____    ______ ____
ROOT
ATOM      1  C   UNL     1       0.033   1.028   2.150  0.00  0.00    +0.001 A 
ATOM      2  C   UNL     1       1.173   0.252   2.089  0.00  0.00    +0.023 A 
ATOM      3  C   UNL     1       1.791  -0.165   3.261  0.00  0.00    +0.016 A 
ATOM      4  C   UNL     1       1.262   0.199   4.492  0.00  0.00    +0.023 A 
ATOM      5  C   UNL     1       0.121   0.975   4.551  0.00  0.00    +0.001 A 
ATOM      6  C   UNL     1      -0.492   1.396   3.380  0.00  0.00    +0.124 A 
ENDROOT
BRANCH   1   8
ATOM      7  C   UNL     1       0.140   0.948  -0.327  0.00  0.00    +0.015 C 
ATOM      8  C   UNL     1      -0.638   1.481   0.878  0.00  0.00    -0.009 C 
ATOM      9  C   UNL     1      -0.665   3.010   0.833  0.00  0.00    +0.015 C 
ATOM     10  C   UNL     1      -2.071   0.945   0.839  0.00  0.00    +0.015 C 
ENDBRANCH   1   8
BRANCH   5  11
ATOM     11  C   UNL     1      -0.453   1.370   5.887  0.00  0.00    -0.009 C 
ATOM     12  C   UNL     1       0.410   0.786   7.006  0.00  0.00    +0.015 C 
ATOM     13  C   UNL     1      -0.474   2.896   6.002  0.00  0.00    +0.015 C 
ATOM     14  C   UNL     1      -1.879   0.830   6.008  0.00  0.00    +0.015 C 
ENDBRANCH   5  11
BRANCH   6  15
ATOM     15  O   UNL     1      -1.612   2.166   3.438  0.00  0.00    -0.506 OA
ATOM     16  H   UNL     1      -2.436   1.660   3.460  0.00  0.00    +0.292 HD
ENDBRANCH   6  15
BRANCH   3  17
ATOM     17  S   UNL     1       3.247  -1.155   3.185  0.00  0.00    -0.046 S 
BRANCH  17  18
ATOM     18  C   UNL     1       2.553  -2.715   3.321  0.00  0.00    +0.267 C 
ATOM     19  O   UNL     1       1.346  -2.842   3.336  0.00  0.00    -0.278 OA
BRANCH  18  20
ATOM     20  C   UNL     1       3.440  -3.928   3.421  0.00  0.00    +0.375 C 
ATOM     21  F   UNL     1       4.323  -3.952   2.336  0.00  0.00    -0.191 F 
BRANCH  20  22
ATOM     22  C   UNL     1       4.238  -3.870   4.726  0.00  0.00    +0.458 C 
ATOM     23  F   UNL     1       3.358  -3.725   5.804  0.00  0.00    -0.165 F 
ATOM     24  F   UNL     1       4.970  -5.053   4.877  0.00  0.00    -0.165 F 
ATOM     25  F   UNL     1       5.114  -2.780   4.688  0.00  0.00    -0.165 F 
ENDBRANCH  20  22
BRANCH  20  26
ATOM     26  O   UNL     1       2.636  -5.109   3.407  0.00  0.00    -0.335 OA
ATOM     27  C   UNL     1       1.958  -5.336   2.169  0.00  0.00    +0.198 C 
ENDBRANCH  20  26
ENDBRANCH  18  20
ENDBRANCH  17  18
ENDBRANCH   3  17
TORSDOF 8
