REMARK  Name = ZINC03216154
REMARK  11 active torsions:
REMARK  status: ('A' for Active; 'I' for Inactive)
REMARK    1  A    between atoms: C_1  and  C_2
REMARK    2  A    between atoms: C_2  and  C_3
REMARK    3  A    between atoms: C_7  and  N_10
REMARK    4  A    between atoms: N_10  and  N_11
REMARK    5  A    between atoms: C_12  and  C_14
REMARK    6  A    between atoms: C_14  and  O_15
REMARK    7  A    between atoms: O_15  and  C_16
REMARK    8  A    between atoms: C_19  and  C_25
REMARK    9  A    between atoms: C_21  and  C_22
REMARK   10  A    between atoms: C_22  and  C_23
REMARK   11  A    between atoms: C_22  and  C_24
REMARK                            x       y       z     vdW  Elec       q    Type
REMARK                         _______ _______ _______ _____ _____    ______ ____
ROOT
ATOM      1  N   UNL     1       2.307   3.496   6.457  0.00  0.00    -0.234 N 
ATOM      2  C   UNL     1       1.683   2.976   5.382  0.00  0.00    +0.267 C 
ATOM      3  O   UNL     1       1.615   1.773   5.243  0.00  0.00    -0.271 OA
ATOM      4  H   UNL     1       2.361   4.458   6.568  0.00  0.00    +0.173 HD
ENDROOT
BRANCH   1   5
ATOM      5  N   UNL     1       2.877   2.647   7.415  0.00  0.00    -0.269 N 
ATOM      6  H   UNL     1       2.760   1.687   7.343  0.00  0.00    +0.170 HD
BRANCH   5  10
ATOM      7  C   UNL     1       5.407   4.251  10.334  0.00  0.00    -0.007 C 
ATOM      8  C   UNL     1       4.691   2.942  10.692  0.00  0.00    +0.010 C 
ATOM      9  C   UNL     1       4.309   2.228   9.394  0.00  0.00    +0.052 C 
ATOM     10  C   UNL     1       3.611   3.180   8.467  0.00  0.00    +0.018 C 
ATOM     11  C   UNL     1       3.656   4.479   8.586  0.00  0.00    -0.007 C 
ATOM     12  C   UNL     1       4.396   5.194   9.680  0.00  0.00    +0.032 C 
BRANCH   7  14
ATOM     13  C   UNL     1       6.784   6.133  11.231  0.00  0.00    +0.004 C 
ATOM     14  C   UNL     1       5.965   4.896  11.604  0.00  0.00    +0.000 C 
ENDBRANCH   7  14
ENDBRANCH   5  10
ENDBRANCH   1   5
BRANCH   2  15
ATOM     15  C   UNL     1       1.069   3.889   4.352  0.00  0.00    +0.326 C 
BRANCH  15  16
ATOM     16  O   UNL     1       0.471   3.106   3.317  0.00  0.00    -0.482 OA
BRANCH  16  17
ATOM     17  C   UNL     1      -0.131   3.780   2.302  0.00  0.00    +0.125 A 
ATOM     18  C   UNL     1      -0.146   5.168   2.303  0.00  0.00    +0.046 A 
ATOM     19  C   UNL     1      -0.759   5.851   1.271  0.00  0.00    +0.007 A 
ATOM     20  C   UNL     1      -1.357   5.154   0.237  0.00  0.00    -0.050 A 
ATOM     21  C   UNL     1      -1.339   3.772   0.232  0.00  0.00    +0.010 A 
ATOM     22  C   UNL     1      -0.732   3.083   1.264  0.00  0.00    -0.003 A 
ATOM     23  C   UNL     1      -2.024   5.902  -0.888  0.00  0.00    +0.044 C 
BRANCH  22  24
ATOM     24  C   UNL     1      -0.716   1.577   1.260  0.00  0.00    +0.016 C 
ATOM     25  C   UNL     1       0.001   1.077   0.004  0.00  0.00    +0.012 C 
ATOM     26  C   UNL     1      -2.154   1.052   1.268  0.00  0.00    +0.012 C 
ENDBRANCH  22  24
ENDBRANCH  16  17
ENDBRANCH  15  16
ENDBRANCH   2  15
TORSDOF 7
