REMARK  Name = ZINC14884287
REMARK  9 active torsions:
REMARK  status: ('A' for Active; 'I' for Inactive)
REMARK    1  A    between atoms: C_1  and  C_2
REMARK    2  A    between atoms: C_2  and  C_3
REMARK    3  A    between atoms: C_3  and  C_18
REMARK    4  A    between atoms: N_6  and  C_10
REMARK    5  A    between atoms: C_10  and  C_11
REMARK    6  A    between atoms: C_11  and  C_12
REMARK    7  A    between atoms: C_13  and  C_17
REMARK    8  A    between atoms: C_23  and  C_24
REMARK    9  A    between atoms: C_23  and  N_66
REMARK                            x       y       z     vdW  Elec       q    Type
REMARK                         _______ _______ _______ _____ _____    ______ ____
ROOT
ATOM      1  C   UNL     1       0.053   1.413  -0.338  0.00  0.00    +0.115 C 
ATOM      2  C   UNL     1       1.466   1.962  -0.332  0.00  0.00    +0.247 C 
ATOM      3  O   UNL     1       2.340   1.744  -1.144  0.00  0.00    -0.273 OA
ATOM      4  N   UNL     1       1.549   2.744   0.763  0.00  0.00    -0.224 N 
ATOM      5  C   UNL     1       0.397   2.764   1.443  0.00  0.00    +0.309 C 
ATOM      6  O   UNL     1       0.227   3.398   2.466  0.00  0.00    -0.252 OA
ATOM      7  N   UNL     1      -0.553   2.003   0.868  0.00  0.00    -0.285 N 
ATOM      8  H   UNL     1      -1.460   1.870   1.185  0.00  0.00    +0.151 HD
ENDROOT
BRANCH   1   9
ATOM      9  C   UNL     1       0.070  -0.114  -0.239  0.00  0.00    +0.018 C 
ATOM     10  C   UNL     1      -1.368  -0.641  -0.221  0.00  0.00    -0.013 C 
ATOM     11  C   UNL     1      -1.347  -2.163  -0.061  0.00  0.00    -0.078 C 
ATOM     12  C   UNL     1       0.735  -2.061   1.175  0.00  0.00    -0.078 C 
ATOM     13  C   UNL     1       0.776  -0.536   1.052  0.00  0.00    -0.013 C 
ATOM     14  N   UNL     1      -0.676  -2.502   1.212  0.00  0.00    +0.382 N 
ATOM     15  H   UNL     1      -1.156  -2.019   1.980  0.00  0.00    -0.081 HD
BRANCH  14  16
ATOM     16  C   UNL     1      -0.743  -3.960   1.445  0.00  0.00    -0.042 C 
BRANCH  16  17
ATOM     17  C   UNL     1      -2.179  -4.406   1.354  0.00  0.00    -0.056 A 
ATOM     18  C   UNL     1      -2.609  -5.114   0.273  0.00  0.00    +0.002 A 
ATOM     19  C   UNL     1      -3.933  -5.535   0.172  0.00  0.00    +0.001 A 
ATOM     20  C   UNL     1      -4.836  -5.251   1.151  0.00  0.00    +0.008 A 
ATOM     21  C   UNL     1      -4.429  -4.522   2.281  0.00  0.00    -0.018 A 
ATOM     22  C   UNL     1      -3.081  -4.098   2.387  0.00  0.00    -0.017 A 
ATOM     23  C   UNL     1      -2.673  -3.374   3.520  0.00  0.00    +0.009 A 
ATOM     24  C   UNL     1      -3.574  -3.095   4.501  0.00  0.00    +0.001 A 
ATOM     25  C   UNL     1      -4.899  -3.516   4.399  0.00  0.00    +0.001 A 
ATOM     26  C   UNL     1      -5.332  -4.210   3.312  0.00  0.00    +0.008 A 
ENDBRANCH  16  17
ENDBRANCH  14  16
ENDBRANCH   1   9
BRANCH   1  28
ATOM     27  C   UNL     1      -0.695   3.389  -1.669  0.00  0.00    +0.006 C 
ATOM     28  C   UNL     1      -0.694   1.861  -1.595  0.00  0.00    +0.032 C 
ENDBRANCH   1  28
BRANCH   4  29
ATOM     29  C   UNL     1       2.752   3.479   1.160  0.00  0.00    +0.123 C 
BRANCH  29  30
ATOM     30  C   UNL     1       2.733   4.870   0.522  0.00  0.00    +0.064 C 
BRANCH  30  31
ATOM     31  C   UNL     1       3.971   5.627   0.930  0.00  0.00    +0.014 A 
ATOM     32  C   UNL     1       5.189   5.682   0.335  0.00  0.00    +0.049 A 
ATOM     33  N   UNL     1       6.123   6.427   0.889  0.00  0.00    -0.252 NA
ATOM     34  C   UNL     1       5.898   7.097   1.995  0.00  0.00    +0.156 A 
ATOM     35  S   UNL     1       4.244   6.694   2.337  0.00  0.00    -0.080 S 
ATOM     36  C   UNL     1       5.466   4.913  -0.931  0.00  0.00    +0.066 C 
ENDBRANCH  30  31
ENDBRANCH  29  30
ENDBRANCH   4  29
TORSDOF 7
