REMARK  Name = ZINC13495315
REMARK  7 active torsions:
REMARK  status: ('A' for Active; 'I' for Inactive)
REMARK    1  A    between atoms: C_1  and  C_2
REMARK    2  A    between atoms: C_7  and  C_8
REMARK    3  A    between atoms: C_10  and  C_13
REMARK    4  A    between atoms: C_13  and  C_15
REMARK    5  A    between atoms: C_13  and  N_16
REMARK    6  A    between atoms: N_16  and  S_17
REMARK    7  A    between atoms: S_17  and  C_20
REMARK                            x       y       z     vdW  Elec       q    Type
REMARK                         _______ _______ _______ _____ _____    ______ ____
ROOT
ATOM      1  C   UNL     1       2.361  -2.608  -2.474  0.00  0.00    +0.162 C 
ATOM      2  C   UNL     1       3.327  -3.794  -2.498  0.00  0.00    +0.036 C 
ENDROOT
BRANCH   1   5
ATOM      3  C   UNL     1       1.539  -1.503  -5.794  0.00  0.00    +0.202 A 
ATOM      4  N   UNL     1       2.240  -1.347  -4.648  0.00  0.00    -0.190 NA
ATOM      5  C   UNL     1       1.867  -2.333  -3.870  0.00  0.00    +0.246 A 
ATOM      6  O   UNL     1       0.970  -3.053  -4.551  0.00  0.00    -0.336 OA
ATOM      7  N   UNL     1       0.789  -2.564  -5.646  0.00  0.00    -0.056 NA
BRANCH   3  14
ATOM      8  C   UNL     1      -0.098  -2.109  -8.101  0.00  0.00    +0.044 C 
ATOM      9  C   UNL     1       0.823  -0.916  -8.109  0.00  0.00    -0.040 A 
ATOM     10  C   UNL     1       0.891  -0.103  -9.223  0.00  0.00    +0.004 A 
ATOM     11  C   UNL     1       1.736   0.992  -9.232  0.00  0.00    +0.000 A 
ATOM     12  C   UNL     1       2.517   1.278  -8.127  0.00  0.00    +0.001 A 
ATOM     13  C   UNL     1       2.453   0.475  -7.007  0.00  0.00    +0.012 A 
ATOM     14  C   UNL     1       1.608  -0.632  -6.994  0.00  0.00    +0.025 A 
ENDBRANCH   3  14
ENDBRANCH   1   5
BRANCH   1  15
ATOM     15  N   UNL     1       1.223  -2.923  -1.606  0.00  0.00    -0.178 NA
ATOM     16  H   UNL     1       0.465  -3.413  -1.960  0.00  0.00    +0.149 HD
BRANCH  15  17
ATOM     17  S   UNL     1       1.231  -2.441  -0.022  0.00  0.00    +0.059 S 
ATOM     18  O   UNL     1       2.487  -2.833   0.515  0.00  0.00    -0.153 OA
ATOM     19  O   UNL     1      -0.003  -2.866   0.538  0.00  0.00    -0.153 OA
BRANCH  17  20
ATOM     20  C   UNL     1       1.208  -0.679  -0.013  0.00  0.00    +0.105 A 
ATOM     21  C   UNL     1       0.002  -0.004   0.002  0.00  0.00    +0.030 A 
ATOM     22  C   UNL     1      -0.017   1.378   0.010  0.00  0.00    +0.022 A 
ATOM     23  C   UNL     1       1.172   2.086   0.002  0.00  0.00    +0.041 A 
ATOM     24  C   UNL     1       2.379   1.409  -0.013  0.00  0.00    +0.022 A 
ATOM     25  C   UNL     1       2.397   0.027  -0.020  0.00  0.00    +0.030 A 
ATOM     26 CL   UNL     1       1.149   3.821   0.011  0.00  0.00    -0.084 Cl
ENDBRANCH  17  20
ENDBRANCH  15  17
ENDBRANCH   1  15
TORSDOF 5
