REMARK  Name = ZINC39509513
REMARK  6 active torsions:
REMARK  status: ('A' for Active; 'I' for Inactive)
REMARK    1  A    between atoms: C_1  and  C_2
REMARK    2  A    between atoms: C_4  and  C_13
REMARK    3  A    between atoms: C_13  and  C_14
REMARK    4  A    between atoms: C_14  and  N_15
REMARK    5  A    between atoms: C_16  and  C_18
REMARK    6  A    between atoms: N_20  and  C_23
REMARK                            x       y       z     vdW  Elec       q    Type
REMARK                         _______ _______ _______ _____ _____    ______ ____
ROOT
ATOM      1  N   UNL     1      -4.146   2.770   1.715  0.00  0.00    -0.310 N 
ATOM      2  C   UNL     1      -4.411   3.791   2.554  0.00  0.00    +0.260 C 
ATOM      3  O   UNL     1      -3.842   4.859   2.413  0.00  0.00    -0.269 OA
ATOM      4  H   UNL     1      -4.599   1.920   1.827  0.00  0.00    +0.149 HD
ENDROOT
BRANCH   2   5
ATOM      5  C   UNL     1      -5.381   3.617   3.634  0.00  0.00    +0.120 C 
ATOM      6  C   UNL     1      -5.744   4.551   4.538  0.00  0.00    +0.119 C 
ATOM      7  N   UNL     1      -6.676   3.999   5.382  0.00  0.00    -0.253 N 
ATOM      8  N   UNL     1      -6.899   2.707   5.003  0.00  0.00    -0.160 NA
ATOM      9  N   UNL     1      -6.113   2.443   3.917  0.00  0.00    -0.259 N 
ATOM     10  H   UNL     1      -6.702   2.069   5.760  0.00  0.00    +0.168 HD
ATOM     11  H   UNL     1      -6.066   1.604   3.431  0.00  0.00    +0.168 HD
BRANCH   7  12
ATOM     12  C   UNL     1      -7.324   4.683   6.504  0.00  0.00    +0.092 C 
ATOM     13  C   UNL     1      -7.008   3.942   7.804  0.00  0.00    +0.024 C 
ATOM     14  C   UNL     1      -7.684   4.657   8.976  0.00  0.00    +0.002 C 
ATOM     15  C   UNL     1      -9.198   4.678   8.755  0.00  0.00    +0.000 C 
ATOM     16  C   UNL     1      -9.514   5.420   7.455  0.00  0.00    +0.002 C 
ATOM     17  C   UNL     1      -8.838   4.705   6.283  0.00  0.00    +0.024 C 
ENDBRANCH   7  12
ENDBRANCH   2   5
BRANCH   1  18
ATOM     18  C   UNL     1      -3.174   2.945   0.633  0.00  0.00    +0.109 C 
BRANCH  18  19
ATOM     19  C   UNL     1      -3.061   1.645  -0.166  0.00  0.00    +0.056 C 
BRANCH  19  23
ATOM     20  C   UNL     1      -0.013   1.086   0.008  0.00  0.00    +0.063 C 
ATOM     21  C   UNL     1      -0.742   1.585  -1.213  0.00  0.00    +0.017 A 
ATOM     22  H   UNL     1       0.790   1.775  -2.611  0.00  0.00    +0.166 HD
ATOM     23  C   UNL     1      -2.061   1.824  -1.278  0.00  0.00    -0.018 A 
ATOM     24  C   UNL     1      -2.344   2.292  -2.638  0.00  0.00    +0.005 A 
ATOM     25  C   UNL     1      -3.505   2.691  -3.304  0.00  0.00    +0.030 A 
ATOM     26  C   UNL     1      -3.432   3.087  -4.621  0.00  0.00    +0.042 A 
ATOM     27  C   UNL     1      -2.213   3.091  -5.287  0.00  0.00    +0.022 A 
ATOM     28  C   UNL     1      -1.060   2.700  -4.643  0.00  0.00    +0.027 A 
ATOM     29  C   UNL     1      -1.110   2.297  -3.313  0.00  0.00    +0.047 A 
ATOM     30  N   UNL     1      -0.156   1.867  -2.417  0.00  0.00    -0.358 N 
ATOM     31 CL   UNL     1      -4.872   3.584  -5.454  0.00  0.00    -0.084 Cl
ENDBRANCH  19  23
ENDBRANCH  18  19
ENDBRANCH   1  18
TORSDOF 5
