REMARK  Name = ZINC51037880
REMARK  8 active torsions:
REMARK  status: ('A' for Active; 'I' for Inactive)
REMARK    1  A    between atoms: C_1  and  C_2
REMARK    2  A    between atoms: C_2  and  C_3
REMARK    3  A    between atoms: C_3  and  C_5
REMARK    4  A    between atoms: C_3  and  N_20
REMARK    5  A    between atoms: C_5  and  C_7
REMARK    6  A    between atoms: C_5  and  S_13
REMARK    7  A    between atoms: S_13  and  C_14
REMARK    8  A    between atoms: C_17  and  C_19
REMARK                            x       y       z     vdW  Elec       q    Type
REMARK                         _______ _______ _______ _____ _____    ______ ____
ROOT
ATOM      1  C   UNL     1       0.631  -2.013   1.258  0.00  0.00    +0.078 C 
ENDROOT
BRANCH   1   2
ATOM      2  C   UNL     1      -0.758  -2.595   1.312  0.00  0.00    +0.003 A 
ATOM      3  C   UNL     1      -1.413  -3.328   0.379  0.00  0.00    +0.013 A 
ATOM      4  C   UNL     1      -2.698  -3.762   0.648  0.00  0.00    +0.023 A 
ATOM      5  C   UNL     1      -3.265  -3.439   1.837  0.00  0.00    +0.055 A 
ATOM      6  S   UNL     1      -1.965  -2.503   2.624  0.00  0.00    -0.085 S 
ATOM      7 BR   UNL     1      -4.983  -3.876   2.494  0.00  0.00    -0.043 Br
ENDBRANCH   1   2
BRANCH   1   8
ATOM      8  C   UNL     1       0.553  -0.492   1.404  0.00  0.00    -0.057 C 
BRANCH   8   9
ATOM      9  N   UNL     1      -0.370   0.050   0.398  0.00  0.00    +0.381 N 
ATOM     10  H   UNL     1      -0.352   1.058   0.433  0.00  0.00    -0.090 HD
ATOM     11  H   UNL     1      -0.087  -0.260  -0.519  0.00  0.00    -0.090 HD
ATOM     12  H   UNL     1      -1.306  -0.276   0.590  0.00  0.00    -0.090 HD
ENDBRANCH   8   9
BRANCH   8  14
ATOM     13  C   UNL     1       0.086   1.378   2.994  0.00  0.00    +0.002 C 
ATOM     14  C   UNL     1       0.046  -0.140   2.804  0.00  0.00    -0.018 C 
ENDBRANCH   8  14
ENDBRANCH   1   8
BRANCH   1  15
ATOM     15  S   UNL     1       1.628  -2.700   2.609  0.00  0.00    -0.059 S 
BRANCH  15  16
ATOM     16  C   UNL     1       3.263  -2.147   2.256  0.00  0.00    +0.278 A 
ATOM     17  N   UNL     1       3.649  -1.490   1.188  0.00  0.00    -0.101 NA
ATOM     18  N   UNL     1       4.911  -1.252   1.268  0.00  0.00    -0.112 NA
ATOM     19  C   UNL     1       5.377  -1.742   2.380  0.00  0.00    +0.215 A 
ATOM     20  O   UNL     1       4.348  -2.315   3.035  0.00  0.00    -0.416 OA
ATOM     21  C   UNL     1       6.807  -1.677   2.851  0.00  0.00    +0.111 C 
ENDBRANCH  15  16
ENDBRANCH   1  15
TORSDOF 6
