REMARK  Name = ZINC44750387
REMARK  5 active torsions:
REMARK  status: ('A' for Active; 'I' for Inactive)
REMARK    1  A    between atoms: C_1  and  C_2
REMARK    2  A    between atoms: C_4  and  N_21
REMARK    3  A    between atoms: C_7  and  C_8
REMARK    4  A    between atoms: C_10  and  C_13
REMARK    5  A    between atoms: C_13  and  C_14
REMARK                            x       y       z     vdW  Elec       q    Type
REMARK                         _______ _______ _______ _____ _____    ______ ____
ROOT
ATOM      1  C   UNL     1       0.172   0.154   2.405  0.00  0.00    +0.259 A 
ATOM      2  N   UNL     1       0.376  -0.317   3.616  0.00  0.00    -0.191 NA
ATOM      3  C   UNL     1       0.388   0.685   4.498  0.00  0.00    +0.176 A 
ATOM      4  N   UNL     1       0.193   1.810   3.870  0.00  0.00    -0.061 NA
ATOM      5  O   UNL     1       0.054   1.490   2.493  0.00  0.00    -0.333 OA
ENDROOT
BRANCH   1  12
ATOM      6  C   UNL     1      -1.974   0.639   0.530  0.00  0.00    +0.044 C 
ATOM      7  C   UNL     1      -0.938  -0.419   0.252  0.00  0.00    -0.036 A 
ATOM      8  C   UNL     1      -1.005  -1.161  -0.906  0.00  0.00    +0.026 A 
ATOM      9  C   UNL     1      -0.049  -2.139  -1.164  0.00  0.00    +0.025 A 
ATOM     10  C   UNL     1       0.977  -2.369  -0.253  0.00  0.00    +0.023 A 
ATOM     11  C   UNL     1       1.050  -1.631   0.907  0.00  0.00    +0.015 A 
ATOM     12  C   UNL     1       0.094  -0.644   1.166  0.00  0.00    +0.042 A 
BRANCH   9  13
ATOM     13  N   UNL     1      -0.119  -2.888  -2.336  0.00  0.00    -0.358 N 
ATOM     14  H   UNL     1      -0.834  -2.728  -2.971  0.00  0.00    +0.142 HD
ATOM     15  H   UNL     1       0.547  -3.569  -2.516  0.00  0.00    +0.142 HD
ENDBRANCH   9  13
ENDBRANCH   1  12
BRANCH   3  16
ATOM     16  C   UNL     1       0.593   0.538   5.984  0.00  0.00    +0.117 C 
BRANCH  16  17
ATOM     17  C   UNL     1       2.063   0.632   6.299  0.00  0.00    -0.005 A 
ATOM     18  C   UNL     1       2.821  -0.519   6.409  0.00  0.00    +0.007 A 
ATOM     19  C   UNL     1       4.170  -0.434   6.698  0.00  0.00    +0.000 A 
ATOM     20  C   UNL     1       4.763   0.802   6.878  0.00  0.00    +0.003 A 
ATOM     21  C   UNL     1       4.008   1.954   6.769  0.00  0.00    +0.038 A 
ATOM     22  C   UNL     1       2.657   1.870   6.474  0.00  0.00    +0.127 A 
ATOM     23  F   UNL     1       1.918   2.996   6.362  0.00  0.00    -0.205 F 
ENDBRANCH  16  17
ENDBRANCH   3  16
TORSDOF 4
