REMARK  Name = ZINC17326308
REMARK  6 active torsions:
REMARK  status: ('A' for Active; 'I' for Inactive)
REMARK    1  A    between atoms: C_1  and  C_2
REMARK    2  A    between atoms: C_2  and  C_4
REMARK    3  A    between atoms: C_10  and  C_35
REMARK    4  A    between atoms: C_20  and  C_34
REMARK    5  A    between atoms: C_23  and  O_26
REMARK    6  A    between atoms: O_26  and  C_27
REMARK                            x       y       z     vdW  Elec       q    Type
REMARK                         _______ _______ _______ _____ _____    ______ ____
ROOT
ATOM      1  C   UNL     1       9.386  -1.139   2.441  0.00  0.00    +0.061 C 
ATOM      2  C   UNL     1       8.291  -1.705   3.374  0.00  0.00    +0.012 C 
ATOM      3  C   UNL     1       7.553  -0.447   3.900  0.00  0.00    +0.005 C 
ATOM      4  C   UNL     1       7.531   0.473   2.642  0.00  0.00    -0.001 C 
ATOM      5  C   UNL     1       8.914   0.280   2.027  0.00  0.00    -0.019 C 
ATOM      6  C   UNL     1       9.041   0.566   0.564  0.00  0.00    +0.008 C 
ATOM      7  C   UNL     1       7.878   0.089  -0.278  0.00  0.00    +0.005 C 
ATOM      8  C   UNL     1       6.555   0.556   0.330  0.00  0.00    +0.003 C 
ATOM      9  C   UNL     1       6.422  -0.038   1.730  0.00  0.00    +0.000 C 
ATOM     10  C   UNL     1       6.486  -1.564   1.615  0.00  0.00    +0.031 C 
ATOM     11  C   UNL     1       5.358  -2.015   0.723  0.00  0.00    -0.027 C 
ATOM     12  C   UNL     1       4.871  -1.250  -0.211  0.00  0.00    -0.065 C 
ATOM     13  C   UNL     1       5.404   0.110  -0.553  0.00  0.00    -0.008 C 
ATOM     14  C   UNL     1       4.261   1.125  -0.497  0.00  0.00    +0.014 C 
ATOM     15  C   UNL     1       3.138   0.658  -1.424  0.00  0.00    +0.033 C 
ATOM     16  C   UNL     1       2.585  -0.685  -0.947  0.00  0.00    +0.125 C 
ATOM     17  C   UNL     1       3.683  -1.752  -1.015  0.00  0.00    +0.062 C 
ATOM     18  C   UNL     1       5.913   0.061  -1.995  0.00  0.00    +0.016 C 
ATOM     19  C   UNL     1       9.844   1.268   2.734  0.00  0.00    +0.012 C 
ENDROOT
BRANCH   1  21
ATOM     20  C   UNL     1       8.835  -3.348   1.165  0.00  0.00    +0.086 C 
ATOM     21  C   UNL     1       9.531  -2.013   1.222  0.00  0.00    +0.134 C 
ATOM     22  O   UNL     1      10.205  -1.643   0.291  0.00  0.00    -0.297 OA
ENDBRANCH   1  21
BRANCH  16  23
ATOM     23  O   UNL     1       2.128  -0.559   0.401  0.00  0.00    -0.348 OA
BRANCH  23  24
ATOM     24  C   UNL     1       1.041  -1.426   0.730  0.00  0.00    +0.250 C 
ATOM     25  C   UNL     1       0.475  -1.039   2.099  0.00  0.00    +0.061 C 
ATOM     26  C   UNL     1      -0.649  -2.010   2.471  0.00  0.00    +0.007 C 
ATOM     27  C   UNL     1      -0.101  -3.440   2.452  0.00  0.00    +0.028 C 
ATOM     28  C   UNL     1       0.487  -3.735   1.070  0.00  0.00    +0.163 C 
ATOM     29  O   UNL     1       1.505  -2.777   0.773  0.00  0.00    -0.351 OA
ENDBRANCH  23  24
ENDBRANCH  16  23
TORSDOF 3
