REMARK  Name = ZINC65609478
REMARK  5 active torsions:
REMARK  status: ('A' for Active; 'I' for Inactive)
REMARK    1  A    between atoms: C_1  and  C_2
REMARK    2  A    between atoms: C_5  and  N_8
REMARK    3  A    between atoms: C_11  and  N_14
REMARK    4  A    between atoms: N_14  and  C_15
REMARK    5  A    between atoms: C_22  and  C_24
REMARK                            x       y       z     vdW  Elec       q    Type
REMARK                         _______ _______ _______ _____ _____    ______ ____
ROOT
ATOM      1  N   UNL     1      -4.172   0.124   7.383  0.00  0.00    -0.285 N 
ATOM      2  C   UNL     1      -4.254   1.581   7.518  0.00  0.00    +0.134 C 
ATOM      3  C   UNL     1      -4.708  -0.671   8.330  0.00  0.00    +0.308 C 
ATOM      4  O   UNL     1      -4.640  -1.880   8.218  0.00  0.00    -0.252 OA
ATOM      5  N   UNL     1      -5.318  -0.127   9.401  0.00  0.00    -0.247 N 
ATOM      6  C   UNL     1      -5.870  -0.948  10.379  0.00  0.00    +0.189 A 
ATOM      7  N   UNL     1      -5.895  -2.265  10.442  0.00  0.00    -0.126 NA
ATOM      8  N   UNL     1      -6.440  -2.877  11.404  0.00  0.00    -0.144 NA
ATOM      9  C   UNL     1      -7.000  -2.180  12.372  0.00  0.00    +0.107 A 
ATOM     10  S   UNL     1      -6.677  -0.519  11.796  0.00  0.00    -0.035 S 
ATOM     11  H   UNL     1      -5.372   0.837   9.491  0.00  0.00    +0.158 HD
ENDROOT
BRANCH   1  15
ATOM     12  N   UNL     1      -2.097  -0.073   3.720  0.00  0.00    +0.382 N 
ATOM     13  C   UNL     1      -3.477  -0.575   3.724  0.00  0.00    -0.077 C 
ATOM     14  C   UNL     1      -4.221  -0.018   4.940  0.00  0.00    +0.004 C 
ATOM     15  C   UNL     1      -3.509  -0.468   6.218  0.00  0.00    +0.074 C 
ATOM     16  C   UNL     1      -2.051  -0.003   6.169  0.00  0.00    +0.004 C 
ATOM     17  C   UNL     1      -1.386  -0.560   4.908  0.00  0.00    -0.077 C 
ATOM     18  H   UNL     1      -2.108   0.936   3.726  0.00  0.00    -0.081 HD
BRANCH  12  23
ATOM     19  C   UNL     1      -0.019   1.526   0.010  0.00  0.00    +0.007 C 
ATOM     20  C   UNL     1       0.002  -0.004   0.002  0.00  0.00    -0.014 C 
ATOM     21  C   UNL     1      -1.433  -0.534   0.013  0.00  0.00    +0.002 C 
ATOM     22  C   UNL     1      -2.149  -0.040   1.272  0.00  0.00    -0.015 C 
ATOM     23  C   UNL     1      -1.409  -0.547   2.511  0.00  0.00    -0.069 C 
ATOM     24  C   UNL     1       0.026  -0.018   2.500  0.00  0.00    -0.015 C 
ATOM     25  C   UNL     1       0.742  -0.511   1.242  0.00  0.00    +0.002 C 
ENDBRANCH  12  23
ENDBRANCH   1  15
BRANCH   9  26
ATOM     26  C   UNL     1      -7.708  -2.651  13.617  0.00  0.00    +0.047 C 
ATOM     27  C   UNL     1      -6.747  -3.486  14.465  0.00  0.00    +0.010 C 
ATOM     28  C   UNL     1      -7.466  -3.964  15.729  0.00  0.00    +0.001 C 
ATOM     29  C   UNL     1      -8.674  -4.817  15.336  0.00  0.00    +0.000 C 
ATOM     30  C   UNL     1      -9.634  -3.982  14.488  0.00  0.00    +0.001 C 
ATOM     31  C   UNL     1      -8.916  -3.504  13.224  0.00  0.00    +0.010 C 
ENDBRANCH   9  26
TORSDOF 3
