REMARK  Name = ZINC15086806
REMARK  11 active torsions:
REMARK  status: ('A' for Active; 'I' for Inactive)
REMARK    1  A    between atoms: C_1  and  C_2
REMARK    2  A    between atoms: C_2  and  C_3
REMARK    3  A    between atoms: C_2  and  C_4
REMARK    4  A    between atoms: C_4  and  N_5
REMARK    5  A    between atoms: N_5  and  C_6
REMARK    6  A    between atoms: C_7  and  N_22
REMARK    7  A    between atoms: N_8  and  C_15
REMARK    8  A    between atoms: C_15  and  C_16
REMARK    9  A    between atoms: C_23  and  C_25
REMARK   10  A    between atoms: C_25  and  N_26
REMARK   11  A    between atoms: N_26  and  C_27
REMARK                            x       y       z     vdW  Elec       q    Type
REMARK                         _______ _______ _______ _____ _____    ______ ____
ROOT
ATOM      1  C   UNL     1       1.173   2.870   0.137  0.00  0.00    +0.140 A 
ATOM      2  C   UNL     1       0.791   2.101   1.217  0.00  0.00    +0.128 A 
ATOM      3  N   UNL     1      -0.400   1.415   1.166  0.00  0.00    -0.276 N 
ATOM      4  C   UNL     1      -1.187   1.497   0.078  0.00  0.00    +0.331 A 
ATOM      5  O   UNL     1      -2.239   0.887   0.054  0.00  0.00    -0.246 OA
ATOM      6  N   UNL     1      -0.829   2.238  -0.986  0.00  0.00    -0.273 N 
ATOM      7  H   UNL     1      -1.428   2.276  -1.786  0.00  0.00    +0.173 HD
ATOM      8  C   UNL     1       0.328   2.929  -0.987  0.00  0.00    +0.277 A 
ATOM      9  O   UNL     1       0.641   3.600  -1.956  0.00  0.00    -0.266 OA
ENDROOT
BRANCH   1  10
ATOM     10  N   UNL     1       2.389   3.585   0.159  0.00  0.00    -0.263 N 
ATOM     11  C   UNL     1       2.381   4.932   0.074  0.00  0.00    +0.237 C 
ATOM     12  O   UNL     1       1.327   5.533   0.072  0.00  0.00    -0.274 OA
BRANCH  10  13
ATOM     13  C   UNL     1       3.660   2.866   0.274  0.00  0.00    +0.117 C 
BRANCH  13  15
ATOM     14  C   UNL     1       5.640   2.021  -0.994  0.00  0.00    +0.009 C 
ATOM     15  C   UNL     1       4.248   2.644  -1.121  0.00  0.00    +0.001 C 
ATOM     16  C   UNL     1       3.339   1.705  -1.915  0.00  0.00    +0.009 C 
ENDBRANCH  13  15
ENDBRANCH  10  13
BRANCH  11  17
ATOM     17  C   UNL     1       3.681   5.689  -0.018  0.00  0.00    +0.198 C 
BRANCH  17  18
ATOM     18  N   UNL     1       3.405   7.125  -0.099  0.00  0.00    -0.334 N 
ATOM     19  H   UNL     1       2.489   7.444  -0.088  0.00  0.00    +0.147 HD
BRANCH  18  20
ATOM     20  C   UNL     1       4.461   8.036  -0.192  0.00  0.00    +0.046 A 
ATOM     21  C   UNL     1       5.773   7.580  -0.208  0.00  0.00    +0.026 A 
ATOM     22  C   UNL     1       6.815   8.482  -0.300  0.00  0.00    +0.022 A 
ATOM     23  C   UNL     1       6.554   9.839  -0.377  0.00  0.00    +0.042 A 
ATOM     24  C   UNL     1       5.248  10.296  -0.361  0.00  0.00    +0.041 A 
ATOM     25  C   UNL     1       4.201   9.399  -0.275  0.00  0.00    +0.063 A 
ATOM     26 CL   UNL     1       2.563   9.972  -0.264  0.00  0.00    -0.082 Cl
ATOM     27 CL   UNL     1       7.867  10.969  -0.493  0.00  0.00    -0.083 Cl
ENDBRANCH  18  20
ENDBRANCH  17  18
ENDBRANCH  11  17
ENDBRANCH   1  10
BRANCH   2  28
ATOM     28  N   UNL     1       1.592   2.020   2.331  0.00  0.00    -0.343 N 
ATOM     29  H   UNL     1       2.383   2.578   2.401  0.00  0.00    +0.144 HD
ATOM     30  H   UNL     1       1.367   1.406   3.047  0.00  0.00    +0.144 HD
ENDBRANCH   2  28
BRANCH   3  31
ATOM     31  C   UNL     1      -0.818   0.595   2.306  0.00  0.00    +0.163 C 
BRANCH  31  32
ATOM     32  C   UNL     1      -1.630   1.434   3.258  0.00  0.00    -0.028 A 
ATOM     33  C   UNL     1      -1.003   2.118   4.283  0.00  0.00    +0.005 A 
ATOM     34  C   UNL     1      -1.748   2.892   5.154  0.00  0.00    +0.000 A 
ATOM     35  C   UNL     1      -3.120   2.973   5.006  0.00  0.00    +0.000 A 
ATOM     36  C   UNL     1      -3.747   2.285   3.984  0.00  0.00    +0.000 A 
ATOM     37  C   UNL     1      -3.002   1.515   3.110  0.00  0.00    +0.005 A 
ENDBRANCH  31  32
ENDBRANCH   3  31
TORSDOF 9
