REMARK  Name = ZINC15016035
REMARK  8 active torsions:
REMARK  status: ('A' for Active; 'I' for Inactive)
REMARK    1  A    between atoms: C_1  and  C_2
REMARK    2  A    between atoms: C_2  and  O_3
REMARK    3  A    between atoms: O_3  and  C_4
REMARK    4  A    between atoms: C_6  and  C_11
REMARK    5  A    between atoms: C_9  and  O_10
REMARK    6  A    between atoms: C_23  and  S_26
REMARK    7  A    between atoms: S_26  and  C_27
REMARK    8  A    between atoms: C_27  and  C_28
REMARK                            x       y       z     vdW  Elec       q    Type
REMARK                         _______ _______ _______ _____ _____    ______ ____
ROOT
ATOM      1  C   UNL     1      -4.520  -3.592   1.214  0.00  0.00    +0.294 C 
ATOM      2  N   UNL     1      -5.416  -2.626   1.841  0.00  0.00    -0.305 N 
ATOM      3  C   UNL     1      -6.327  -1.932   1.038  0.00  0.00    +0.039 A 
ATOM      4  C   UNL     1      -7.686  -2.175   1.115  0.00  0.00    +0.024 A 
ATOM      5  C   UNL     1      -8.555  -1.496   0.281  0.00  0.00    +0.002 A 
ATOM      6  C   UNL     1      -8.073  -0.574  -0.632  0.00  0.00    +0.001 A 
ATOM      7  C   UNL     1      -6.718  -0.316  -0.717  0.00  0.00    +0.012 A 
ATOM      8  C   UNL     1      -5.834  -0.986   0.119  0.00  0.00    +0.028 A 
ATOM      9  C   UNL     1      -4.380  -0.731   0.072  0.00  0.00    +0.156 A 
ATOM     10  C   UNL     1      -3.481  -1.820   0.026  0.00  0.00    +0.248 A 
ATOM     11  N   UNL     1      -2.183  -1.572  -0.010  0.00  0.00    -0.184 NA
ATOM     12  C   UNL     1      -1.761  -0.311   0.004  0.00  0.00    +0.213 A 
ATOM     13  N   UNL     1      -2.622   0.699   0.042  0.00  0.00    -0.122 NA
ATOM     14  N   UNL     1      -3.895   0.501   0.076  0.00  0.00    -0.141 NA
ATOM     15  O   UNL     1      -3.958  -3.087   0.008  0.00  0.00    -0.449 OA
ATOM     16  H   UNL     1      -5.382  -2.468   2.797  0.00  0.00    +0.150 HD
ENDROOT
BRANCH   1  19
ATOM     17  C   UNL     1      -5.759  -6.694  -0.551  0.00  0.00    +0.162 A 
ATOM     18  C   UNL     1      -5.051  -5.537  -0.268  0.00  0.00    +0.058 A 
ATOM     19  C   UNL     1      -5.290  -4.851   0.908  0.00  0.00    +0.015 A 
ATOM     20  C   UNL     1      -6.232  -5.319   1.806  0.00  0.00    +0.013 A 
ATOM     21  C   UNL     1      -6.945  -6.469   1.527  0.00  0.00    +0.049 A 
ATOM     22  C   UNL     1      -6.710  -7.162   0.351  0.00  0.00    +0.158 A 
BRANCH  22  23
ATOM     23  O   UNL     1      -7.407  -8.297   0.077  0.00  0.00    -0.503 OA
ATOM     24  H   UNL     1      -6.988  -9.105   0.405  0.00  0.00    +0.292 HD
ENDBRANCH  22  23
BRANCH  17  25
ATOM     25  O   UNL     1      -5.525  -7.370  -1.707  0.00  0.00    -0.489 OA
BRANCH  25  27
ATOM     26  C   UNL     1      -4.412  -7.721  -3.823  0.00  0.00    +0.048 C 
ATOM     27  C   UNL     1      -4.535  -6.831  -2.585  0.00  0.00    +0.226 C 
ENDBRANCH  25  27
ENDBRANCH  17  25
ENDBRANCH   1  19
BRANCH  12  28
ATOM     28  S   UNL     1      -0.032   0.026  -0.035  0.00  0.00    -0.080 S 
BRANCH  28  29
ATOM     29  C   UNL     1      -0.064   1.835  -0.007  0.00  0.00    +0.112 C 
BRANCH  29  30
ATOM     30  C   UNL     1       1.348   2.363  -0.035  0.00  0.00    -0.037 A 
ATOM     31  C   UNL     1       2.024   2.592   1.149  0.00  0.00    +0.006 A 
ATOM     32  C   UNL     1       3.320   3.070   1.123  0.00  0.00    +0.020 A 
ATOM     33  C   UNL     1       3.938   3.331  -0.087  0.00  0.00    +0.041 A 
ATOM     34  C   UNL     1       3.259   3.107  -1.272  0.00  0.00    +0.020 A 
ATOM     35  C   UNL     1       1.964   2.623  -1.245  0.00  0.00    +0.006 A 
ATOM     36 CL   UNL     1       5.564   3.938  -0.120  0.00  0.00    -0.084 Cl
ENDBRANCH  29  30
ENDBRANCH  28  29
ENDBRANCH  12  28
TORSDOF 7
