REMARK  Name = ZINC36571169
REMARK  14 active torsions:
REMARK  status: ('A' for Active; 'I' for Inactive)
REMARK    1  A    between atoms: C_1  and  C_2
REMARK    2  A    between atoms: C_2  and  C_3
REMARK    3  A    between atoms: C_3  and  N_4
REMARK    4  A    between atoms: N_4  and  C_5
REMARK    5  A    between atoms: C_5  and  C_7
REMARK    6  A    between atoms: C_5  and  C_14
REMARK    7  A    between atoms: C_10  and  C_13
REMARK    8  A    between atoms: N_16  and  C_17
REMARK    9  A    between atoms: C_17  and  S_18
REMARK   10  A    between atoms: S_18  and  C_21
REMARK   11  A    between atoms: C_24  and  C_27
REMARK   12  A    between atoms: C_28  and  C_30
REMARK   13  A    between atoms: C_31  and  O_37
REMARK   14  A    between atoms: C_35  and  O_36
REMARK                            x       y       z     vdW  Elec       q    Type
REMARK                         _______ _______ _______ _____ _____    ______ ____
ROOT
ATOM      1  C   UNL     1      -1.582  -2.717   1.153  0.00  0.00    +0.192 C 
ENDROOT
BRANCH   1   2
ATOM      2  C   UNL     1      -2.925  -2.489   1.797  0.00  0.00    -0.018 A 
ATOM      3  C   UNL     1      -3.438  -1.209   1.893  0.00  0.00    +0.006 A 
ATOM      4  C   UNL     1      -4.670  -1.000   2.483  0.00  0.00    +0.004 A 
ATOM      5  C   UNL     1      -5.391  -2.072   2.977  0.00  0.00    -0.050 A 
ATOM      6  C   UNL     1      -4.879  -3.353   2.879  0.00  0.00    +0.004 A 
ATOM      7  C   UNL     1      -3.648  -3.562   2.285  0.00  0.00    +0.006 A 
ATOM      8  C   UNL     1      -6.734  -1.845   3.621  0.00  0.00    +0.044 C 
ENDBRANCH   1   2
BRANCH   1   9
ATOM      9  C   UNL     1      -0.493  -2.251   2.086  0.00  0.00    +0.239 C 
ATOM     10  O   UNL     1       0.238  -1.341   1.757  0.00  0.00    -0.273 OA
ATOM     11  N   UNL     1      -0.333  -2.846   3.284  0.00  0.00    -0.294 N 
ATOM     12  H   UNL     1      -0.918  -3.573   3.547  0.00  0.00    +0.150 HD
BRANCH  11  13
ATOM     13  C   UNL     1       0.726  -2.393   4.191  0.00  0.00    +0.278 C 
BRANCH  13  14
ATOM     14  S   UNL     1       0.043  -1.190   5.364  0.00  0.00    +0.013 S 
ATOM     15  O   UNL     1       1.043  -0.788   6.291  0.00  0.00    -0.168 OA
ATOM     16  O   UNL     1      -0.736  -0.222   4.675  0.00  0.00    -0.168 OA
BRANCH  14  17
ATOM     17  C   UNL     1      -1.119  -2.102   6.324  0.00  0.00    +0.090 A 
ATOM     18  C   UNL     1      -2.436  -2.191   5.914  0.00  0.00    +0.027 A 
ATOM     19  C   UNL     1      -3.348  -2.906   6.668  0.00  0.00    +0.005 A 
ATOM     20  C   UNL     1      -2.942  -3.535   7.830  0.00  0.00    -0.050 A 
ATOM     21  C   UNL     1      -1.625  -3.447   8.239  0.00  0.00    +0.005 A 
ATOM     22  C   UNL     1      -0.712  -2.735   7.484  0.00  0.00    +0.027 A 
ATOM     23  C   UNL     1      -3.936  -4.314   8.652  0.00  0.00    +0.044 C 
ENDBRANCH  14  17
ENDBRANCH  13  14
ENDBRANCH  11  13
ENDBRANCH   1   9
BRANCH   1  24
ATOM     24  N   UNL     1      -1.507  -1.962  -0.100  0.00  0.00    -0.282 N 
ATOM     25  C   UNL     1      -2.049  -2.470  -1.225  0.00  0.00    +0.255 C 
ATOM     26  O   UNL     1      -2.600  -3.553  -1.200  0.00  0.00    -0.270 OA
BRANCH  25  27
ATOM     27  C   UNL     1      -1.973  -1.711  -2.485  0.00  0.00    +0.119 A 
ATOM     28  C   UNL     1      -0.888  -1.893  -3.355  0.00  0.00    +0.133 A 
ATOM     29  C   UNL     1      -0.827  -1.175  -4.538  0.00  0.00    +0.046 A 
ATOM     30  C   UNL     1      -1.831  -0.282  -4.863  0.00  0.00    +0.007 A 
ATOM     31  C   UNL     1      -2.905  -0.095  -4.013  0.00  0.00    +0.046 A 
ATOM     32  C   UNL     1      -2.989  -0.807  -2.827  0.00  0.00    +0.133 A 
BRANCH  32  33
ATOM     33  O   UNL     1      -4.047  -0.625  -1.997  0.00  0.00    -0.506 OA
ATOM     34  H   UNL     1      -3.917   0.074  -1.342  0.00  0.00    +0.292 HD
ENDBRANCH  32  33
BRANCH  28  35
ATOM     35  O   UNL     1       0.099  -2.769  -3.039  0.00  0.00    -0.506 OA
ATOM     36  H   UNL     1      -0.055  -3.668  -3.361  0.00  0.00    +0.292 HD
ENDBRANCH  28  35
ENDBRANCH  25  27
BRANCH  24  37
ATOM     37  C   UNL     1      -0.843  -0.657  -0.131  0.00  0.00    +0.109 C 
BRANCH  37  39
ATOM     38  C   UNL     1       1.355   0.491  -0.441  0.00  0.00    +0.005 C 
ATOM     39  C   UNL     1       0.601  -0.830  -0.607  0.00  0.00    +0.016 C 
ENDBRANCH  37  39
ENDBRANCH  24  37
ENDBRANCH   1  24
TORSDOF 11
