REMARK  Name = ZINC12652092
REMARK  6 active torsions:
REMARK  status: ('A' for Active; 'I' for Inactive)
REMARK    1  A    between atoms: C_1  and  C_2
REMARK    2  A    between atoms: C_2  and  C_3
REMARK    3  A    between atoms: C_2  and  C_4
REMARK    4  A    between atoms: C_16  and  C_29
REMARK    5  A    between atoms: C_16  and  C_30
REMARK    6  A    between atoms: C_20  and  C_22
REMARK                            x       y       z     vdW  Elec       q    Type
REMARK                         _______ _______ _______ _____ _____    ______ ____
ROOT
ATOM      1  C   UNL     1       2.644   0.772  -2.971  0.00  0.00    +0.223 C 
ATOM      2  O   UNL     1       2.668   1.779  -3.646  0.00  0.00    -0.275 OA
ATOM      3  N   UNL     1       2.786   0.853  -1.634  0.00  0.00    -0.258 N 
ATOM      4  C   UNL     1       2.873   2.100  -1.039  0.00  0.00    +0.058 A 
ATOM      5  C   UNL     1       3.873   2.997  -1.359  0.00  0.00    +0.025 A 
ATOM      6  C   UNL     1       3.946   4.218  -0.714  0.00  0.00    +0.002 A 
ATOM      7  C   UNL     1       3.016   4.543   0.257  0.00  0.00    +0.002 A 
ATOM      8  C   UNL     1       2.003   3.667   0.579  0.00  0.00    +0.025 A 
ATOM      9  C   UNL     1       1.895   2.431  -0.072  0.00  0.00    +0.053 A 
ATOM     10  N   UNL     1       0.886   1.602   0.220  0.00  0.00    -0.316 N 
ATOM     11  C   UNL     1       0.737   0.337   0.374  0.00  0.00    +0.017 C 
ATOM     12  C   UNL     1      -0.491  -0.075   1.179  0.00  0.00    +0.058 C 
ATOM     13  C   UNL     1      -1.039  -1.391   0.627  0.00  0.00    -0.023 C 
ATOM     14  C   UNL     1       0.055  -2.455   0.760  0.00  0.00    +0.086 C 
ATOM     15  C   UNL     1       1.286  -1.983   0.045  0.00  0.00    +0.163 C 
ATOM     16  C   UNL     1       1.582  -0.678  -0.123  0.00  0.00    +0.037 C 
ATOM     17  C   UNL     1       2.842  -0.361  -0.858  0.00  0.00    +0.147 C 
ATOM     18  O   UNL     1       2.137  -2.907  -0.452  0.00  0.00    -0.292 OA
ATOM     19  C   UNL     1      -1.415  -1.218  -0.845  0.00  0.00    +0.011 C 
ATOM     20  C   UNL     1      -2.271  -1.815   1.429  0.00  0.00    +0.011 C 
ATOM     21  H   UNL     1       0.023   2.276   0.335  0.00  0.00    +0.152 HD
ENDROOT
BRANCH  17  22
ATOM     22  C   UNL     1       3.962  -0.235   0.143  0.00  0.00    -0.022 A 
ATOM     23  C   UNL     1       3.827   0.612   1.227  0.00  0.00    +0.006 A 
ATOM     24  C   UNL     1       4.853   0.725   2.147  0.00  0.00    +0.000 A 
ATOM     25  C   UNL     1       6.016  -0.003   1.979  0.00  0.00    +0.000 A 
ATOM     26  C   UNL     1       6.152  -0.846   0.892  0.00  0.00    +0.000 A 
ATOM     27  C   UNL     1       5.126  -0.962  -0.027  0.00  0.00    +0.006 A 
ENDBRANCH  17  22
BRANCH   1  29
ATOM     28  C   UNL     1       1.013  -1.042  -3.423  0.00  0.00    +0.017 C 
ATOM     29  C   UNL     1       2.455  -0.571  -3.629  0.00  0.00    +0.069 C 
ATOM     30  C   UNL     1       2.742  -0.450  -5.127  0.00  0.00    +0.017 C 
ENDBRANCH   1  29
TORSDOF 2
