REMARK  Name = ZINC52889406
REMARK  9 active torsions:
REMARK  status: ('A' for Active; 'I' for Inactive)
REMARK    1  A    between atoms: C_1  and  C_2
REMARK    2  A    between atoms: C_3  and  C_7
REMARK    3  A    between atoms: C_10  and  S_18
REMARK    4  A    between atoms: N_11  and  C_12
REMARK    5  A    between atoms: S_18  and  C_19
REMARK    6  A    between atoms: C_19  and  C_20
REMARK    7  A    between atoms: C_22  and  C_25
REMARK    8  A    between atoms: C_25  and  C_26
REMARK    9  A    between atoms: C_25  and  C_27
REMARK                            x       y       z     vdW  Elec       q    Type
REMARK                         _______ _______ _______ _____ _____    ______ ____
ROOT
ATOM      1  C   UNL     1      -2.510  -0.400   0.012  0.00  0.00    +0.173 A 
ATOM      2  N   UNL     1      -2.963   0.832   0.015  0.00  0.00    -0.128 NA
ATOM      3  N   UNL     1      -4.248   0.829   0.024  0.00  0.00    -0.122 NA
ATOM      4  C   UNL     1      -4.697  -0.405   0.026  0.00  0.00    +0.197 A 
ATOM      5  N   UNL     1      -3.607  -1.233   0.012  0.00  0.00    -0.270 N 
ENDROOT
BRANCH   1   8
ATOM      6  C   UNL     1      -0.018   1.503   0.010  0.00  0.00    +0.087 C 
ATOM      7  C   UNL     1       0.002  -0.004   0.002  0.00  0.00    +0.112 A 
ATOM      8  C   UNL     1      -1.091  -0.815   0.003  0.00  0.00    +0.060 A 
ATOM      9  C   UNL     1      -0.568  -2.187  -0.007  0.00  0.00    +0.053 A 
ATOM     10  C   UNL     1       0.770  -2.074  -0.013  0.00  0.00    +0.196 A 
ATOM     11  O   UNL     1       1.100  -0.773  -0.013  0.00  0.00    -0.467 OA
ENDBRANCH   1   8
BRANCH   5  12
ATOM     12  C   UNL     1      -3.607  -2.635   0.004  0.00  0.00    +0.051 A 
ATOM     13  C   UNL     1      -3.099  -3.324  -1.088  0.00  0.00    +0.026 A 
ATOM     14  C   UNL     1      -3.099  -4.705  -1.093  0.00  0.00    +0.002 A 
ATOM     15  C   UNL     1      -3.605  -5.402  -0.011  0.00  0.00    +0.000 A 
ATOM     16  C   UNL     1      -4.112  -4.718   1.079  0.00  0.00    +0.002 A 
ATOM     17  C   UNL     1      -4.109  -3.337   1.092  0.00  0.00    +0.026 A 
ENDBRANCH   5  12
BRANCH   4  18
ATOM     18  S   UNL     1      -6.388  -0.902   0.037  0.00  0.00    -0.078 S 
BRANCH  18  19
ATOM     19  C   UNL     1      -7.305   0.663   0.044  0.00  0.00    +0.157 C 
BRANCH  19  20
ATOM     20  C   UNL     1      -8.785   0.378   0.054  0.00  0.00    +0.182 A 
ATOM     21  N   UNL     1      -9.555   0.225  -1.029  0.00  0.00    -0.195 NA
ATOM     22  C   UNL     1     -10.787  -0.011  -0.673  0.00  0.00    +0.230 A 
ATOM     23  O   UNL     1     -10.843  -0.017   0.665  0.00  0.00    -0.338 OA
ATOM     24  N   UNL     1      -9.521   0.233   1.118  0.00  0.00    -0.060 NA
BRANCH  22  25
ATOM     25  C   UNL     1     -11.948  -0.238  -1.606  0.00  0.00    +0.072 C 
ATOM     26  C   UNL     1     -12.544  -1.624  -1.352  0.00  0.00    +0.017 C 
ATOM     27  C   UNL     1     -13.017   0.829  -1.360  0.00  0.00    +0.017 C 
ENDBRANCH  22  25
ENDBRANCH  19  20
ENDBRANCH  18  19
ENDBRANCH   4  18
TORSDOF 6
