REMARK  Name = ZINC39941826
REMARK  6 active torsions:
REMARK  status: ('A' for Active; 'I' for Inactive)
REMARK    1  A    between atoms: C_1  and  C_2
REMARK    2  A    between atoms: C_5  and  S_8
REMARK    3  A    between atoms: S_8  and  O_11
REMARK    4  A    between atoms: O_11  and  C_12
REMARK    5  A    between atoms: C_16  and  C_36
REMARK    6  A    between atoms: C_28  and  C_35
REMARK                            x       y       z     vdW  Elec       q    Type
REMARK                         _______ _______ _______ _____ _____    ______ ____
ROOT
ATOM      1  C   UNL     1       2.342  -4.727   1.097  0.00  0.00    +0.150 C 
ATOM      2  C   UNL     1       3.068  -3.384   1.166  0.00  0.00    +0.034 C 
ATOM      3  C   UNL     1       3.754  -3.236   2.524  0.00  0.00    +0.010 C 
ATOM      4  C   UNL     1       4.739  -4.373   2.759  0.00  0.00    -0.026 C 
ATOM      5  C   UNL     1       4.045  -5.731   2.646  0.00  0.00    -0.002 C 
ATOM      6  C   UNL     1       3.339  -5.867   1.297  0.00  0.00    +0.038 C 
ATOM      7  C   UNL     1       3.038  -5.964   3.769  0.00  0.00    +0.004 C 
ATOM      8  C   UNL     1       3.718  -5.818   5.138  0.00  0.00    +0.004 C 
ATOM      9  C   UNL     1       4.274  -4.400   5.206  0.00  0.00    -0.003 C 
ATOM     10  C   UNL     1       5.371  -4.252   4.147  0.00  0.00    -0.001 C 
ATOM     11  C   UNL     1       6.103  -2.936   4.365  0.00  0.00    +0.005 C 
ATOM     12  C   UNL     1       6.905  -2.973   5.678  0.00  0.00    +0.015 C 
ATOM     13  C   UNL     1       6.287  -3.923   6.668  0.00  0.00    +0.029 C 
ATOM     14  C   UNL     1       4.750  -3.951   6.547  0.00  0.00    +0.006 C 
ATOM     15  C   UNL     1       4.362  -4.803   7.766  0.00  0.00    +0.012 C 
ATOM     16  C   UNL     1       5.356  -4.306   8.853  0.00  0.00    +0.075 C 
ATOM     17  C   UNL     1       6.437  -3.514   8.125  0.00  0.00    +0.139 C 
ATOM     18  O   UNL     1       7.233  -2.741   8.579  0.00  0.00    -0.297 OA
ATOM     19  C   UNL     1       6.904  -5.318   6.545  0.00  0.00    +0.019 C 
ATOM     20  C   UNL     1       5.862  -4.309   1.712  0.00  0.00    +0.012 C 
ENDROOT
BRANCH   1  21
ATOM     21  O   UNL     1       1.718  -4.861  -0.183  0.00  0.00    -0.231 OA
BRANCH  21  22
ATOM     22  S   UNL     1       0.260  -4.426  -0.210  0.00  0.00    +0.112 S 
ATOM     23  O   UNL     1      -0.316  -4.861   1.015  0.00  0.00    -0.142 OA
ATOM     24  O   UNL     1      -0.257  -4.815  -1.475  0.00  0.00    -0.142 OA
BRANCH  22  29
ATOM     25  C   UNL     1       0.193   1.606  -0.100  0.00  0.00    +0.044 C 
ATOM     26  C   UNL     1       0.210   0.099  -0.128  0.00  0.00    -0.050 A 
ATOM     27  C   UNL     1       0.247  -0.570  -1.337  0.00  0.00    +0.005 A 
ATOM     28  C   UNL     1       0.263  -1.952  -1.362  0.00  0.00    +0.030 A 
ATOM     29  C   UNL     1       0.241  -2.665  -0.178  0.00  0.00    +0.117 A 
ATOM     30  C   UNL     1       0.205  -1.996   1.032  0.00  0.00    +0.030 A 
ATOM     31  C   UNL     1       0.194  -0.614   1.057  0.00  0.00    +0.005 A 
ENDBRANCH  22  29
ENDBRANCH  21  22
ENDBRANCH   1  21
TORSDOF 3
