REMARK  Name = ZINC40780467
REMARK  3 active torsions:
REMARK  status: ('A' for Active; 'I' for Inactive)
REMARK    1  A    between atoms: C_12  and  N_25
REMARK    2  A    between atoms: C_13  and  N_17
REMARK    3  A    between atoms: N_17  and  C_18
REMARK                            x       y       z     vdW  Elec       q    Type
REMARK                         _______ _______ _______ _____ _____    ______ ____
ROOT
ATOM      1  C   UNL     1      -0.890  -2.287  -2.021  0.00  0.00    +0.000 A 
ATOM      2  C   UNL     1      -1.110  -1.716  -0.781  0.00  0.00    +0.000 A 
ATOM      3  C   UNL     1      -0.043  -1.464   0.056  0.00  0.00    +0.005 A 
ATOM      4  C   UNL     1       1.250  -1.784  -0.336  0.00  0.00    -0.027 A 
ATOM      5  C   UNL     1       1.471  -2.362  -1.566  0.00  0.00    -0.041 A 
ATOM      6  C   UNL     1       0.394  -2.607  -2.410  0.00  0.00    +0.004 A 
ATOM      7  C   UNL     1       2.840  -2.764  -2.047  0.00  0.00    +0.054 C 
ATOM      8  C   UNL     1       3.928  -2.022  -1.272  0.00  0.00    +0.111 C 
ATOM      9  N   UNL     1       3.608  -2.116   0.162  0.00  0.00    -0.309 N 
ATOM     10  C   UNL     1       2.373  -1.470   0.620  0.00  0.00    +0.142 C 
ATOM     11  C   UNL     1       4.442  -2.791   1.046  0.00  0.00    +0.148 A 
ATOM     12  C   UNL     1       5.538  -2.144   1.620  0.00  0.00    +0.106 A 
ATOM     13  C   UNL     1       6.343  -2.867   2.501  0.00  0.00    +0.149 A 
ATOM     14  N   UNL     1       6.038  -4.137   2.758  0.00  0.00    -0.219 NA
ATOM     15  C   UNL     1       4.994  -4.710   2.195  0.00  0.00    +0.225 A 
ATOM     16  N   UNL     1       4.205  -4.061   1.362  0.00  0.00    -0.219 NA
ENDROOT
BRANCH  12  17
ATOM     17  N   UNL     1       5.822  -0.802   1.319  0.00  0.00    -0.353 N 
ATOM     18  H   UNL     1       5.215  -0.290   0.763  0.00  0.00    +0.143 HD
ATOM     19  H   UNL     1       6.627  -0.387   1.667  0.00  0.00    +0.143 HD
ENDBRANCH  12  17
BRANCH  13  20
ATOM     20  N   UNL     1       7.447  -2.271   3.100  0.00  0.00    -0.297 N 
ATOM     21  H   UNL     1       7.613  -1.323   2.976  0.00  0.00    +0.154 HD
BRANCH  20  22
ATOM     22  C   UNL     1       8.317  -3.037   3.881  0.00  0.00    +0.047 A 
ATOM     23  C   UNL     1       8.417  -4.407   3.673  0.00  0.00    +0.024 A 
ATOM     24  C   UNL     1       9.278  -5.161   4.446  0.00  0.00    +0.002 A 
ATOM     25  C   UNL     1      10.040  -4.554   5.427  0.00  0.00    +0.001 A 
ATOM     26  C   UNL     1       9.944  -3.191   5.638  0.00  0.00    +0.017 A 
ATOM     27  C   UNL     1       9.089  -2.429   4.864  0.00  0.00    +0.039 A 
ATOM     28 BR   UNL     1       8.963  -0.564   5.149  0.00  0.00    -0.048 Br
ENDBRANCH  20  22
ENDBRANCH  13  20
TORSDOF 3
