REMARK  Name = ZINC01707626
REMARK  4 active torsions:
REMARK  status: ('A' for Active; 'I' for Inactive)
REMARK    1  A    between atoms: C_1  and  C_2
REMARK    2  A    between atoms: C_2  and  C_4
REMARK    3  A    between atoms: C_4  and  C_16
REMARK    4  A    between atoms: C_8  and  C_10
REMARK                            x       y       z     vdW  Elec       q    Type
REMARK                         _______ _______ _______ _____ _____    ______ ____
ROOT
ATOM      1  C   UNL     1      -0.070   5.347   0.030  0.00  0.00    +0.253 C 
ATOM      2  C   UNL     1      -1.272   5.863  -0.735  0.00  0.00    +0.215 C 
ATOM      3  O   UNL     1      -2.446   5.667  -0.487  0.00  0.00    -0.287 OA
ATOM      4  C   UNL     1      -0.737   6.614  -1.791  0.00  0.00    +0.097 C 
ATOM      5  C   UNL     1       0.620   6.590  -1.722  0.00  0.00    +0.134 C 
ATOM      6  O   UNL     1       1.062   5.865  -0.678  0.00  0.00    -0.465 OA
ENDROOT
BRANCH   5   7
ATOM      7  C   UNL     1       1.504   7.279  -2.679  0.00  0.00    +0.017 A 
ATOM      8  C   UNL     1       2.892   7.207  -2.530  0.00  0.00    +0.011 A 
ATOM      9  C   UNL     1       3.714   7.848  -3.433  0.00  0.00    +0.001 A 
ATOM     10  C   UNL     1       3.167   8.573  -4.478  0.00  0.00    +0.000 A 
ATOM     11  C   UNL     1       1.793   8.653  -4.629  0.00  0.00    +0.001 A 
ATOM     12  C   UNL     1       0.959   8.012  -3.737  0.00  0.00    +0.011 A 
ENDBRANCH   5   7
BRANCH   1  13
ATOM     13  C   UNL     1      -0.050   3.840   0.022  0.00  0.00    +0.011 A 
ATOM     14  C   UNL     1       1.156   3.165   0.008  0.00  0.00    +0.008 A 
ATOM     15  C   UNL     1       1.175   1.783   0.000  0.00  0.00    +0.000 A 
ATOM     16  C   UNL     1      -0.013   1.076   0.008  0.00  0.00    +0.000 A 
ATOM     17  C   UNL     1      -1.219   1.751   0.017  0.00  0.00    +0.000 A 
ATOM     18  C   UNL     1      -1.238   3.133   0.029  0.00  0.00    +0.008 A 
ENDBRANCH   1  13
BRANCH   1  20
ATOM     19  C   UNL     1       0.446   7.240   1.751  0.00  0.00    +0.091 C 
ATOM     20  C   UNL     1      -0.086   5.864   1.446  0.00  0.00    +0.186 C 
ATOM     21  O   UNL     1      -0.523   5.174   2.335  0.00  0.00    -0.293 OA
ENDBRANCH   1  20
TORSDOF 3
