REMARK  Name = ZINC33870862
REMARK  9 active torsions:
REMARK  status: ('A' for Active; 'I' for Inactive)
REMARK    1  A    between atoms: C_1  and  C_2
REMARK    2  A    between atoms: C_5  and  C_39
REMARK    3  A    between atoms: C_6  and  C_8
REMARK    4  A    between atoms: N_16  and  C_19
REMARK    5  A    between atoms: C_19  and  C_20
REMARK    6  A    between atoms: C_26  and  C_28
REMARK    7  A    between atoms: C_26  and  C_36
REMARK    8  A    between atoms: C_28  and  C_29
REMARK    9  A    between atoms: C_32  and  O_35
REMARK                            x       y       z     vdW  Elec       q    Type
REMARK                         _______ _______ _______ _____ _____    ______ ____
ROOT
ATOM      1  C   UNL     1       0.135  -3.213   2.230  0.00  0.00    -0.026 C 
ATOM      2  C   UNL     1       1.580  -3.568   2.564  0.00  0.00    +0.077 C 
ATOM      3  C   UNL     1       1.317  -4.114   4.019  0.00  0.00    +0.086 C 
ATOM      4  C   UNL     1       2.524  -4.859   4.282  0.00  0.00    +0.225 C 
ATOM      5  O   UNL     1       3.087  -5.000   5.346  0.00  0.00    -0.275 OA
ATOM      6  N   UNL     1       2.896  -5.373   3.064  0.00  0.00    -0.237 N 
ATOM      7  C   UNL     1       2.220  -4.801   2.007  0.00  0.00    +0.225 C 
ATOM      8  O   UNL     1       2.149  -5.207   0.867  0.00  0.00    -0.275 OA
ATOM      9  C   UNL     1       0.481  -3.072   4.628  0.00  0.00    +0.052 C 
ATOM     10  N   UNL     1      -0.353  -2.548   3.483  0.00  0.00    +0.396 N 
ATOM     11  H   UNL     1      -0.230  -1.549   3.410  0.00  0.00    -0.083 HD
ATOM     12  H   UNL     1      -1.327  -2.764   3.628  0.00  0.00    -0.083 HD
ENDROOT
BRANCH   1  18
ATOM     13  C   UNL     1       2.443  -0.148  -0.983  0.00  0.00    +0.044 C 
ATOM     14  C   UNL     1       1.181  -0.793  -0.473  0.00  0.00    -0.050 A 
ATOM     15  C   UNL     1      -0.032  -0.511  -1.075  0.00  0.00    +0.003 A 
ATOM     16  C   UNL     1      -1.190  -1.103  -0.607  0.00  0.00    +0.004 A 
ATOM     17  C   UNL     1      -1.136  -1.978   0.463  0.00  0.00    -0.049 A 
ATOM     18  C   UNL     1       0.076  -2.260   1.064  0.00  0.00    -0.057 A 
ATOM     19  C   UNL     1       1.235  -1.671   0.594  0.00  0.00    +0.005 A 
ATOM     20  C   UNL     1      -2.399  -2.622   0.973  0.00  0.00    +0.044 C 
ENDBRANCH   1  18
BRANCH   9  21
ATOM     21  C   UNL     1       1.343  -1.988   5.223  0.00  0.00    +0.347 C 
ATOM     22  O   UNL     1       1.240  -0.840   4.825  0.00  0.00    -0.248 OA
ATOM     23  O   UNL     1       2.143  -2.259   6.102  0.00  0.00    -0.248 OA
ENDBRANCH   9  21
BRANCH   6  24
ATOM     24  C   UNL     1       3.916  -6.412   2.900  0.00  0.00    +0.151 C 
BRANCH  24  25
ATOM     25  C   UNL     1       3.263  -7.769   2.960  0.00  0.00    -0.030 A 
ATOM     26  C   UNL     1       3.123  -8.416   4.174  0.00  0.00    +0.005 A 
ATOM     27  C   UNL     1       2.525  -9.661   4.229  0.00  0.00    +0.000 A 
ATOM     28  C   UNL     1       2.067 -10.259   3.071  0.00  0.00    +0.000 A 
ATOM     29  C   UNL     1       2.206  -9.613   1.857  0.00  0.00    +0.000 A 
ATOM     30  C   UNL     1       2.800  -8.366   1.802  0.00  0.00    +0.005 A 
ENDBRANCH  24  25
ENDBRANCH   6  24
BRANCH   9  31
ATOM     31  C   UNL     1      -0.430  -3.677   5.698  0.00  0.00    +0.035 C 
BRANCH  31  32
ATOM     32  C   UNL     1      -1.362  -2.616   6.223  0.00  0.00    -0.048 A 
ATOM     33  C   UNL     1      -0.986  -1.840   7.304  0.00  0.00    +0.007 A 
ATOM     34  C   UNL     1      -1.839  -0.867   7.787  0.00  0.00    +0.045 A 
ATOM     35  C   UNL     1      -3.074  -0.668   7.187  0.00  0.00    +0.117 A 
ATOM     36  C   UNL     1      -3.449  -1.447   6.102  0.00  0.00    +0.045 A 
ATOM     37  C   UNL     1      -2.590  -2.416   5.619  0.00  0.00    +0.007 A 
BRANCH  35  38
ATOM     38  O   UNL     1      -3.915   0.289   7.660  0.00  0.00    -0.507 OA
ATOM     39  H   UNL     1      -3.797   1.156   7.249  0.00  0.00    +0.292 HD
ENDBRANCH  35  38
ENDBRANCH  31  32
ENDBRANCH   9  31
TORSDOF 7
