REMARK  Name = ZINC02560014
REMARK  12 active torsions:
REMARK  status: ('A' for Active; 'I' for Inactive)
REMARK    1  A    between atoms: C_1  and  C_2
REMARK    2  A    between atoms: C_2  and  C_3
REMARK    3  A    between atoms: C_2  and  C_4
REMARK    4  A    between atoms: C_2  and  O_5
REMARK    5  A    between atoms: O_5  and  C_6
REMARK    6  A    between atoms: N_8  and  C_9
REMARK    7  A    between atoms: C_9  and  CA_10
REMARK    8  A    between atoms: CA_10  and  C_12
REMARK    9  A    between atoms: CA_10  and  N_14
REMARK   10  A    between atoms: C_15  and  O_17
REMARK   11  A    between atoms: O_17  and  C_18
REMARK   12  A    between atoms: C_18  and  C_19
REMARK                            x       y       z     vdW  Elec       q    Type
REMARK                         _______ _______ _______ _____ _____    ______ ____
ROOT
ATOM      1  N   UNL     1      -3.849   6.505  -2.143  0.00  0.00    -0.266 N 
ATOM      2  C   UNL     1      -2.501   6.498  -2.159  0.00  0.00    +0.401 C 
ATOM      3  O   UNL     1      -1.902   6.982  -3.099  0.00  0.00    -0.226 OA
ATOM      4  H   UNL     1      -4.327   6.118  -1.392  0.00  0.00    +0.153 HD
ENDROOT
BRANCH   1   5
ATOM      5  CA  UNL     1      -4.592   7.097  -3.258  0.00  0.00    +0.206 C 
BRANCH   5   6
ATOM      6  C   UNL     1      -4.725   8.582  -3.041  0.00  0.00    +0.377 C 
ATOM      7  O   UNL     1      -4.249   9.094  -2.055  0.00  0.00    -0.244 OA
ATOM      8  OXT UNL     1      -5.374   9.336  -3.942  0.00  0.00    -0.244 OA
ENDBRANCH   5   6
BRANCH   5   9
ATOM      9  C   UNL     1      -5.983   6.465  -3.336  0.00  0.00    +0.141 C 
BRANCH   9  12
ATOM     10  C   UNL     1      -6.957   4.239  -3.507  0.00  0.00    +0.401 C 
ATOM     11  O   UNL     1      -8.059   4.752  -3.502  0.00  0.00    -0.226 OA
ATOM     12  N   UNL     1      -5.854   5.009  -3.427  0.00  0.00    -0.279 N 
ATOM     13  H   UNL     1      -4.975   4.599  -3.431  0.00  0.00    +0.152 HD
BRANCH  10  14
ATOM     14  O   UNL     1      -6.839   2.900  -3.591  0.00  0.00    -0.445 OA
BRANCH  14  16
ATOM     15  C   UNL     1      -8.851   2.556  -4.918  0.00  0.00    +0.055 C 
ATOM     16  C   UNL     1      -8.069   2.133  -3.673  0.00  0.00    +0.107 C 
ATOM     17  C   UNL     1      -7.736   0.643  -3.761  0.00  0.00    +0.055 C 
ATOM     18  C   UNL     1      -8.917   2.394  -2.426  0.00  0.00    +0.055 C 
ENDBRANCH  14  16
ENDBRANCH  10  14
ENDBRANCH   9  12
ENDBRANCH   5   9
ENDBRANCH   1   5
BRANCH   2  19
ATOM     19  O   UNL     1      -1.818   5.954  -1.134  0.00  0.00    -0.449 OA
BRANCH  19  20
ATOM     20  C   UNL     1      -0.369   5.982  -1.218  0.00  0.00    +0.246 C 
BRANCH  20  21
ATOM     21  C   UNL     1       0.227   5.323   0.027  0.00  0.00    +0.088 C 
ATOM     22  C   UNL     1      -0.064   3.843   0.022  0.00  0.00    -0.029 A 
ATOM     23  C   UNL     1      -1.245   3.132   0.029  0.00  0.00    +0.005 A 
ATOM     24  C   UNL     1      -1.221   1.748   0.017  0.00  0.00    +0.000 A 
ATOM     25  C   UNL     1      -0.013   1.076   0.008  0.00  0.00    +0.001 A 
ATOM     26  C   UNL     1       1.174   1.779   0.000  0.00  0.00    +0.009 A 
ATOM     27  C   UNL     1       1.157   3.175   0.008  0.00  0.00    -0.014 A 
ATOM     28  C   UNL     1       2.262   4.166   0.002  0.00  0.00    -0.014 A 
ATOM     29  C   UNL     1       1.731   5.452   0.014  0.00  0.00    -0.029 A 
ATOM     30  C   UNL     1       2.566   6.550   0.011  0.00  0.00    +0.005 A 
ATOM     31  C   UNL     1       3.938   6.376  -0.003  0.00  0.00    +0.000 A 
ATOM     32  C   UNL     1       4.476   5.101  -0.015  0.00  0.00    +0.001 A 
ATOM     33  C   UNL     1       3.648   3.998  -0.012  0.00  0.00    +0.009 A 
ENDBRANCH  20  21
ENDBRANCH  19  20
ENDBRANCH   2  19
TORSDOF 9
