REMARK  Name = ZINC14276654
REMARK  7 active torsions:
REMARK  status: ('A' for Active; 'I' for Inactive)
REMARK    1  A    between atoms: C_4  and  C_7
REMARK    2  A    between atoms: N_12  and  C_15
REMARK    3  A    between atoms: C_20  and  N_21
REMARK    4  A    between atoms: N_21  and  C_22
REMARK    5  A    between atoms: C_22  and  N_24
REMARK    6  A    between atoms: C_25  and  C_27
REMARK    7  A    between atoms: C_31  and  N_33
REMARK                            x       y       z     vdW  Elec       q    Type
REMARK                         _______ _______ _______ _____ _____    ______ ____
ROOT
ATOM      1  C   UNL     1     -13.819   1.423  -1.137  0.00  0.00    +0.051 A 
ATOM      2  C   UNL     1     -15.093   1.479  -1.685  0.00  0.00    +0.025 A 
ATOM      3  C   UNL     1     -15.730   0.315  -2.073  0.00  0.00    +0.002 A 
ATOM      4  C   UNL     1     -15.101  -0.907  -1.917  0.00  0.00    +0.002 A 
ATOM      5  C   UNL     1     -13.830  -0.971  -1.377  0.00  0.00    +0.025 A 
ATOM      6  C   UNL     1     -13.186   0.190  -0.980  0.00  0.00    +0.054 A 
ENDROOT
BRANCH   1  12
ATOM      7  C   UNL     1     -12.974   6.632  -0.197  0.00  0.00    +0.247 C 
ATOM      8  O   UNL     1     -12.800   7.326  -1.180  0.00  0.00    -0.270 OA
ATOM      9  N   UNL     1     -12.733   5.308  -0.255  0.00  0.00    -0.295 N 
ATOM     10  C   UNL     1     -12.135   4.701  -1.454  0.00  0.00    +0.127 C 
ATOM     11  C   UNL     1     -13.002   3.512  -1.882  0.00  0.00    +0.124 C 
ATOM     12  N   UNL     1     -13.172   2.600  -0.744  0.00  0.00    -0.325 N 
ATOM     13  C   UNL     1     -13.891   3.252   0.359  0.00  0.00    +0.124 C 
ATOM     14  C   UNL     1     -13.060   4.430   0.879  0.00  0.00    +0.127 C 
BRANCH   7  18
ATOM     15  C   UNL     1     -14.344   8.384   3.422  0.00  0.00    +0.000 A 
ATOM     16  C   UNL     1     -14.775   8.887   2.207  0.00  0.00    +0.001 A 
ATOM     17  C   UNL     1     -14.334   8.323   1.028  0.00  0.00    +0.013 A 
ATOM     18  C   UNL     1     -13.451   7.242   1.063  0.00  0.00    +0.037 A 
ATOM     19  C   UNL     1     -13.024   6.737   2.292  0.00  0.00    +0.013 A 
ATOM     20  C   UNL     1     -13.469   7.314   3.464  0.00  0.00    +0.001 A 
ENDBRANCH   7  18
ENDBRANCH   1  12
BRANCH   6  21
ATOM     21  N   UNL     1     -11.900   0.127  -0.428  0.00  0.00    -0.295 N 
ATOM     22  H   UNL     1     -11.229   0.778  -0.685  0.00  0.00    +0.154 HD
BRANCH  21  23
ATOM     23  C   UNL     1     -11.595  -0.840   0.461  0.00  0.00    +0.141 C 
ATOM     24  S   UNL     1     -12.802  -1.938   0.979  0.00  0.00    -0.018 S 
BRANCH  23  25
ATOM     25  N   UNL     1     -10.340  -0.941   0.942  0.00  0.00    -0.264 N 
ATOM     26  C   UNL     1     -10.035  -1.908   1.830  0.00  0.00    +0.250 C 
ATOM     27  O   UNL     1     -10.891  -2.687   2.198  0.00  0.00    -0.270 OA
ATOM     28  H   UNL     1      -9.656  -0.319   0.648  0.00  0.00    +0.157 HD
BRANCH  26  29
ATOM     29  C   UNL     1      -8.659  -2.019   2.357  0.00  0.00    +0.039 A 
ATOM     30  C   UNL     1      -7.672  -1.125   1.937  0.00  0.00    +0.013 A 
ATOM     31  C   UNL     1      -6.390  -1.235   2.433  0.00  0.00    +0.003 A 
ATOM     32  C   UNL     1      -6.081  -2.225   3.350  0.00  0.00    +0.033 A 
ATOM     33  C   UNL     1      -7.053  -3.117   3.766  0.00  0.00    +0.127 A 
ATOM     34  C   UNL     1      -8.339  -3.019   3.278  0.00  0.00    +0.045 A 
BRANCH  33  35
ATOM     35  N   UNL     1      -6.713  -4.176   4.743  0.00  0.00    +0.056 N 
ATOM     36  O   UNL     1      -7.568  -4.960   5.114  0.00  0.00    -0.126 OA
ATOM     37  O   UNL     1      -5.576  -4.268   5.171  0.00  0.00    -0.126 OA
ENDBRANCH  33  35
ENDBRANCH  26  29
ENDBRANCH  23  25
ENDBRANCH  21  23
ENDBRANCH   6  21
TORSDOF 7
