REMARK  Name = ZINC38670525
REMARK  9 active torsions:
REMARK  status: ('A' for Active; 'I' for Inactive)
REMARK    1  A    between atoms: C_1  and  N_2
REMARK    2  A    between atoms: C_10  and  C_12
REMARK    3  A    between atoms: C_12  and  C_14
REMARK    4  A    between atoms: C_12  and  N_32
REMARK    5  A    between atoms: C_14  and  N_15
REMARK    6  A    between atoms: C_16  and  C_18
REMARK    7  A    between atoms: C_18  and  C_19
REMARK    8  A    between atoms: C_19  and  C_20
REMARK    9  A    between atoms: C_19  and  C_26
REMARK                            x       y       z     vdW  Elec       q    Type
REMARK                         _______ _______ _______ _____ _____    ______ ____
ROOT
ATOM      1  C   UNL     1       5.480  -1.895   1.070  0.00  0.00    +0.093 C 
ENDROOT
BRANCH   1   2
ATOM      2  N   UNL     1       4.965  -2.634   2.225  0.00  0.00    -0.317 N 
ATOM      3  C   UNL     1       5.803  -3.016   3.209  0.00  0.00    +0.214 C 
ATOM      4  O   UNL     1       6.984  -2.747   3.139  0.00  0.00    -0.276 OA
ATOM      5  H   UNL     1       4.021  -2.850   2.281  0.00  0.00    +0.149 HD
BRANCH   3   6
ATOM      6  C   UNL     1       5.274  -3.777   4.397  0.00  0.00    +0.108 C 
BRANCH   6   7
ATOM      7  C   UNL     1       6.423  -4.086   5.359  0.00  0.00    +0.058 C 
BRANCH   7   8
ATOM      8  C   UNL     1       5.875  -4.737   6.603  0.00  0.00    -0.040 A 
ATOM      9  C   UNL     1       6.192  -4.226   7.847  0.00  0.00    +0.004 A 
ATOM     10  C   UNL     1       5.690  -4.824   8.988  0.00  0.00    +0.000 A 
ATOM     11  C   UNL     1       4.871  -5.933   8.884  0.00  0.00    +0.000 A 
ATOM     12  C   UNL     1       4.554  -6.443   7.639  0.00  0.00    +0.000 A 
ATOM     13  C   UNL     1       5.052  -5.843   6.498  0.00  0.00    +0.004 A 
ENDBRANCH   7   8
BRANCH   7  14
ATOM     14  C   UNL     1       7.400  -5.019   4.691  0.00  0.00    -0.040 A 
ATOM     15  C   UNL     1       6.950  -6.187   4.105  0.00  0.00    +0.004 A 
ATOM     16  C   UNL     1       7.846  -7.043   3.492  0.00  0.00    +0.000 A 
ATOM     17  C   UNL     1       9.192  -6.730   3.466  0.00  0.00    +0.000 A 
ATOM     18  C   UNL     1       9.642  -5.561   4.051  0.00  0.00    +0.000 A 
ATOM     19  C   UNL     1       8.745  -4.704   4.660  0.00  0.00    +0.004 A 
ENDBRANCH   7  14
ENDBRANCH   6   7
ENDBRANCH   3   6
ENDBRANCH   1   2
BRANCH   1  20
ATOM     20  C   UNL     1       4.352  -1.674   0.061  0.00  0.00    -0.020 C 
BRANCH  20  30
ATOM     21  C   UNL     1       0.652   2.995   2.724  0.00  0.00    +0.129 C 
ATOM     22  N   UNL     1       0.352   1.599   2.399  0.00  0.00    -0.333 N 
ATOM     23  C   UNL     1      -0.980   1.040   2.666  0.00  0.00    +0.105 C 
ATOM     24  C   UNL     1      -0.789  -0.340   3.309  0.00  0.00    +0.024 C 
ATOM     25  C   UNL     1      -0.087  -1.258   2.308  0.00  0.00    +0.038 C 
ATOM     26  C   UNL     1       1.155  -0.598   1.769  0.00  0.00    -0.026 A 
ATOM     27  C   UNL     1       1.328   0.778   1.823  0.00  0.00    +0.033 A 
ATOM     28  C   UNL     1       2.482   1.357   1.307  0.00  0.00    +0.023 A 
ATOM     29  C   UNL     1       3.458   0.563   0.738  0.00  0.00    +0.004 A 
ATOM     30  C   UNL     1       3.286  -0.808   0.681  0.00  0.00    -0.059 A 
ATOM     31  C   UNL     1       2.142  -1.388   1.203  0.00  0.00    +0.007 A 
ENDBRANCH  20  30
BRANCH  20  32
ATOM     32  N   UNL     1       4.887  -1.011  -1.135  0.00  0.00    +0.385 N 
ATOM     33  C   UNL     1       5.888  -1.884  -1.800  0.00  0.00    -0.078 C 
ATOM     34  C   UNL     1       5.919  -1.345  -3.253  0.00  0.00    -0.020 C 
ATOM     35  C   UNL     1       4.439  -0.989  -3.522  0.00  0.00    -0.020 C 
ATOM     36  C   UNL     1       3.811  -0.802  -2.128  0.00  0.00    -0.078 C 
ATOM     37  H   UNL     1       5.306  -0.127  -0.886  0.00  0.00    -0.081 HD
ENDBRANCH  20  32
ENDBRANCH   1  20
TORSDOF 8
