REMARK  Name = ZINC40356576
REMARK  14 active torsions:
REMARK  status: ('A' for Active; 'I' for Inactive)
REMARK    1  A    between atoms: C_1  and  C_2
REMARK    2  A    between atoms: C_2  and  C_3
REMARK    3  A    between atoms: C_3  and  N_4
REMARK    4  A    between atoms: N_4  and  C_5
REMARK    5  A    between atoms: C_5  and  C_7
REMARK    6  A    between atoms: C_5  and  C_9
REMARK    7  A    between atoms: C_7  and  C_8
REMARK    8  A    between atoms: N_23  and  C_24
REMARK    9  A    between atoms: C_25  and  C_33
REMARK   10  A    between atoms: C_29  and  C_30
REMARK   11  A    between atoms: C_30  and  C_31
REMARK   12  A    between atoms: C_30  and  C_32
REMARK   13  A    between atoms: C_33  and  C_34
REMARK   14  A    between atoms: C_33  and  C_35
REMARK                            x       y       z     vdW  Elec       q    Type
REMARK                         _______ _______ _______ _____ _____    ______ ____
ROOT
ATOM      1  N   UNL     1       1.293  -0.852  -1.945  0.00  0.00    -0.275 N 
ATOM      2  C   UNL     1       2.260  -1.534  -1.300  0.00  0.00    +0.307 C 
ATOM      3  O   UNL     1       2.844  -2.440  -1.862  0.00  0.00    -0.252 OA
ATOM      4  N   UNL     1       2.580  -1.211  -0.031  0.00  0.00    -0.269 N 
ATOM      5  H   UNL     1       2.087  -0.515   0.432  0.00  0.00    +0.156 HD
ENDROOT
BRANCH   4   6
ATOM      6  C   UNL     1       3.624  -1.879   0.619  0.00  0.00    +0.042 A 
ATOM      7  C   UNL     1       4.727  -1.170   1.076  0.00  0.00    -0.023 A 
ATOM      8  C   UNL     1       5.755  -1.833   1.718  0.00  0.00    +0.006 A 
ATOM      9  C   UNL     1       5.687  -3.201   1.905  0.00  0.00    +0.001 A 
ATOM     10  C   UNL     1       4.590  -3.910   1.451  0.00  0.00    +0.006 A 
ATOM     11  C   UNL     1       3.556  -3.253   0.813  0.00  0.00    -0.023 A 
BRANCH  11  12
ATOM     12  C   UNL     1       2.359  -4.026   0.324  0.00  0.00    +0.015 C 
ATOM     13  C   UNL     1       2.824  -5.169  -0.580  0.00  0.00    +0.012 C 
ATOM     14  C   UNL     1       1.599  -4.600   1.522  0.00  0.00    +0.012 C 
ENDBRANCH  11  12
BRANCH   7  15
ATOM     15  C   UNL     1       4.802   0.321   0.872  0.00  0.00    +0.015 C 
ATOM     16  C   UNL     1       4.973   1.013   2.226  0.00  0.00    +0.012 C 
ATOM     17  C   UNL     1       5.995   0.654  -0.026  0.00  0.00    +0.012 C 
ENDBRANCH   7  15
ENDBRANCH   4   6
BRANCH   1  18
ATOM     18  C   UNL     1       0.590   0.240  -1.267  0.00  0.00    +0.110 C 
BRANCH  18  20
ATOM     19  C   UNL     1      -1.267   0.803   0.306  0.00  0.00    +0.005 C 
ATOM     20  C   UNL     1      -0.566  -0.331  -0.444  0.00  0.00    +0.016 C 
ENDBRANCH  18  20
ENDBRANCH   1  18
BRANCH   1  21
ATOM     21  C   UNL     1       0.945  -1.203  -3.324  0.00  0.00    +0.143 C 
BRANCH  21  22
ATOM     22  C   UNL     1       2.132  -0.957  -4.220  0.00  0.00    +0.131 A 
ATOM     23  N   UNL     1       2.047  -1.338  -5.521  0.00  0.00    -0.309 N 
ATOM     24  H   UNL     1       1.234  -1.755  -5.848  0.00  0.00    +0.170 HD
ATOM     25  C   UNL     1       3.085  -1.139  -6.367  0.00  0.00    +0.259 A 
ATOM     26  O   UNL     1       3.022  -1.474  -7.535  0.00  0.00    -0.267 OA
ATOM     27  C   UNL     1       4.291  -0.501  -5.819  0.00  0.00    +0.065 A 
ATOM     28  C   UNL     1       5.415  -0.252  -6.604  0.00  0.00    +0.015 A 
ATOM     29  C   UNL     1       6.519   0.347  -6.039  0.00  0.00    +0.001 A 
ATOM     30  C   UNL     1       6.520   0.704  -4.697  0.00  0.00    +0.002 A 
ATOM     31  C   UNL     1       5.420   0.466  -3.903  0.00  0.00    +0.028 A 
ATOM     32  C   UNL     1       4.288  -0.140  -4.453  0.00  0.00    +0.078 A 
ATOM     33  N   UNL     1       3.181  -0.388  -3.709  0.00  0.00    -0.232 NA
ENDBRANCH  21  22
BRANCH  21  34
ATOM     34  C   UNL     1       0.553  -2.680  -3.391  0.00  0.00    +0.027 C 
ATOM     35  C   UNL     1      -0.725  -2.906  -2.581  0.00  0.00    +0.006 C 
ENDBRANCH  21  34
ENDBRANCH   1  21
TORSDOF 8
