REMARK  Name = ZINC39480819
REMARK  10 active torsions:
REMARK  status: ('A' for Active; 'I' for Inactive)
REMARK    1  A    between atoms: C_1  and  C_2
REMARK    2  A    between atoms: C_2  and  O_3
REMARK    3  A    between atoms: O_3  and  C_4
REMARK    4  A    between atoms: N_7  and  C_11
REMARK    5  A    between atoms: C_13  and  C_30
REMARK    6  A    between atoms: C_16  and  N_17
REMARK    7  A    between atoms: N_17  and  S_18
REMARK    8  A    between atoms: S_18  and  S_21
REMARK    9  A    between atoms: S_21  and  C_24
REMARK   10  A    between atoms: C_30  and  C_31
REMARK                            x       y       z     vdW  Elec       q    Type
REMARK                         _______ _______ _______ _____ _____    ______ ____
ROOT
ATOM      1  C   UNL     1       0.908  -4.507  -3.733  0.00  0.00    +0.055 A 
ATOM      2  C   UNL     1       1.624  -4.739  -4.898  0.00  0.00    +0.029 A 
ATOM      3  C   UNL     1       1.075  -5.511  -5.905  0.00  0.00    -0.041 A 
ATOM      4  C   UNL     1      -0.188  -6.053  -5.755  0.00  0.00    +0.006 A 
ATOM      5  C   UNL     1      -0.909  -5.827  -4.598  0.00  0.00    +0.029 A 
ATOM      6  C   UNL     1      -0.364  -5.058  -3.580  0.00  0.00    +0.097 A 
ENDROOT
BRANCH   1   9
ATOM      7  C   UNL     1       0.746  -1.888  -1.280  0.00  0.00    +0.203 C 
ATOM      8  C   UNL     1       1.251  -2.271  -2.675  0.00  0.00    +0.153 C 
ATOM      9  N   UNL     1       1.462  -3.726  -2.712  0.00  0.00    -0.323 N 
ATOM     10  C   UNL     1       2.271  -4.339  -1.648  0.00  0.00    +0.120 C 
ATOM     11  C   UNL     1       1.726  -3.875  -0.293  0.00  0.00    +0.102 C 
ATOM     12  N   UNL     1       1.674  -2.407  -0.266  0.00  0.00    -0.289 NA
ATOM     13  H   UNL     1       2.594  -2.011  -0.382  0.00  0.00    +0.124 HD
BRANCH   7  14
ATOM     14  O   UNL     1       0.671  -0.465  -1.174  0.00  0.00    -0.361 OA
BRANCH  14  16
ATOM     15  C   UNL     1      -0.019   1.526   0.010  0.00  0.00    +0.034 C 
ATOM     16  C   UNL     1       0.002  -0.004   0.002  0.00  0.00    +0.158 C 
ENDBRANCH  14  16
ENDBRANCH   7  14
ENDBRANCH   1   9
BRANCH   6  17
ATOM     17  N   UNL     1      -1.090  -4.832  -2.405  0.00  0.00    -0.079 NA
BRANCH  17  18
ATOM     18  S   UNL     1      -2.600  -5.488  -2.225  0.00  0.00    +0.191 S 
ATOM     19  O   UNL     1      -3.434  -4.858  -3.188  0.00  0.00    -0.130 OA
ATOM     20  O   UNL     1      -2.427  -6.898  -2.174  0.00  0.00    -0.130 OA
BRANCH  18  21
ATOM     21  S   UNL     1      -3.295  -4.916  -0.383  0.00  0.00    +0.133 S 
ATOM     22  O   UNL     1      -2.461  -5.546   0.579  0.00  0.00    -0.146 OA
ATOM     23  O   UNL     1      -3.468  -3.506  -0.435  0.00  0.00    -0.146 OA
BRANCH  21  24
ATOM     24  C   UNL     1      -4.901  -5.614  -0.192  0.00  0.00    +0.114 A 
ATOM     25  C   UNL     1      -6.015  -4.909  -0.610  0.00  0.00    +0.029 A 
ATOM     26  C   UNL     1      -7.275  -5.457  -0.460  0.00  0.00    +0.002 A 
ATOM     27  C   UNL     1      -7.422  -6.709   0.107  0.00  0.00    +0.000 A 
ATOM     28  C   UNL     1      -6.308  -7.414   0.524  0.00  0.00    +0.002 A 
ATOM     29  C   UNL     1      -5.048  -6.868   0.370  0.00  0.00    +0.029 A 
ENDBRANCH  21  24
ENDBRANCH  18  21
ENDBRANCH  17  18
ENDBRANCH   6  17
BRANCH   3  30
ATOM     30  C   UNL     1       1.855  -5.761  -7.170  0.00  0.00    +0.070 C 
BRANCH  30  31
ATOM     31  C   UNL     1       2.684  -7.009  -7.010  0.00  0.00    -0.043 A 
ATOM     32  C   UNL     1       3.968  -6.925  -6.503  0.00  0.00    +0.004 A 
ATOM     33  C   UNL     1       4.729  -8.070  -6.357  0.00  0.00    +0.000 A 
ATOM     34  C   UNL     1       4.206  -9.298  -6.716  0.00  0.00    +0.000 A 
ATOM     35  C   UNL     1       2.922  -9.382  -7.222  0.00  0.00    +0.000 A 
ATOM     36  C   UNL     1       2.160  -8.238  -7.365  0.00  0.00    +0.004 A 
ENDBRANCH  30  31
ENDBRANCH   3  30
TORSDOF 9
