REMARK  Name = ZINC00982305
REMARK  10 active torsions:
REMARK  status: ('A' for Active; 'I' for Inactive)
REMARK    1  A    between atoms: C_1  and  C_2
REMARK    2  A    between atoms: C_2  and  O_3
REMARK    3  A    between atoms: O_3  and  C_4
REMARK    4  A    between atoms: C_4  and  C_6
REMARK    5  A    between atoms: C_10  and  N_11
REMARK    6  A    between atoms: C_12  and  C_14
REMARK    7  A    between atoms: C_14  and  N_55
REMARK    8  A    between atoms: C_15  and  C_17
REMARK    9  A    between atoms: C_15  and  C_18
REMARK   10  A    between atoms: C_15  and  N_55
REMARK                            x       y       z     vdW  Elec       q    Type
REMARK                         _______ _______ _______ _____ _____    ______ ____
ROOT
ATOM      1  N   UNL     1       2.866   7.152  -2.859  0.00  0.00    -0.281 N 
ATOM      2  C   UNL     1       2.957   5.934  -2.290  0.00  0.00    +0.201 C 
ATOM      3  O   UNL     1       3.918   5.230  -2.515  0.00  0.00    -0.278 OA
ATOM      4  H   UNL     1       2.097   7.715  -2.679  0.00  0.00    +0.155 HD
ENDROOT
BRANCH   1   9
ATOM      5  C   UNL     1       3.955   8.808  -4.378  0.00  0.00    +0.091 A 
ATOM      6  C   UNL     1       5.132   9.042  -5.204  0.00  0.00    -0.021 A 
ATOM      7  C   UNL     1       6.020   8.025  -5.230  0.00  0.00    -0.004 A 
ATOM      8  S   UNL     1       5.326   6.786  -4.170  0.00  0.00    -0.077 S 
ATOM      9  C   UNL     1       3.872   7.601  -3.701  0.00  0.00    +0.086 A 
ATOM     10  C   UNL     1       7.304   7.951  -5.996  0.00  0.00    +0.043 C 
ATOM     11  C   UNL     1       8.107   9.238  -5.767  0.00  0.00    +0.005 C 
ATOM     12  C   UNL     1       7.701  10.255  -6.830  0.00  0.00    +0.001 C 
ATOM     13  C   UNL     1       6.229  10.076  -7.194  0.00  0.00    +0.005 C 
ATOM     14  C   UNL     1       5.345  10.336  -5.979  0.00  0.00    +0.037 C 
BRANCH   5  15
ATOM     15  C   UNL     1       2.898   9.815  -4.263  0.00  0.00    +0.342 C 
ATOM     16  O   UNL     1       2.956  10.662  -3.391  0.00  0.00    -0.245 OA
BRANCH  15  17
ATOM     17  O   UNL     1       1.860   9.805  -5.124  0.00  0.00    -0.461 OA
BRANCH  17  19
ATOM     18  C   UNL     1      -0.240  10.660  -6.012  0.00  0.00    +0.048 C 
ATOM     19  C   UNL     1       0.849  10.832  -4.952  0.00  0.00    +0.229 C 
ENDBRANCH  17  19
ENDBRANCH  15  17
ENDBRANCH   5  15
ENDBRANCH   1   9
BRANCH   2  20
ATOM     20  C   UNL     1       1.864   5.446  -1.374  0.00  0.00    +0.016 C 
BRANCH  20  21
ATOM     21  N   UNL     1       2.205   4.096  -0.890  0.00  0.00    +0.389 N 
ATOM     22  H   UNL     1       3.096   4.133  -0.381  0.00  0.00    -0.084 HD
ATOM     23  H   UNL     1       2.297   3.461  -1.692  0.00  0.00    -0.084 HD
BRANCH  21  24
ATOM     24  C   UNL     1       1.151   3.592   0.010  0.00  0.00    -0.043 C 
ATOM     25  C   UNL     1       1.407   4.098   1.431  0.00  0.00    -0.009 C 
BRANCH  24  26
ATOM     26  C   UNL     1       1.171   2.086   0.002  0.00  0.00    -0.062 A 
ATOM     27  C   UNL     1      -0.017   1.378   0.010  0.00  0.00    +0.002 A 
ATOM     28  C   UNL     1       0.002  -0.004   0.002  0.00  0.00    +0.000 A 
ATOM     29  C   UNL     1       1.208  -0.679  -0.014  0.00  0.00    +0.000 A 
ATOM     30  C   UNL     1       2.396   0.029  -0.021  0.00  0.00    +0.000 A 
ATOM     31  C   UNL     1       2.377   1.411  -0.014  0.00  0.00    +0.002 A 
ENDBRANCH  24  26
ENDBRANCH  21  24
ENDBRANCH  20  21
ENDBRANCH   2  20
TORSDOF 8
