REMARK  Name = ZINC37581960
REMARK  8 active torsions:
REMARK  status: ('A' for Active; 'I' for Inactive)
REMARK    1  A    between atoms: C_1  and  C_2
REMARK    2  A    between atoms: C_2  and  N_3
REMARK    3  A    between atoms: N_3  and  C_4
REMARK    4  A    between atoms: N_3  and  S_5
REMARK    5  A    between atoms: S_5  and  C_8
REMARK    6  A    between atoms: C_11  and  C_15
REMARK    7  A    between atoms: C_16  and  C_17
REMARK    8  A    between atoms: C_17  and  N_18
REMARK                            x       y       z     vdW  Elec       q    Type
REMARK                         _______ _______ _______ _____ _____    ______ ____
ROOT
ATOM      1  C   UNL     1      -2.898   0.520   2.058  0.00  0.00    +0.142 A 
ATOM      2  C   UNL     1      -2.212   1.395   2.882  0.00  0.00    +0.070 A 
ATOM      3  C   UNL     1      -2.838   2.528   3.365  0.00  0.00    +0.039 A 
ATOM      4  C   UNL     1      -4.164   2.789   3.019  0.00  0.00    +0.028 A 
ATOM      5  C   UNL     1      -4.850   1.904   2.187  0.00  0.00    +0.039 A 
ATOM      6  C   UNL     1      -4.212   0.777   1.707  0.00  0.00    +0.070 A 
ATOM      7 CL   UNL     1      -5.062  -0.322   0.666  0.00  0.00    -0.081 Cl
ATOM      8 CL   UNL     1      -0.562   1.068   3.312  0.00  0.00    -0.081 Cl
ENDROOT
BRANCH   1   9
ATOM      9  S   UNL     1      -2.092  -0.923   1.446  0.00  0.00    +0.063 S 
ATOM     10  O   UNL     1      -3.116  -1.857   1.133  0.00  0.00    -0.153 OA
ATOM     11  O   UNL     1      -1.043  -1.219   2.357  0.00  0.00    -0.153 OA
BRANCH   9  12
ATOM     12  N   UNL     1      -1.372  -0.511   0.012  0.00  0.00    -0.180 NA
ATOM     13  C   UNL     1      -2.110  -0.654  -1.245  0.00  0.00    +0.131 C 
BRANCH  12  15
ATOM     14  C   UNL     1      -0.019   1.526   0.010  0.00  0.00    +0.022 C 
ATOM     15  C   UNL     1       0.002  -0.004   0.002  0.00  0.00    +0.106 C 
ENDBRANCH  12  15
ENDBRANCH   9  12
ENDBRANCH   1   9
BRANCH   4  16
ATOM     16  C   UNL     1      -4.819   3.962   3.516  0.00  0.00    -0.068 C 
ATOM     17  C   UNL     1      -5.355   4.923   3.924  0.00  0.00    -0.117 C 
BRANCH  17  18
ATOM     18  C   UNL     1      -6.028   6.128   4.436  0.00  0.00    +0.005 C 
BRANCH  18  19
ATOM     19  N   UNL     1      -7.407   6.171   3.930  0.00  0.00    +0.385 N 
ATOM     20  H   UNL     1      -7.868   6.997   4.280  0.00  0.00    -0.089 HD
ATOM     21  H   UNL     1      -7.394   6.195   2.921  0.00  0.00    -0.089 HD
ATOM     22  H   UNL     1      -7.905   5.351   4.240  0.00  0.00    -0.089 HD
ENDBRANCH  18  19
ENDBRANCH  17  18
ENDBRANCH   4  16
TORSDOF 6
