REMARK  Name = ZINC07435829
REMARK  8 active torsions:
REMARK  status: ('A' for Active; 'I' for Inactive)
REMARK    1  A    between atoms: C_1  and  C_2
REMARK    2  A    between atoms: C_7  and  C_13
REMARK    3  A    between atoms: C_13  and  O_14
REMARK    4  A    between atoms: O_14  and  C_15
REMARK    5  A    between atoms: C_15  and  C_17
REMARK    6  A    between atoms: N_22  and  C_24
REMARK    7  A    between atoms: C_28  and  C_31
REMARK    8  A    between atoms: C_29  and  C_30
REMARK                            x       y       z     vdW  Elec       q    Type
REMARK                         _______ _______ _______ _____ _____    ______ ____
ROOT
ATOM      1  C   UNL     1      -1.264  -8.085   0.436  0.00  0.00    +0.313 C 
ATOM      2  O   UNL     1      -0.384  -8.818   0.821  0.00  0.00    -0.250 OA
ENDROOT
BRANCH   1   3
ATOM      3  C   UNL     1      -2.522  -8.666  -0.158  0.00  0.00    +0.124 C 
ATOM      4  C   UNL     1      -2.663  -8.272  -1.647  0.00  0.00    +0.112 C 
ATOM      5  C   UNL     1      -3.254  -9.501  -2.301  0.00  0.00    +0.221 C 
ATOM      6  O   UNL     1      -3.777  -9.522  -3.395  0.00  0.00    -0.275 OA
ATOM      7  N   UNL     1      -3.116 -10.567  -1.493  0.00  0.00    -0.270 N 
ATOM      8  C   UNL     1      -2.432 -10.206  -0.246  0.00  0.00    +0.128 C 
BRANCH   7   9
ATOM      9  C   UNL     1      -3.567 -11.855  -1.802  0.00  0.00    +0.039 A 
ATOM     10  C   UNL     1      -2.730 -12.747  -2.460  0.00  0.00    +0.024 A 
ATOM     11  C   UNL     1      -3.178 -14.017  -2.763  0.00  0.00    +0.002 A 
ATOM     12  C   UNL     1      -4.460 -14.402  -2.412  0.00  0.00    +0.004 A 
ATOM     13  C   UNL     1      -5.296 -13.517  -1.758  0.00  0.00    -0.046 A 
ATOM     14  C   UNL     1      -4.851 -12.246  -1.446  0.00  0.00    -0.026 A 
ATOM     15  C   UNL     1      -5.761 -11.284  -0.726  0.00  0.00    +0.046 C 
ATOM     16  C   UNL     1      -6.691 -13.940  -1.378  0.00  0.00    +0.044 C 
ENDBRANCH   7   9
ENDBRANCH   1   3
BRANCH   1  17
ATOM     17  O   UNL     1      -1.123  -6.755   0.539  0.00  0.00    -0.458 OA
BRANCH  17  18
ATOM     18  C   UNL     1       0.095  -6.274   1.112  0.00  0.00    +0.287 C 
BRANCH  18  25
ATOM     19  C   UNL     1      -0.018   1.503   0.010  0.00  0.00    +0.045 C 
ATOM     20  C   UNL     1       0.002  -0.004   0.002  0.00  0.00    -0.034 A 
ATOM     21  C   UNL     1       0.006  -0.697  -1.217  0.00  0.00    +0.008 A 
ATOM     22  C   UNL     1       0.025  -2.059  -1.216  0.00  0.00    +0.047 A 
ATOM     23  C   UNL     1       0.040  -2.750   0.010  0.00  0.00    +0.141 A 
ATOM     24  N   UNL     1       0.059  -4.082   0.013  0.00  0.00    -0.231 NA
ATOM     25  C   UNL     1       0.074  -4.768   1.145  0.00  0.00    +0.086 A 
ATOM     26  C   UNL     1       0.071  -4.104   2.356  0.00  0.00    +0.097 A 
ATOM     27  C   UNL     1       0.051  -2.704   2.361  0.00  0.00    +0.259 A 
ATOM     28  O   UNL     1       0.048  -2.088   3.415  0.00  0.00    -0.267 OA
ATOM     29  N   UNL     1       0.037  -2.046   1.182  0.00  0.00    -0.268 N 
ATOM     30  C   UNL     1       0.022  -0.685   1.170  0.00  0.00    +0.099 A 
ENDBRANCH  18  25
ENDBRANCH  17  18
ENDBRANCH   1  17
TORSDOF 5
