REMARK  Name = ZINC40003120
REMARK  11 active torsions:
REMARK  status: ('A' for Active; 'I' for Inactive)
REMARK    1  A    between atoms: C_1  and  O_2
REMARK    2  A    between atoms: O_2  and  C_3
REMARK    3  A    between atoms: C_5  and  C_10
REMARK    4  A    between atoms: C_8  and  O_9
REMARK    5  A    between atoms: C_12  and  C_25
REMARK    6  A    between atoms: C_20  and  S_22
REMARK    7  A    between atoms: S_22  and  C_23
REMARK    8  A    between atoms: C_25  and  C_27
REMARK    9  A    between atoms: C_30  and  O_33
REMARK   10  A    between atoms: O_33  and  C_34
REMARK   11  A    between atoms: C_34  and  C_35
REMARK                            x       y       z     vdW  Elec       q    Type
REMARK                         _______ _______ _______ _____ _____    ______ ____
ROOT
ATOM      1  C   UNL     1      -4.850   0.076   0.318  0.00  0.00    +0.152 C 
ATOM      2  C   UNL     1      -5.337   0.519   1.678  0.00  0.00    +0.077 C 
ATOM      3  C   UNL     1      -6.628   0.120   1.779  0.00  0.00    +0.250 C 
ATOM      4  C   UNL     1      -7.020  -0.573   0.536  0.00  0.00    +0.293 C 
ATOM      5  O   UNL     1      -8.117  -1.049   0.320  0.00  0.00    -0.266 OA
ATOM      6  N   UNL     1      -5.983  -0.601  -0.323  0.00  0.00    -0.230 N 
ATOM      7  C   UNL     1      -5.985  -1.170  -1.591  0.00  0.00    +0.192 A 
ATOM      8  N   UNL     1      -5.016  -1.247  -2.490  0.00  0.00    -0.125 NA
ATOM      9  N   UNL     1      -5.186  -1.806  -3.608  0.00  0.00    -0.133 NA
ATOM     10  C   UNL     1      -6.344  -2.351  -3.950  0.00  0.00    +0.160 A 
ATOM     11  S   UNL     1      -7.295  -2.016  -2.470  0.00  0.00    -0.024 S 
ATOM     12  O   UNL     1      -7.430   0.324   2.850  0.00  0.00    -0.282 OA
ENDROOT
BRANCH   1  15
ATOM     13  C   UNL     1      -1.342  -1.325   0.335  0.00  0.00    +0.162 A 
ATOM     14  C   UNL     1      -2.406  -0.449   0.198  0.00  0.00    +0.055 A 
ATOM     15  C   UNL     1      -3.693  -0.877   0.468  0.00  0.00    -0.018 A 
ATOM     16  C   UNL     1      -3.920  -2.179   0.875  0.00  0.00    +0.009 A 
ATOM     17  C   UNL     1      -2.862  -3.058   1.014  0.00  0.00    +0.049 A 
ATOM     18  C   UNL     1      -1.571  -2.637   0.740  0.00  0.00    +0.158 A 
BRANCH  13  20
ATOM     19  C   UNL     1       0.098   0.480  -0.234  0.00  0.00    +0.277 C 
ATOM     20  O   UNL     1      -0.075  -0.905   0.070  0.00  0.00    -0.491 OA
ENDBRANCH  13  20
BRANCH  18  21
ATOM     21  O   UNL     1      -0.530  -3.502   0.870  0.00  0.00    -0.503 OA
ATOM     22  H   UNL     1      -0.132  -3.508   1.752  0.00  0.00    +0.292 HD
ENDBRANCH  18  21
ENDBRANCH   1  15
BRANCH  10  23
ATOM     23  S   UNL     1      -6.813  -3.175  -5.436  0.00  0.00    -0.100 S 
ATOM     24  C   UNL     1      -5.314  -3.127  -6.456  0.00  0.00    +0.092 C 
ENDBRANCH  10  23
BRANCH   2  25
ATOM     25  C   UNL     1      -4.563   1.241   2.692  0.00  0.00    +0.195 C 
ATOM     26  O   UNL     1      -4.301   0.705   3.753  0.00  0.00    -0.287 OA
BRANCH  25  27
ATOM     27  C   UNL     1      -4.101   2.618   2.426  0.00  0.00    +0.022 A 
ATOM     28  C   UNL     1      -4.466   3.263   1.241  0.00  0.00    +0.015 A 
ATOM     29  C   UNL     1      -4.034   4.547   0.998  0.00  0.00    +0.046 A 
ATOM     30  C   UNL     1      -3.234   5.202   1.928  0.00  0.00    +0.121 A 
ATOM     31  C   UNL     1      -2.868   4.563   3.108  0.00  0.00    +0.046 A 
ATOM     32  C   UNL     1      -3.302   3.281   3.362  0.00  0.00    +0.015 A 
BRANCH  30  33
ATOM     33  O   UNL     1      -2.809   6.467   1.684  0.00  0.00    -0.488 OA
BRANCH  33  34
ATOM     34  C   UNL     1      -1.990   7.080   2.682  0.00  0.00    +0.256 C 
BRANCH  34  35
ATOM     35  C   UNL     1      -1.618   8.472   2.240  0.00  0.00    +0.006 C 
ATOM     36  C   UNL     1      -1.695   9.470   3.086  0.00  0.00    +0.007 C 
ENDBRANCH  34  35
ENDBRANCH  33  34
ENDBRANCH  30  33
ENDBRANCH  25  27
ENDBRANCH   2  25
TORSDOF 9
