REMARK  Name = ZINC67286179
REMARK  8 active torsions:
REMARK  status: ('A' for Active; 'I' for Inactive)
REMARK    1  A    between atoms: C_1  and  C_2
REMARK    2  A    between atoms: C_2  and  O_3
REMARK    3  A    between atoms: O_3  and  C_4
REMARK    4  A    between atoms: C_4  and  C_6
REMARK    5  A    between atoms: C_7  and  C_21
REMARK    6  A    between atoms: C_12  and  C_14
REMARK    7  A    between atoms: C_21  and  N_22
REMARK    8  A    between atoms: C_25  and  C_28
REMARK                            x       y       z     vdW  Elec       q    Type
REMARK                         _______ _______ _______ _____ _____    ______ ____
ROOT
ATOM      1  C   UNL     1      -2.776  -2.416   0.210  0.00  0.00    +0.079 C 
ATOM      2  C   UNL     1      -2.975  -3.719  -0.083  0.00  0.00    +0.038 C 
ATOM      3  N   UNL     1      -4.234  -4.216  -0.266  0.00  0.00    -0.271 N 
ATOM      4  C   UNL     1      -5.346  -3.475  -0.174  0.00  0.00    +0.304 C 
ATOM      5  O   UNL     1      -6.424  -4.007  -0.354  0.00  0.00    -0.252 OA
ATOM      6  N   UNL     1      -5.308  -2.158   0.112  0.00  0.00    -0.288 N 
ATOM      7  C   UNL     1      -3.997  -1.526   0.334  0.00  0.00    +0.144 C 
ATOM      8  H   UNL     1      -4.329  -5.158  -0.475  0.00  0.00    +0.156 HD
ATOM      9  H   UNL     1      -6.126  -1.640   0.173  0.00  0.00    +0.151 HD
ENDROOT
BRANCH   7  10
ATOM     10  C   UNL     1      -3.994  -0.923   1.715  0.00  0.00    -0.021 A 
ATOM     11  C   UNL     1      -4.437  -1.665   2.794  0.00  0.00    +0.006 A 
ATOM     12  C   UNL     1      -4.435  -1.113   4.061  0.00  0.00    +0.001 A 
ATOM     13  C   UNL     1      -3.989   0.182   4.250  0.00  0.00    +0.015 A 
ATOM     14  C   UNL     1      -3.545   0.924   3.171  0.00  0.00    +0.018 A 
ATOM     15  C   UNL     1      -3.542   0.369   1.904  0.00  0.00    +0.021 A 
ATOM     16 BR   UNL     1      -2.935   2.696   3.428  0.00  0.00    -0.050 Br
ENDBRANCH   7  10
BRANCH   1  17
ATOM     17  C   UNL     1      -1.473  -1.900   0.401  0.00  0.00    +0.339 C 
ATOM     18  O   UNL     1      -0.517  -2.654   0.421  0.00  0.00    -0.245 OA
BRANCH  17  19
ATOM     19  O   UNL     1      -1.289  -0.573   0.560  0.00  0.00    -0.462 OA
BRANCH  19  21
ATOM     20  C   UNL     1       0.063   1.400   0.909  0.00  0.00    +0.048 C 
ATOM     21  C   UNL     1       0.054  -0.122   0.747  0.00  0.00    +0.229 C 
ENDBRANCH  19  21
ENDBRANCH  17  19
ENDBRANCH   1  17
BRANCH   2  22
ATOM     22  C   UNL     1      -1.789  -4.640  -0.210  0.00  0.00    +0.135 C 
BRANCH  22  23
ATOM     23  N   UNL     1      -1.415  -5.143   1.119  0.00  0.00    -0.297 NA
ATOM     24  C   UNL     1      -2.409  -6.103   1.617  0.00  0.00    +0.085 C 
ATOM     25  C   UNL     1      -2.066  -6.494   3.056  0.00  0.00    +0.028 C 
ATOM     26  C   UNL     1      -0.666  -7.114   3.091  0.00  0.00    +0.077 C 
ATOM     27  C   UNL     1       0.342  -6.112   2.523  0.00  0.00    +0.028 C 
ATOM     28  C   UNL     1      -0.071  -5.733   1.099  0.00  0.00    +0.085 C 
BRANCH  26  29
ATOM     29  C   UNL     1      -0.298  -7.447   4.514  0.00  0.00    +0.214 C 
ATOM     30  O   UNL     1      -1.078  -7.211   5.413  0.00  0.00    -0.276 OA
ATOM     31  N   UNL     1       0.897  -8.006   4.789  0.00  0.00    -0.329 N 
ATOM     32  H   UNL     1       1.520  -8.194   4.070  0.00  0.00    +0.145 HD
ATOM     33  H   UNL     1       1.134  -8.220   5.705  0.00  0.00    +0.145 HD
ENDBRANCH  26  29
ENDBRANCH  22  23
ENDBRANCH   2  22
TORSDOF 7
