REMARK  Name = ZINC63819043
REMARK  6 active torsions:
REMARK  status: ('A' for Active; 'I' for Inactive)
REMARK    1  A    between atoms: C_1  and  O_2
REMARK    2  A    between atoms: O_2  and  C_3
REMARK    3  A    between atoms: C_6  and  S_9
REMARK    4  A    between atoms: S_9  and  N_12
REMARK    5  A    between atoms: C_16  and  C_18
REMARK    6  A    between atoms: C_23  and  C_26
REMARK                            x       y       z     vdW  Elec       q    Type
REMARK                         _______ _______ _______ _____ _____    ______ ____
ROOT
ATOM      1  C   UNL     1       4.575  -5.229  -4.365  0.00  0.00    +0.238 C 
ATOM      2  O   UNL     1       4.011  -5.134  -5.435  0.00  0.00    -0.274 OA
ATOM      3  N   UNL     1       5.019  -6.429  -3.942  0.00  0.00    -0.263 N 
ATOM      4  C   UNL     1       4.832  -7.555  -4.730  0.00  0.00    +0.165 A 
ATOM      5  N   UNL     1       5.186  -8.799  -4.489  0.00  0.00    -0.225 NA
ATOM      6  C   UNL     1       4.899  -9.734  -5.403  0.00  0.00    +0.079 A 
ATOM      7  C   UNL     1       4.241  -9.341  -6.562  0.00  0.00    +0.076 A 
ATOM      8  S   UNL     1       4.043  -7.687  -6.324  0.00  0.00    -0.060 S 
ATOM      9  H   UNL     1       5.471  -6.505  -3.087  0.00  0.00    +0.157 HD
ENDROOT
BRANCH   6  10
ATOM     10  C   UNL     1       5.257 -11.084  -5.196  0.00  0.00    +0.007 C 
ATOM     11  C   UNL     1       5.909 -11.621  -4.090  0.00  0.00    +0.005 A 
ATOM     12  C   UNL     1       6.396 -11.043  -2.896  0.00  0.00    +0.010 A 
ATOM     13  C   UNL     1       7.005 -11.825  -1.969  0.00  0.00    +0.001 A 
ATOM     14  C   UNL     1       7.167 -13.199  -2.163  0.00  0.00    +0.002 A 
ATOM     15  C   UNL     1       6.725 -13.820  -3.284  0.00  0.00    +0.026 A 
ATOM     16  C   UNL     1       6.077 -13.068  -4.299  0.00  0.00    +0.043 A 
ATOM     17  N   UNL     1       5.566 -13.428  -5.460  0.00  0.00    -0.380 N 
ATOM     18  C   UNL     1       5.005 -12.250  -6.126  0.00  0.00    +0.151 C 
ATOM     19  H   UNL     1       5.560 -14.331  -5.814  0.00  0.00    +0.160 HD
ENDBRANCH   6  10
BRANCH   1  24
ATOM     20  N   UNL     1       4.211  -2.826  -4.180  0.00  0.00    -0.165 NA
ATOM     21  C   UNL     1       5.295  -1.859  -4.432  0.00  0.00    +0.110 C 
ATOM     22  C   UNL     1       6.380  -2.197  -3.380  0.00  0.00    +0.019 C 
ATOM     23  C   UNL     1       6.288  -3.744  -3.323  0.00  0.00    +0.031 C 
ATOM     24  C   UNL     1       4.778  -4.005  -3.510  0.00  0.00    +0.166 C 
BRANCH  20  25
ATOM     25  S   UNL     1       2.618  -2.616  -4.580  0.00  0.00    +0.062 S 
ATOM     26  O   UNL     1       2.051  -3.915  -4.685  0.00  0.00    -0.153 OA
ATOM     27  O   UNL     1       2.587  -1.683  -5.651  0.00  0.00    -0.153 OA
BRANCH  25  31
ATOM     28  C   UNL     1       0.606  -0.607  -1.056  0.00  0.00    +0.120 A 
ATOM     29  C   UNL     1       1.173   0.161  -2.062  0.00  0.00    +0.047 A 
ATOM     30  C   UNL     1       1.786  -0.455  -3.136  0.00  0.00    +0.032 A 
ATOM     31  C   UNL     1       1.835  -1.835  -3.209  0.00  0.00    +0.106 A 
ATOM     32  C   UNL     1       1.270  -2.602  -2.207  0.00  0.00    +0.032 A 
ATOM     33  C   UNL     1       0.661  -1.992  -1.128  0.00  0.00    +0.047 A 
BRANCH  28  35
ATOM     34  C   UNL     1      -0.017   1.425   0.010  0.00  0.00    +0.277 C 
ATOM     35  O   UNL     1       0.002  -0.004   0.002  0.00  0.00    -0.495 OA
ENDBRANCH  28  35
ENDBRANCH  25  31
ENDBRANCH  20  25
ENDBRANCH   1  24
TORSDOF 5
