REMARK  Name = ZINC10023125
REMARK  10 active torsions:
REMARK  status: ('A' for Active; 'I' for Inactive)
REMARK    1  A    between atoms: C_1  and  O_2
REMARK    2  A    between atoms: O_2  and  C_3
REMARK    3  A    between atoms: C_6  and  S_9
REMARK    4  A    between atoms: S_9  and  C_10
REMARK    5  A    between atoms: C_10  and  C_11
REMARK    6  A    between atoms: C_11  and  N_13
REMARK    7  A    between atoms: N_15  and  C_27
REMARK    8  A    between atoms: C_19  and  S_23
REMARK    9  A    between atoms: S_23  and  N_26
REMARK   10  A    between atoms: C_27  and  C_28
REMARK                            x       y       z     vdW  Elec       q    Type
REMARK                         _______ _______ _______ _____ _____    ______ ____
ROOT
ATOM      1  N   UNL     1       1.580   1.855  -2.409  0.00  0.00    -0.156 NA
ATOM      2  C   UNL     1       2.023   2.100  -1.177  0.00  0.00    +0.167 A 
ATOM      3  N   UNL     1       1.394   1.869   0.006  0.00  0.00    -0.310 N 
ATOM      4  C   UNL     1       2.015   2.197   1.196  0.00  0.00    +0.059 A 
ATOM      5  C   UNL     1       1.534   2.031   2.505  0.00  0.00    +0.029 A 
ATOM      6  C   UNL     1       2.293   2.409   3.587  0.00  0.00    +0.030 A 
ATOM      7  C   UNL     1       3.554   2.959   3.422  0.00  0.00    +0.106 A 
ATOM      8  C   UNL     1       4.055   3.130   2.144  0.00  0.00    +0.045 A 
ATOM      9  C   UNL     1       3.297   2.752   1.061  0.00  0.00    +0.041 A 
ATOM     10  S   UNL     1       3.540   2.789  -0.697  0.00  0.00    -0.052 S 
ENDROOT
BRANCH   7  11
ATOM     11  S   UNL     1       4.508   3.435   4.824  0.00  0.00    +0.056 S 
ATOM     12  O   UNL     1       4.032   2.666   5.920  0.00  0.00    -0.153 OA
ATOM     13  O   UNL     1       5.869   3.417   4.415  0.00  0.00    -0.153 OA
BRANCH  11  14
ATOM     14  N   UNL     1       4.135   5.014   5.157  0.00  0.00    -0.204 NA
ATOM     15  H   UNL     1       3.491   5.487   4.607  0.00  0.00    +0.144 HD
ATOM     16  H   UNL     1       4.561   5.467   5.902  0.00  0.00    +0.144 HD
ENDBRANCH  11  14
ENDBRANCH   7  11
BRANCH   1  17
ATOM     17  C   UNL     1       0.320   1.480  -2.599  0.00  0.00    +0.249 C 
ATOM     18  O   UNL     1      -0.588   2.251  -2.355  0.00  0.00    -0.273 OA
BRANCH  17  19
ATOM     19  C   UNL     1       0.016   0.098  -3.118  0.00  0.00    +0.172 C 
BRANCH  19  20
ATOM     20  S   UNL     1      -1.780  -0.109  -3.270  0.00  0.00    -0.116 S 
BRANCH  20  24
ATOM     21  C   UNL     1      -2.268  -4.332  -4.839  0.00  0.00    +0.120 A 
ATOM     22  C   UNL     1      -3.388  -3.548  -4.598  0.00  0.00    +0.047 A 
ATOM     23  C   UNL     1      -3.240  -2.261  -4.120  0.00  0.00    +0.018 A 
ATOM     24  C   UNL     1      -1.970  -1.751  -3.880  0.00  0.00    +0.009 A 
ATOM     25  C   UNL     1      -0.850  -2.535  -4.126  0.00  0.00    +0.018 A 
ATOM     26  C   UNL     1      -1.000  -3.824  -4.599  0.00  0.00    +0.047 A 
BRANCH  21  28
ATOM     27  C   UNL     1      -1.220  -6.350  -5.534  0.00  0.00    +0.277 C 
ATOM     28  O   UNL     1      -2.415  -5.599  -5.309  0.00  0.00    -0.495 OA
ENDBRANCH  21  28
ENDBRANCH  20  24
ENDBRANCH  19  20
ENDBRANCH  17  19
ENDBRANCH   1  17
BRANCH   3  29
ATOM     29  C   UNL     1       0.054   1.278   0.019  0.00  0.00    +0.212 C 
BRANCH  29  30
ATOM     30  C   UNL     1      -0.954   2.349   0.080  0.00  0.00    -0.084 C 
ATOM     31  C   UNL     1      -1.758   3.203   0.128  0.00  0.00    +0.005 C 
ENDBRANCH  29  30
ENDBRANCH   3  29
TORSDOF 9
