REMARK  Name = ZINC07427262
REMARK  7 active torsions:
REMARK  status: ('A' for Active; 'I' for Inactive)
REMARK    1  A    between atoms: C_1  and  C_2
REMARK    2  A    between atoms: C_5  and  N_8
REMARK    3  A    between atoms: N_8  and  C_9
REMARK    4  A    between atoms: C_10  and  C_12
REMARK    5  A    between atoms: C_12  and  N_13
REMARK    6  A    between atoms: C_16  and  C_20
REMARK    7  A    between atoms: C_16  and  C_21
REMARK                            x       y       z     vdW  Elec       q    Type
REMARK                         _______ _______ _______ _____ _____    ______ ____
ROOT
ATOM      1  N   UNL     1       1.809   8.691   1.786  0.00  0.00    -0.215 N 
ATOM      2  C   UNL     1       2.272   7.994   0.729  0.00  0.00    +0.251 C 
ATOM      3  O   UNL     1       3.430   7.837   0.406  0.00  0.00    -0.272 OA
ATOM      4  C   UNL     1       1.044   7.447   0.029  0.00  0.00    +0.135 C 
ATOM      5  N   UNL     1      -0.074   7.946   0.849  0.00  0.00    -0.281 N 
ATOM      6  C   UNL     1       0.473   8.660   1.850  0.00  0.00    +0.310 C 
ATOM      7  O   UNL     1      -0.175   9.216   2.715  0.00  0.00    -0.252 OA
ATOM      8  C   UNL     1       0.952   7.989  -1.399  0.00  0.00    +0.047 C 
ATOM      9  H   UNL     1      -1.019   7.790   0.697  0.00  0.00    +0.152 HD
ENDROOT
BRANCH   4  10
ATOM     10  C   UNL     1       1.064   5.940   0.022  0.00  0.00    -0.015 A 
ATOM     11  C   UNL     1       2.286   5.270   0.007  0.00  0.00    +0.007 A 
ATOM     12  C   UNL     1       2.340   3.910  -0.000  0.00  0.00    +0.009 A 
ATOM     13  C   UNL     1       1.147   3.167   0.008  0.00  0.00    -0.018 A 
ATOM     14  C   UNL     1       1.163   1.762   0.000  0.00  0.00    +0.008 A 
ATOM     15  C   UNL     1      -0.013   1.076   0.008  0.00  0.00    +0.001 A 
ATOM     16  C   UNL     1      -1.235   1.746   0.017  0.00  0.00    +0.001 A 
ATOM     17  C   UNL     1      -1.288   3.106   0.031  0.00  0.00    +0.008 A 
ATOM     18  C   UNL     1      -0.096   3.849   0.023  0.00  0.00    -0.018 A 
ATOM     19  C   UNL     1      -0.111   5.254   0.030  0.00  0.00    +0.014 A 
ENDBRANCH   4  10
BRANCH   1  20
ATOM     20  C   UNL     1       2.663   9.395   2.745  0.00  0.00    +0.213 C 
BRANCH  20  23
ATOM     21  N   UNL     1       3.652  11.648   3.002  0.00  0.00    -0.300 N 
ATOM     22  C   UNL     1       4.258  11.187   4.254  0.00  0.00    +0.132 C 
ATOM     23  C   UNL     1       2.890  10.808   2.273  0.00  0.00    +0.234 C 
ATOM     24  O   UNL     1       2.388  11.189   1.237  0.00  0.00    -0.274 OA
BRANCH  21  29
ATOM     25  C   UNL     1       5.303  17.104   2.426  0.00  0.00    +0.007 C 
ATOM     26  C   UNL     1       5.072  15.669   2.906  0.00  0.00    -0.014 C 
ATOM     27  C   UNL     1       3.575  15.435   3.113  0.00  0.00    +0.005 C 
ATOM     28  C   UNL     1       3.344  14.001   3.592  0.00  0.00    +0.023 C 
ATOM     29  C   UNL     1       3.873  13.021   2.543  0.00  0.00    +0.076 C 
ATOM     30  C   UNL     1       5.370  13.255   2.336  0.00  0.00    +0.023 C 
ATOM     31  C   UNL     1       5.601  14.689   1.856  0.00  0.00    +0.005 C 
ENDBRANCH  21  29
ENDBRANCH  20  23
ENDBRANCH   1  20
TORSDOF 4
