REMARK  Name = ZINC13977203
REMARK  8 active torsions:
REMARK  status: ('A' for Active; 'I' for Inactive)
REMARK    1  A    between atoms: C_4  and  C_7
REMARK    2  A    between atoms: C_7  and  C_8
REMARK    3  A    between atoms: C_7  and  C_14
REMARK    4  A    between atoms: N_16  and  N_17
REMARK    5  A    between atoms: N_17  and  C_18
REMARK    6  A    between atoms: C_18  and  N_20
REMARK    7  A    between atoms: C_21  and  C_23
REMARK    8  A    between atoms: C_24  and  C_25
REMARK                            x       y       z     vdW  Elec       q    Type
REMARK                         _______ _______ _______ _____ _____    ______ ____
ROOT
ATOM      1  C   UNL     1      -0.345  -0.786   1.243  0.00  0.00    +0.241 C 
ATOM      2  O   UNL     1      -0.791  -0.214   2.215  0.00  0.00    -0.273 OA
ATOM      3  N   UNL     1      -0.159  -2.121   1.272  0.00  0.00    -0.234 N 
ATOM      4  H   UNL     1       0.198  -2.578   0.495  0.00  0.00    +0.173 HD
ENDROOT
BRANCH   3   5
ATOM      5  N   UNL     1      -0.482  -2.847   2.425  0.00  0.00    -0.246 N 
ATOM      6  H   UNL     1      -0.839  -2.390   3.203  0.00  0.00    +0.172 HD
BRANCH   5   7
ATOM      7  C   UNL     1      -0.296  -4.182   2.455  0.00  0.00    +0.153 C 
ATOM      8  S   UNL     1      -0.690  -5.070   3.864  0.00  0.00    -0.017 S 
BRANCH   7   9
ATOM      9  N   UNL     1       0.200  -4.817   1.375  0.00  0.00    -0.263 N 
ATOM     10  C   UNL     1       0.386  -6.152   1.404  0.00  0.00    +0.242 C 
ATOM     11  O   UNL     1       0.105  -6.783   2.406  0.00  0.00    -0.270 OA
ATOM     12  H   UNL     1       0.423  -4.314   0.576  0.00  0.00    +0.157 HD
BRANCH  10  13
ATOM     13  C   UNL     1       0.924  -6.841   0.232  0.00  0.00    +0.068 C 
ATOM     14  C   UNL     1       1.109  -8.178   0.262  0.00  0.00    +0.013 C 
BRANCH  14  15
ATOM     15  C   UNL     1       1.651  -8.871  -0.917  0.00  0.00    -0.025 A 
ATOM     16  C   UNL     1       1.969  -8.149  -2.073  0.00  0.00    +0.011 A 
ATOM     17  C   UNL     1       2.480  -8.804  -3.172  0.00  0.00    +0.039 A 
ATOM     18  C   UNL     1       2.670 -10.177  -3.138  0.00  0.00    +0.123 A 
ATOM     19  C   UNL     1       2.352 -10.900  -1.998  0.00  0.00    +0.039 A 
ATOM     20  C   UNL     1       1.845 -10.256  -0.890  0.00  0.00    +0.011 A 
ATOM     21  F   UNL     1       3.167 -10.814  -4.221  0.00  0.00    -0.205 F 
ENDBRANCH  14  15
ENDBRANCH  10  13
ENDBRANCH   7   9
ENDBRANCH   5   7
ENDBRANCH   3   5
BRANCH   1  22
ATOM     22  C   UNL     1       0.002  -0.004   0.002  0.00  0.00    +0.136 C 
BRANCH  22  26
ATOM     23  C   UNL     1      -0.846   4.133   0.642  0.00  0.00    +0.000 A 
ATOM     24  C   UNL     1       0.406   3.744   0.204  0.00  0.00    +0.000 A 
ATOM     25  C   UNL     1       0.680   2.405  -0.003  0.00  0.00    +0.005 A 
ATOM     26  C   UNL     1      -0.297   1.456   0.228  0.00  0.00    -0.031 A 
ATOM     27  C   UNL     1      -1.551   1.845   0.661  0.00  0.00    +0.005 A 
ATOM     28  C   UNL     1      -1.824   3.183   0.873  0.00  0.00    +0.000 A 
ENDBRANCH  22  26
BRANCH  22  29
ATOM     29  C   UNL     1      -0.817  -0.511  -1.157  0.00  0.00    -0.031 A 
ATOM     30  C   UNL     1      -2.184  -0.668  -1.021  0.00  0.00    +0.005 A 
ATOM     31  C   UNL     1      -2.936  -1.129  -2.086  0.00  0.00    +0.000 A 
ATOM     32  C   UNL     1      -2.320  -1.442  -3.283  0.00  0.00    +0.000 A 
ATOM     33  C   UNL     1      -0.952  -1.291  -3.417  0.00  0.00    +0.000 A 
ATOM     34  C   UNL     1      -0.201  -0.825  -2.354  0.00  0.00    +0.005 A 
ENDBRANCH  22  29
ENDBRANCH   1  22
TORSDOF 8
