REMARK  Name = ZINC35707119
REMARK  10 active torsions:
REMARK  status: ('A' for Active; 'I' for Inactive)
REMARK    1  A    between atoms: C_1  and  C_2
REMARK    2  A    between atoms: C_2  and  C_3
REMARK    3  A    between atoms: C_3  and  C_4
REMARK    4  A    between atoms: C_4  and  N_5
REMARK    5  A    between atoms: N_5  and  C_6
REMARK    6  A    between atoms: C_6  and  C_7
REMARK    7  A    between atoms: C_21  and  C_23
REMARK    8  A    between atoms: C_26  and  O_29
REMARK    9  A    between atoms: O_29  and  C_30
REMARK   10  A    between atoms: N_33  and  C_34
REMARK                            x       y       z     vdW  Elec       q    Type
REMARK                         _______ _______ _______ _____ _____    ______ ____
ROOT
ATOM      1  C   UNL     1       3.154  -4.146  -2.037  0.00  0.00    +0.238 C 
ATOM      2  O   UNL     1       2.241  -4.874  -1.707  0.00  0.00    -0.273 OA
ATOM      3  N   UNL     1       4.418  -4.612  -2.045  0.00  0.00    -0.255 N 
ATOM      4  C   UNL     1       4.668  -5.963  -1.768  0.00  0.00    +0.061 A 
ATOM      5  C   UNL     1       3.822  -6.680  -0.936  0.00  0.00    +0.025 A 
ATOM      6  C   UNL     1       4.074  -8.015  -0.681  0.00  0.00    +0.002 A 
ATOM      7  C   UNL     1       5.167  -8.643  -1.251  0.00  0.00    +0.002 A 
ATOM      8  C   UNL     1       6.020  -7.936  -2.080  0.00  0.00    +0.028 A 
ATOM      9  C   UNL     1       5.777  -6.601  -2.335  0.00  0.00    +0.068 A 
ATOM     10  N   UNL     1       6.628  -5.836  -3.146  0.00  0.00    -0.316 N 
ATOM     11  C   UNL     1       7.615  -6.225  -3.987  0.00  0.00    +0.092 A 
ATOM     12  C   UNL     1       8.147  -5.118  -4.553  0.00  0.00    +0.020 A 
ATOM     13  C   UNL     1       7.456  -4.000  -4.035  0.00  0.00    +0.025 A 
ATOM     14  C   UNL     1       6.537  -4.461  -3.179  0.00  0.00    +0.049 A 
ATOM     15  C   UNL     1       5.535  -3.702  -2.349  0.00  0.00    +0.159 C 
ENDROOT
BRANCH  15  16
ATOM     16  C   UNL     1       6.183  -3.243  -1.069  0.00  0.00    -0.021 A 
ATOM     17  C   UNL     1       6.369  -4.136  -0.029  0.00  0.00    +0.009 A 
ATOM     18  C   UNL     1       6.962  -3.716   1.146  0.00  0.00    +0.046 A 
ATOM     19  C   UNL     1       7.372  -2.398   1.282  0.00  0.00    +0.120 A 
ATOM     20  C   UNL     1       7.185  -1.504   0.238  0.00  0.00    +0.046 A 
ATOM     21  C   UNL     1       6.596  -1.930  -0.937  0.00  0.00    +0.009 A 
BRANCH  19  22
ATOM     22  O   UNL     1       7.955  -1.983   2.438  0.00  0.00    -0.495 OA
ATOM     23  C   UNL     1       8.352  -0.612   2.508  0.00  0.00    +0.277 C 
ENDBRANCH  19  22
ENDBRANCH  15  16
BRANCH   1  24
ATOM     24  C   UNL     1       2.873  -2.721  -2.438  0.00  0.00    +0.205 C 
BRANCH  24  25
ATOM     25  N   UNL     1       1.426  -2.496  -2.462  0.00  0.00    -0.277 N 
ATOM     26  C   UNL     1       0.728  -2.715  -3.594  0.00  0.00    +0.303 C 
ATOM     27  O   UNL     1       1.300  -3.099  -4.596  0.00  0.00    -0.253 OA
ATOM     28  N   UNL     1      -0.604  -2.507  -3.615  0.00  0.00    -0.296 N 
ATOM     29  H   UNL     1      -1.060  -2.201  -2.815  0.00  0.00    +0.151 HD
BRANCH  28  30
ATOM     30  C   UNL     1      -1.362  -2.745  -4.845  0.00  0.00    +0.074 C 
ATOM     31  C   UNL     1      -1.739  -4.225  -4.934  0.00  0.00    +0.022 C 
ATOM     32  C   UNL     1      -2.531  -4.474  -6.219  0.00  0.00    +0.002 C 
ATOM     33  C   UNL     1      -3.803  -3.623  -6.207  0.00  0.00    +0.000 C 
ATOM     34  C   UNL     1      -3.427  -2.143  -6.117  0.00  0.00    +0.002 C 
ATOM     35  C   UNL     1      -2.634  -1.895  -4.832  0.00  0.00    +0.022 C 
ENDBRANCH  28  30
BRANCH  25  36
ATOM     36  C   UNL     1       0.737  -2.033  -1.254  0.00  0.00    +0.110 C 
BRANCH  36  37
ATOM     37  C   UNL     1       0.717  -0.503  -1.233  0.00  0.00    +0.019 C 
BRANCH  37  39
ATOM     38  C   UNL     1      -0.023   1.510   0.048  0.00  0.00    +0.004 C 
ATOM     39  C   UNL     1      -0.002  -0.020   0.028  0.00  0.00    -0.002 C 
ENDBRANCH  37  39
ENDBRANCH  36  37
ENDBRANCH  25  36
ENDBRANCH  24  25
ENDBRANCH   1  24
TORSDOF 8
