REMARK  Name = ZINC11073402
REMARK  8 active torsions:
REMARK  status: ('A' for Active; 'I' for Inactive)
REMARK    1  A    between atoms: C_1  and  C_2
REMARK    2  A    between atoms: C_2  and  C_3
REMARK    3  A    between atoms: C_2  and  C_4
REMARK    4  A    between atoms: C_4  and  C_6
REMARK    5  A    between atoms: C_4  and  N_24
REMARK    6  A    between atoms: C_11  and  C_14
REMARK    7  A    between atoms: N_24  and  S_25
REMARK    8  A    between atoms: S_25  and  C_28
REMARK                            x       y       z     vdW  Elec       q    Type
REMARK                         _______ _______ _______ _____ _____    ______ ____
ROOT
ATOM      1  C   UNL     1       4.213   0.278  -2.430  0.00  0.00    +0.165 C 
ENDROOT
BRANCH   1   2
ATOM      2  C   UNL     1       3.628  -0.023  -3.786  0.00  0.00    +0.235 C 
ATOM      3  O   UNL     1       3.230  -1.139  -4.041  0.00  0.00    -0.274 OA
ATOM      4  N   UNL     1       3.548   0.950  -4.716  0.00  0.00    -0.296 N 
ATOM      5  C   UNL     1       2.905   0.712  -6.020  0.00  0.00    +0.113 C 
ATOM      6  C   UNL     1       1.699   1.649  -6.129  0.00  0.00    +0.054 C 
ATOM      7  C   UNL     1       2.072   3.034  -5.692  0.00  0.00    -0.039 C 
ATOM      8  C   UNL     1       3.120   3.323  -4.957  0.00  0.00    -0.004 C 
ATOM      9  C   UNL     1       4.093   2.292  -4.467  0.00  0.00    +0.135 C 
BRANCH   7  10
ATOM     10  C   UNL     1       1.202   4.148  -6.119  0.00  0.00    +0.003 A 
ATOM     11  C   UNL     1       1.140   4.701  -7.357  0.00  0.00    +0.091 A 
ATOM     12  N   UNL     1       0.216   5.705  -7.368  0.00  0.00    -0.360 N 
ATOM     13  H   UNL     1      -0.006   6.246  -8.142  0.00  0.00    +0.165 HD
ATOM     14  C   UNL     1      -0.350   5.845  -6.119  0.00  0.00    +0.047 A 
ATOM     15  C   UNL     1       0.237   4.881  -5.281  0.00  0.00    +0.007 A 
ATOM     16  C   UNL     1      -0.149   4.790  -3.945  0.00  0.00    +0.010 A 
ATOM     17  C   UNL     1      -1.108   5.647  -3.453  0.00  0.00    +0.001 A 
ATOM     18  C   UNL     1      -1.688   6.599  -4.279  0.00  0.00    +0.002 A 
ATOM     19  C   UNL     1      -1.316   6.701  -5.601  0.00  0.00    +0.026 A 
ENDBRANCH   7  10
ENDBRANCH   1   2
BRANCH   1  21
ATOM     20  C   UNL     1       6.273   1.007  -1.220  0.00  0.00    +0.009 C 
ATOM     21  C   UNL     1       5.709   0.564  -2.571  0.00  0.00    +0.010 C 
ATOM     22  C   UNL     1       6.429  -0.705  -3.034  0.00  0.00    +0.009 C 
ENDBRANCH   1  21
BRANCH   1  23
ATOM     23  N   UNL     1       4.017  -0.875  -1.548  0.00  0.00    -0.178 NA
ATOM     24  H   UNL     1       4.117  -1.775  -1.896  0.00  0.00    +0.149 HD
BRANCH  23  25
ATOM     25  S   UNL     1       3.626  -0.643   0.044  0.00  0.00    +0.059 S 
ATOM     26  O   UNL     1       4.541   0.319   0.551  0.00  0.00    -0.153 OA
ATOM     27  O   UNL     1       3.481  -1.934   0.620  0.00  0.00    -0.153 OA
BRANCH  25  28
ATOM     28  C   UNL     1       2.032   0.109   0.085  0.00  0.00    +0.109 A 
ATOM     29  C   UNL     1       0.898  -0.681   0.134  0.00  0.00    +0.032 A 
ATOM     30  C   UNL     1      -0.353  -0.095   0.165  0.00  0.00    +0.051 A 
ATOM     31  C   UNL     1      -0.474   1.286   0.147  0.00  0.00    +0.162 A 
ATOM     32  C   UNL     1       0.665   2.080   0.100  0.00  0.00    +0.164 A 
ATOM     33  C   UNL     1       1.919   1.486   0.068  0.00  0.00    +0.078 A 
ATOM     34  O   UNL     1       0.569   3.437   0.090  0.00  0.00    -0.485 OA
ATOM     35  C   UNL     1      -0.706   3.990  -0.254  0.00  0.00    +0.270 C 
ATOM     36  C   UNL     1      -1.785   3.232   0.532  0.00  0.00    +0.270 C 
ATOM     37  O   UNL     1      -1.714   1.849   0.170  0.00  0.00    -0.485 OA
ENDBRANCH  25  28
ENDBRANCH  23  25
ENDBRANCH   1  23
TORSDOF 6
