REMARK  Name = ZINC20758148
REMARK  6 active torsions:
REMARK  status: ('A' for Active; 'I' for Inactive)
REMARK    1  A    between atoms: C_1  and  C_2
REMARK    2  A    between atoms: C_2  and  N_3
REMARK    3  A    between atoms: C_16  and  C_18
REMARK    4  A    between atoms: N_24  and  C_27
REMARK    5  A    between atoms: C_30  and  C_34
REMARK    6  A    between atoms: C_32  and  C_33
REMARK                            x       y       z     vdW  Elec       q    Type
REMARK                         _______ _______ _______ _____ _____    ______ ____
ROOT
ATOM      1  C   UNL     1       1.753  -2.331  -0.041  0.00  0.00    +0.074 A 
ATOM      2  C   UNL     1       3.053  -1.796   0.015  0.00  0.00    +0.260 A 
ATOM      3  N   UNL     1       3.877  -2.156   1.018  0.00  0.00    -0.274 N 
ATOM      4  H   UNL     1       4.774  -1.789   1.059  0.00  0.00    +0.173 HD
ATOM      5  C   UNL     1       3.466  -3.020   1.964  0.00  0.00    +0.337 A 
ATOM      6  O   UNL     1       4.225  -3.331   2.861  0.00  0.00    -0.246 OA
ATOM      7  N   UNL     1       2.227  -3.544   1.931  0.00  0.00    -0.229 N 
ATOM      8  C   UNL     1       1.353  -3.200   0.929  0.00  0.00    +0.267 A 
ATOM      9  O   UNL     1       0.108  -3.723   0.903  0.00  0.00    -0.267 OA
ATOM     10  O   UNL     1       3.431  -1.013  -0.840  0.00  0.00    -0.267 OA
ENDROOT
BRANCH   1  24
ATOM     11  N   UNL     1       0.690  -0.478  -1.207  0.00  0.00    +0.388 N 
ATOM     12  C   UNL     1      -0.079  -0.076  -2.393  0.00  0.00    -0.073 C 
ATOM     13  C   UNL     1       0.777  -0.281  -3.651  0.00  0.00    +0.019 C 
ATOM     14  C   UNL     1       1.349  -1.675  -3.598  0.00  0.00    -0.022 A 
ATOM     15  C   UNL     1       1.958  -2.460  -4.647  0.00  0.00    +0.003 A 
ATOM     16  C   UNL     1       2.212  -2.207  -5.999  0.00  0.00    +0.010 A 
ATOM     17  C   UNL     1       2.822  -3.208  -6.714  0.00  0.00    +0.001 A 
ATOM     18  C   UNL     1       3.174  -4.417  -6.136  0.00  0.00    +0.002 A 
ATOM     19  C   UNL     1       2.935  -4.694  -4.801  0.00  0.00    +0.026 A 
ATOM     20  C   UNL     1       2.317  -3.697  -4.050  0.00  0.00    +0.047 A 
ATOM     21  N   UNL     1       1.942  -3.640  -2.738  0.00  0.00    -0.359 N 
ATOM     22  H   UNL     1       2.067  -4.351  -2.090  0.00  0.00    +0.166 HD
ATOM     23  C   UNL     1       1.365  -2.428  -2.474  0.00  0.00    +0.011 A 
ATOM     24  C   UNL     1       0.814  -1.943  -1.154  0.00  0.00    +0.021 C 
ATOM     25  H   UNL     1       1.609  -0.066  -1.251  0.00  0.00    -0.080 HD
BRANCH  11  27
ATOM     26  C   UNL     1      -0.019   1.526   0.010  0.00  0.00    -0.017 C 
ATOM     27  C   UNL     1       0.002  -0.004   0.002  0.00  0.00    -0.081 C 
ENDBRANCH  11  27
ENDBRANCH   1  24
BRANCH   7  28
ATOM     28  C   UNL     1       1.824  -4.441   2.929  0.00  0.00    +0.057 A 
ATOM     29  C   UNL     1       1.214  -3.970   4.084  0.00  0.00    +0.027 A 
ATOM     30  C   UNL     1       0.818  -4.857   5.066  0.00  0.00    +0.005 A 
ATOM     31  C   UNL     1       1.030  -6.213   4.900  0.00  0.00    -0.050 A 
ATOM     32  C   UNL     1       1.638  -6.686   3.752  0.00  0.00    +0.008 A 
ATOM     33  C   UNL     1       2.030  -5.804   2.763  0.00  0.00    -0.026 A 
ATOM     34  C   UNL     1       2.687  -6.321   1.509  0.00  0.00    +0.046 C 
ATOM     35  C   UNL     1       0.597  -7.178   5.974  0.00  0.00    +0.044 C 
ENDBRANCH   7  28
TORSDOF 3
