REMARK  Name = ZINC52593065
REMARK  6 active torsions:
REMARK  status: ('A' for Active; 'I' for Inactive)
REMARK    1  A    between atoms: C_1  and  C_2
REMARK    2  A    between atoms: C_2  and  N_3
REMARK    3  A    between atoms: C_7  and  N_10
REMARK    4  A    between atoms: N_13  and  N_14
REMARK    5  A    between atoms: C_15  and  C_17
REMARK    6  A    between atoms: C_24  and  C_27
REMARK                            x       y       z     vdW  Elec       q    Type
REMARK                         _______ _______ _______ _____ _____    ______ ____
ROOT
ATOM      1  N   UNL     1      -2.772  -3.962  -0.314  0.00  0.00    -0.297 N 
ATOM      2  C   UNL     1      -3.813  -4.604  -0.880  0.00  0.00    +0.316 C 
ATOM      3  O   UNL     1      -4.769  -3.972  -1.285  0.00  0.00    -0.251 OA
ATOM      4  N   UNL     1      -3.794  -5.946  -0.996  0.00  0.00    -0.218 N 
ATOM      5  H   UNL     1      -2.009  -4.466   0.009  0.00  0.00    +0.150 HD
ATOM      6  H   UNL     1      -4.544  -6.408  -1.403  0.00  0.00    +0.174 HD
ENDROOT
BRANCH   1  11
ATOM      7  N   UNL     1      -1.376  -0.512   0.012  0.00  0.00    +0.381 N 
ATOM      8  C   UNL     1      -2.027  -0.132   1.272  0.00  0.00    -0.079 C 
ATOM      9  C   UNL     1      -3.487  -0.588   1.254  0.00  0.00    -0.017 C 
ATOM     10  C   UNL     1      -3.538  -2.110   1.091  0.00  0.00    +0.018 C 
ATOM     11  C   UNL     1      -2.792  -2.502  -0.187  0.00  0.00    +0.058 C 
ATOM     12  C   UNL     1      -1.358  -1.975  -0.116  0.00  0.00    -0.056 C 
ATOM     13  H   UNL     1      -1.886  -0.114  -0.762  0.00  0.00    -0.082 HD
BRANCH   7  15
ATOM     14  C   UNL     1      -0.019   1.526   0.010  0.00  0.00    -0.017 C 
ATOM     15  C   UNL     1       0.002  -0.004   0.002  0.00  0.00    -0.082 C 
ENDBRANCH   7  15
ENDBRANCH   1  11
BRANCH   4  16
ATOM     16  N   UNL     1      -2.692  -6.675  -0.529  0.00  0.00    -0.229 N 
ATOM     17  C   UNL     1      -2.674  -8.017  -0.645  0.00  0.00    +0.267 C 
ATOM     18  O   UNL     1      -3.614  -8.597  -1.156  0.00  0.00    -0.268 OA
ATOM     19  H   UNL     1      -1.943  -6.213  -0.122  0.00  0.00    +0.173 HD
BRANCH  17  20
ATOM     20  C   UNL     1      -1.521  -8.779  -0.157  0.00  0.00    +0.076 A 
ATOM     21  C   UNL     1      -1.302 -10.144  -0.185  0.00  0.00    +0.024 A 
ATOM     22  C   UNL     1      -0.108 -10.598   0.354  0.00  0.00    -0.036 A 
ATOM     23  C   UNL     1       0.735  -9.652   0.859  0.00  0.00    -0.006 A 
ATOM     24  S   UNL     1      -0.030  -8.187   0.622  0.00  0.00    -0.088 S 
ATOM     25  C   UNL     1       2.076  -9.890   1.490  0.00  0.00    +0.043 C 
ATOM     26  C   UNL     1       2.529 -11.315   1.145  0.00  0.00    +0.009 C 
ATOM     27  C   UNL     1       1.374 -12.281   1.426  0.00  0.00    -0.009 C 
ATOM     28  C   UNL     1       0.266 -12.078   0.392  0.00  0.00    +0.039 C 
ATOM     29  C   UNL     1       1.884 -13.721   1.346  0.00  0.00    +0.008 C 
ENDBRANCH  17  20
ENDBRANCH   4  16
TORSDOF 4
