REMARK  Name = ZINC59251905
REMARK  3 active torsions:
REMARK  status: ('A' for Active; 'I' for Inactive)
REMARK    1  A    between atoms: C_12  and  C_14
REMARK    2  A    between atoms: C_14  and  C_15
REMARK    3  A    between atoms: C_15  and  C_16
REMARK                            x       y       z     vdW  Elec       q    Type
REMARK                         _______ _______ _______ _____ _____    ______ ____
ROOT
ATOM      1  C   UNL     1      -0.017   1.380   0.010  0.00  0.00    +0.000 A 
ATOM      2  C   UNL     1       1.170   2.091   0.002  0.00  0.00    +0.002 A 
ATOM      3  C   UNL     1       2.380   1.424  -0.027  0.00  0.00    +0.024 A 
ATOM      4  C   UNL     1       2.399   0.035  -0.040  0.00  0.00    +0.039 A 
ATOM      5  C   UNL     1       1.210  -0.671  -0.009  0.00  0.00    -0.026 A 
ATOM      6  C   UNL     1       0.002  -0.004   0.002  0.00  0.00    +0.005 A 
ATOM      7  C   UNL     1       1.240  -2.187   0.051  0.00  0.00    +0.037 C 
ATOM      8  C   UNL     1       1.758  -2.731  -1.277  0.00  0.00    +0.006 C 
ATOM      9  C   UNL     1       3.280  -2.768  -1.300  0.00  0.00    +0.020 C 
ATOM     10  C   UNL     1       3.918  -1.400  -1.340  0.00  0.00    +0.113 C 
ATOM     11  N   UNL     1       3.616  -0.654  -0.108  0.00  0.00    -0.271 N 
ATOM     12  C   UNL     1       4.483  -0.634   0.923  0.00  0.00    +0.220 C 
ATOM     13  O   UNL     1       5.532  -1.238   0.844  0.00  0.00    -0.275 OA
ENDROOT
BRANCH  12  14
ATOM     14  C   UNL     1       4.150   0.138   2.174  0.00  0.00    +0.099 C 
BRANCH  14  15
ATOM     15  C   UNL     1       5.294  -0.004   3.180  0.00  0.00    +0.041 C 
BRANCH  15  16
ATOM     16  C   UNL     1       4.955   0.780   4.450  0.00  0.00    +0.119 C 
ATOM     17  C   UNL     1       6.059   0.576   5.518  0.00  0.00    +0.034 C 
ATOM     18  C   UNL     1       5.890   1.866   6.367  0.00  0.00    +0.031 C 
ATOM     19  C   UNL     1       5.477   2.906   5.303  0.00  0.00    +0.160 C 
ATOM     20  O   UNL     1       4.948   2.190   4.179  0.00  0.00    -0.377 OA
ENDBRANCH  15  16
ENDBRANCH  14  15
ENDBRANCH  12  14
TORSDOF 3
