REMARK  Name = ZINC39666855
REMARK  11 active torsions:
REMARK  status: ('A' for Active; 'I' for Inactive)
REMARK    1  A    between atoms: C_1  and  C_2
REMARK    2  A    between atoms: C_2  and  C_3
REMARK    3  A    between atoms: C_3  and  C_4
REMARK    4  A    between atoms: C_3  and  C_6
REMARK    5  A    between atoms: C_4  and  C_5
REMARK    6  A    between atoms: C_6  and  N_7
REMARK    7  A    between atoms: C_8  and  C_10
REMARK    8  A    between atoms: C_21  and  C_23
REMARK    9  A    between atoms: C_25  and  C_30
REMARK   10  A    between atoms: N_27  and  C_28
REMARK   11  A    between atoms: C_28  and  C_29
REMARK                            x       y       z     vdW  Elec       q    Type
REMARK                         _______ _______ _______ _____ _____    ______ ____
ROOT
ATOM      1  C   UNL     1      -1.167  -4.066   3.424  0.00  0.00    +0.100 C 
ATOM      2  C   UNL     1       0.278  -3.579   3.670  0.00  0.00    +0.121 C 
ATOM      3  N   UNL     1       0.921  -4.679   4.426  0.00  0.00    -0.295 N 
ATOM      4  C   UNL     1       0.395  -5.914   3.798  0.00  0.00    +0.115 C 
ATOM      5  C   UNL     1      -1.086  -5.600   3.509  0.00  0.00    -0.004 C 
ATOM      6  C   UNL     1      -1.967  -6.114   4.644  0.00  0.00    -0.010 C 
ATOM      7  C   UNL     1      -1.914  -7.644   4.672  0.00  0.00    -0.082 C 
ATOM      8  N   UNL     1      -2.380  -8.175   3.385  0.00  0.00    +0.379 N 
ATOM      9  C   UNL     1      -1.474  -7.751   2.310  0.00  0.00    -0.082 C 
ATOM     10  C   UNL     1      -1.508  -6.225   2.183  0.00  0.00    -0.010 C 
ATOM     11  C   UNL     1       1.789  -4.579   5.453  0.00  0.00    +0.266 C 
ATOM     12  O   UNL     1       2.302  -5.580   5.915  0.00  0.00    -0.268 OA
ATOM     13  H   UNL     1      -2.403  -9.182   3.427  0.00  0.00    -0.086 HD
ATOM     14  H   UNL     1      -3.309  -7.828   3.196  0.00  0.00    -0.086 HD
ENDROOT
BRANCH  11  15
ATOM     15  C   UNL     1       2.115  -3.259   6.014  0.00  0.00    +0.138 A 
ATOM     16  C   UNL     1       3.168  -2.438   5.650  0.00  0.00    +0.071 A 
ATOM     17  C   UNL     1       3.053  -1.306   6.463  0.00  0.00    +0.075 A 
ATOM     18  N   UNL     1       2.010  -1.471   7.234  0.00  0.00    -0.175 NA
ATOM     19  N   UNL     1       1.435  -2.595   6.997  0.00  0.00    -0.258 N 
ATOM     20  C   UNL     1       3.969  -0.109   6.452  0.00  0.00    +0.069 C 
ATOM     21 BR   UNL     1       4.483  -2.775   4.333  0.00  0.00    -0.046 Br
BRANCH  19  22
ATOM     22  C   UNL     1       0.236  -3.091   7.678  0.00  0.00    +0.141 C 
ATOM     23  C   UNL     1       0.640  -3.783   8.981  0.00  0.00    +0.029 C 
ENDBRANCH  19  22
ENDBRANCH  11  15
BRANCH   1  25
ATOM     24  N   UNL     1      -2.951  -3.421   1.837  0.00  0.00    -0.315 N 
ATOM     25  C   UNL     1      -1.640  -3.640   2.058  0.00  0.00    +0.218 C 
ATOM     26  O   UNL     1      -0.840  -3.495   1.158  0.00  0.00    -0.275 OA
ATOM     27  H   UNL     1      -3.581  -3.467   2.572  0.00  0.00    +0.149 HD
BRANCH  24  28
ATOM     28  C   UNL     1      -3.424  -3.112   0.485  0.00  0.00    +0.107 C 
BRANCH  28  29
ATOM     29  C   UNL     1      -4.940  -2.909   0.509  0.00  0.00    +0.006 C 
BRANCH  29  31
ATOM     30  C   UNL     1      -6.794  -1.555   1.495  0.00  0.00    +0.004 C 
ATOM     31  C   UNL     1      -5.276  -1.674   1.347  0.00  0.00    +0.002 C 
ENDBRANCH  29  31
BRANCH  29  32
ATOM     32  C   UNL     1      -5.450  -2.709  -0.919  0.00  0.00    +0.002 C 
ATOM     33  C   UNL     1      -5.237  -3.995  -1.721  0.00  0.00    +0.004 C 
ENDBRANCH  29  32
ENDBRANCH  28  29
ENDBRANCH  24  28
ENDBRANCH   1  25
TORSDOF 7
