REMARK  Name = ZINC36807282
REMARK  8 active torsions:
REMARK  status: ('A' for Active; 'I' for Inactive)
REMARK    1  A    between atoms: C_1  and  C_2
REMARK    2  A    between atoms: C_3  and  C_12
REMARK    3  A    between atoms: C_12  and  S_13
REMARK    4  A    between atoms: S_13  and  C_14
REMARK    5  A    between atoms: C_17  and  C_20
REMARK    6  A    between atoms: N_18  and  N_19
REMARK    7  A    between atoms: C_23  and  O_26
REMARK    8  A    between atoms: O_26  and  C_27
REMARK                            x       y       z     vdW  Elec       q    Type
REMARK                         _______ _______ _______ _____ _____    ______ ____
ROOT
ATOM      1  C   UNL     1       1.502   1.326  -4.536  0.00  0.00    +0.209 A 
ATOM      2  N   UNL     1       0.367   1.662  -5.106  0.00  0.00    -0.121 NA
ATOM      3  N   UNL     1       0.594   2.315  -6.189  0.00  0.00    -0.127 NA
ATOM      4  C   UNL     1       1.887   2.435  -6.378  0.00  0.00    +0.182 A 
ATOM      5  N   UNL     1       2.509   1.810  -5.322  0.00  0.00    -0.224 N 
ENDROOT
BRANCH   4   6
ATOM      6  C   UNL     1       2.550   3.118  -7.510  0.00  0.00    +0.021 A 
ATOM      7  C   UNL     1       3.907   2.903  -7.759  0.00  0.00    +0.015 A 
ATOM      8  C   UNL     1       4.521   3.541  -8.815  0.00  0.00    +0.046 A 
ATOM      9  C   UNL     1       3.793   4.397  -9.630  0.00  0.00    +0.127 A 
ATOM     10  C   UNL     1       2.443   4.613  -9.386  0.00  0.00    +0.046 A 
ATOM     11  C   UNL     1       1.820   3.975  -8.335  0.00  0.00    +0.015 A 
BRANCH   9  12
ATOM     12  O   UNL     1       4.402   5.024 -10.670  0.00  0.00    -0.434 OA
BRANCH  12  13
ATOM     13  C   UNL     1       3.594   5.891 -11.468  0.00  0.00    +0.541 C 
ATOM     14  F   UNL     1       2.544   5.160 -12.034  0.00  0.00    -0.166 F 
ATOM     15  F   UNL     1       3.073   6.912 -10.666  0.00  0.00    -0.166 F 
ENDBRANCH  12  13
ENDBRANCH   9  12
ENDBRANCH   4   6
BRANCH   5  16
ATOM     16  N   UNL     1       3.853   1.695  -5.107  0.00  0.00    -0.295 N 
ATOM     17  H   UNL     1       4.218   0.858  -5.536  0.00  0.00    +0.163 HD
ATOM     18  H   UNL     1       4.344   2.513  -5.436  0.00  0.00    +0.163 HD
ENDBRANCH   5  16
BRANCH   1  19
ATOM     19  S   UNL     1       1.691   0.424  -3.034  0.00  0.00    -0.078 S 
BRANCH  19  20
ATOM     20  C   UNL     1      -0.012   0.088  -2.507  0.00  0.00    +0.134 C 
BRANCH  20  23
ATOM     21  C   UNL     1      -0.018   1.503   0.010  0.00  0.00    +0.067 C 
ATOM     22  C   UNL     1       0.002  -0.004   0.002  0.00  0.00    +0.061 A 
ATOM     23  C   UNL     1       0.006  -0.688  -1.216  0.00  0.00    +0.073 A 
ATOM     24  N   UNL     1       0.024  -2.001  -1.247  0.00  0.00    -0.247 NA
ATOM     25  C   UNL     1       0.039  -2.692  -0.102  0.00  0.00    +0.090 A 
ATOM     26  C   UNL     1       0.059  -4.097  -0.102  0.00  0.00    +0.030 A 
ATOM     27  C   UNL     1       0.075  -4.771   1.080  0.00  0.00    +0.002 A 
ATOM     28  C   UNL     1       0.071  -4.088   2.296  0.00  0.00    +0.002 A 
ATOM     29  C   UNL     1       0.051  -2.728   2.334  0.00  0.00    +0.030 A 
ATOM     30  C   UNL     1       0.035  -1.997   1.134  0.00  0.00    +0.089 A 
ATOM     31  N   UNL     1       0.022  -0.660   1.140  0.00  0.00    -0.249 NA
ENDBRANCH  20  23
ENDBRANCH  19  20
ENDBRANCH   1  19
TORSDOF 7
