REMARK  Name = ZINC22057937
REMARK  9 active torsions:
REMARK  status: ('A' for Active; 'I' for Inactive)
REMARK    1  A    between atoms: C_1  and  C_2
REMARK    2  A    between atoms: C_2  and  O_3
REMARK    3  A    between atoms: O_3  and  C_4
REMARK    4  A    between atoms: C_4  and  C_6
REMARK    5  A    between atoms: C_7  and  C_8
REMARK    6  A    between atoms: C_11  and  N_14
REMARK    7  A    between atoms: C_15  and  C_17
REMARK    8  A    between atoms: C_17  and  N_18
REMARK    9  A    between atoms: C_21  and  C_24
REMARK                            x       y       z     vdW  Elec       q    Type
REMARK                         _______ _______ _______ _____ _____    ______ ____
ROOT
ATOM      1  N   UNL     1      -8.137  -5.965   0.049  0.00  0.00    -0.287 N 
ATOM      2  C   UNL     1      -8.298  -7.299  -0.052  0.00  0.00    +0.201 C 
ATOM      3  O   UNL     1      -7.329  -8.028  -0.061  0.00  0.00    -0.278 OA
ATOM      4  H   UNL     1      -8.912  -5.388   0.133  0.00  0.00    +0.155 HD
ENDROOT
BRANCH   1   8
ATOM      5  C   UNL     1      -4.310  -4.318   0.002  0.00  0.00    -0.025 A 
ATOM      6  C   UNL     1      -4.590  -5.465  -0.751  0.00  0.00    +0.010 A 
ATOM      7  C   UNL     1      -5.855  -6.005  -0.732  0.00  0.00    +0.024 A 
ATOM      8  C   UNL     1      -6.856  -5.414   0.033  0.00  0.00    +0.033 A 
ATOM      9  C   UNL     1      -6.582  -4.274   0.783  0.00  0.00    +0.024 A 
ATOM     10  C   UNL     1      -5.317  -3.730   0.775  0.00  0.00    +0.010 A 
BRANCH   5  12
ATOM     11  C   UNL     1      -1.989  -4.307  -0.762  0.00  0.00    +0.092 C 
ATOM     12  C   UNL     1      -2.960  -3.737  -0.015  0.00  0.00    +0.015 C 
BRANCH  11  13
ATOM     13  C   UNL     1      -0.687  -3.746  -0.779  0.00  0.00    +0.332 C 
ATOM     14  O   UNL     1      -0.444  -2.753  -0.120  0.00  0.00    -0.246 OA
BRANCH  13  15
ATOM     15  O   UNL     1       0.283  -4.315  -1.525  0.00  0.00    -0.462 OA
BRANCH  15  17
ATOM     16  C   UNL     1       2.532  -4.477  -2.394  0.00  0.00    +0.048 C 
ATOM     17  C   UNL     1       1.572  -3.697  -1.494  0.00  0.00    +0.229 C 
ENDBRANCH  15  17
ENDBRANCH  13  15
ENDBRANCH  11  13
ENDBRANCH   5  12
ENDBRANCH   1   8
BRANCH   2  18
ATOM     18  C   UNL     1      -9.682  -7.885  -0.155  0.00  0.00    +0.019 C 
BRANCH  18  19
ATOM     19  N   UNL     1      -9.588  -9.348  -0.255  0.00  0.00    +0.385 N 
ATOM     20  C   UNL     1      -9.021  -9.886   0.988  0.00  0.00    -0.077 C 
ATOM     21  C   UNL     1      -8.846 -11.400   0.860  0.00  0.00    -0.006 C 
ATOM     22  C   UNL     1     -10.210 -12.046   0.598  0.00  0.00    +0.071 C 
ATOM     23  C   UNL     1     -10.825 -11.425  -0.659  0.00  0.00    -0.006 C 
ATOM     24  C   UNL     1     -10.927  -9.909  -0.475  0.00  0.00    -0.077 C 
ATOM     25  H   UNL     1      -8.990  -9.594  -1.029  0.00  0.00    -0.081 HD
BRANCH  22  26
ATOM     26  C   UNL     1     -10.034 -13.529   0.392  0.00  0.00    +0.213 C 
ATOM     27  O   UNL     1      -8.928 -14.022   0.450  0.00  0.00    -0.276 OA
ATOM     28  N   UNL     1     -11.107 -14.306   0.145  0.00  0.00    -0.329 N 
ATOM     29  H   UNL     1     -11.992 -13.912   0.099  0.00  0.00    +0.145 HD
ATOM     30  H   UNL     1     -10.994 -15.261   0.013  0.00  0.00    +0.145 HD
ENDBRANCH  22  26
ENDBRANCH  18  19
ENDBRANCH   2  18
TORSDOF 8
