REMARK  Name = ZINC63385402
REMARK  5 active torsions:
REMARK  status: ('A' for Active; 'I' for Inactive)
REMARK    1  A    between atoms: C_1  and  C_2
REMARK    2  A    between atoms: C_2  and  C_3
REMARK    3  A    between atoms: C_3  and  N_4
REMARK    4  A    between atoms: N_29  and  C_30
REMARK    5  A    between atoms: C_30  and  C_31
REMARK                            x       y       z     vdW  Elec       q    Type
REMARK                         _______ _______ _______ _____ _____    ______ ____
ROOT
ATOM      1  N   UNL     1       0.701  -1.959  -1.366  0.00  0.00    -0.269 N 
ATOM      2  C   UNL     1       1.724  -2.698  -0.797  0.00  0.00    +0.042 A 
ATOM      3  C   UNL     1       2.887  -2.259  -0.162  0.00  0.00    +0.024 A 
ATOM      4  C   UNL     1       3.751  -3.230   0.320  0.00  0.00    +0.002 A 
ATOM      5  C   UNL     1       3.485  -4.577   0.185  0.00  0.00    +0.000 A 
ATOM      6  C   UNL     1       2.331  -5.028  -0.446  0.00  0.00    +0.008 A 
ATOM      7  C   UNL     1       1.466  -4.068  -0.928  0.00  0.00    +0.009 A 
ATOM      8  C   UNL     1       0.161  -4.179  -1.648  0.00  0.00    +0.166 C 
ATOM      9  C   UNL     1      -0.264  -2.748  -1.885  0.00  0.00    +0.251 C 
ATOM     10  O   UNL     1      -1.278  -2.378  -2.437  0.00  0.00    -0.272 OA
ATOM     11  C   UNL     1       0.321  -4.918  -2.975  0.00  0.00    +0.144 C 
ATOM     12  C   UNL     1       0.476  -6.395  -2.632  0.00  0.00    -0.034 C 
ATOM     13  C   UNL     1       1.613  -6.792  -3.191  0.00  0.00    -0.001 A 
ATOM     14  C   UNL     1       2.258  -8.113  -3.267  0.00  0.00    +0.010 A 
ATOM     15  C   UNL     1       3.450  -8.161  -3.919  0.00  0.00    +0.001 A 
ATOM     16  C   UNL     1       4.056  -7.042  -4.496  0.00  0.00    +0.002 A 
ATOM     17  C   UNL     1       3.532  -5.790  -4.479  0.00  0.00    +0.026 A 
ATOM     18  C   UNL     1       2.278  -5.613  -3.825  0.00  0.00    +0.043 A 
ATOM     19  N   UNL     1       1.542  -4.527  -3.681  0.00  0.00    -0.375 N 
ATOM     20  C   UNL     1      -0.504  -7.125  -1.748  0.00  0.00    +0.052 C 
ATOM     21  C   UNL     1      -0.663  -6.284  -0.468  0.00  0.00    +0.115 C 
ATOM     22  N   UNL     1      -0.838  -4.872  -0.831  0.00  0.00    -0.265 N 
ATOM     23  C   UNL     1      -1.931  -4.206  -0.407  0.00  0.00    +0.303 C 
ATOM     24  O   UNL     1      -2.024  -3.009  -0.597  0.00  0.00    -0.253 OA
ATOM     25  N   UNL     1      -2.920  -4.868   0.225  0.00  0.00    -0.299 N 
ATOM     26  H   UNL     1      -2.815  -5.808   0.441  0.00  0.00    +0.150 HD
ATOM     27  H   UNL     1       1.763  -3.632  -3.981  0.00  0.00    +0.160 HD
ENDROOT
BRANCH  25  28
ATOM     28  C   UNL     1      -4.155  -4.167   0.588  0.00  0.00    +0.102 C 
ATOM     29  C   UNL     1      -5.105  -5.139   1.290  0.00  0.00    +0.024 C 
ENDBRANCH  25  28
BRANCH   1  30
ATOM     30  C   UNL     1       0.666  -0.495  -1.395  0.00  0.00    +0.113 C 
BRANCH  30  32
ATOM     31  C   UNL     1      -0.070   1.553  -0.169  0.00  0.00    +0.005 C 
ATOM     32  C   UNL     1      -0.034   0.024  -0.138  0.00  0.00    +0.016 C 
ENDBRANCH  30  32
ENDBRANCH   1  30
TORSDOF 3
