REMARK  Name = ZINC64868590
REMARK  4 active torsions:
REMARK  status: ('A' for Active; 'I' for Inactive)
REMARK    1  A    between atoms: C_1  and  C_2
REMARK    2  A    between atoms: C_7  and  C_8
REMARK    3  A    between atoms: C_8  and  N_9
REMARK    4  A    between atoms: C_17  and  C_21
REMARK                            x       y       z     vdW  Elec       q    Type
REMARK                         _______ _______ _______ _____ _____    ______ ____
ROOT
ATOM      1  N   UNL     1      -1.388   0.091   3.019  0.00  0.00    -0.262 N 
ATOM      2  C   UNL     1      -1.962  -0.904   3.826  0.00  0.00    +0.058 A 
ATOM      3  C   UNL     1      -1.075  -1.939   4.072  0.00  0.00    +0.025 A 
ATOM      4  C   UNL     1      -1.466  -3.013   4.852  0.00  0.00    +0.002 A 
ATOM      5  C   UNL     1      -2.740  -3.058   5.386  0.00  0.00    +0.002 A 
ATOM      6  C   UNL     1      -3.632  -2.027   5.145  0.00  0.00    +0.025 A 
ATOM      7  C   UNL     1      -3.247  -0.949   4.365  0.00  0.00    +0.053 A 
ATOM      8  N   UNL     1      -4.281  -0.009   4.233  0.00  0.00    -0.312 N 
ATOM      9  C   UNL     1      -4.264   1.184   3.534  0.00  0.00    +0.050 C 
ATOM     10  C   UNL     1      -3.235   1.737   2.802  0.00  0.00    +0.092 C 
ATOM     11  C   UNL     1      -1.941   1.239   2.580  0.00  0.00    +0.246 C 
ATOM     12  O   UNL     1      -1.220   1.938   1.890  0.00  0.00    -0.270 OA
ATOM     13  H   UNL     1      -5.110  -0.223   4.688  0.00  0.00    +0.152 HD
ENDROOT
BRANCH   9  14
ATOM     14  C   UNL     1      -5.505   1.963   3.577  0.00  0.00    +0.033 A 
ATOM     15  C   UNL     1      -5.793   3.181   2.978  0.00  0.00    +0.017 A 
ATOM     16  C   UNL     1      -7.059   3.670   3.201  0.00  0.00    +0.008 A 
ATOM     17  C   UNL     1      -7.916   2.954   3.968  0.00  0.00    +0.046 A 
ATOM     18  S   UNL     1      -7.038   1.590   4.405  0.00  0.00    -0.095 S 
ENDBRANCH   9  14
BRANCH   1  19
ATOM     19  C   UNL     1      -0.004  -0.147   2.604  0.00  0.00    +0.149 C 
BRANCH  19  26
ATOM     20  C   UNL     1       2.509  -1.118   1.560  0.00  0.00    +0.044 C 
ATOM     21  C   UNL     1       1.214  -1.523   0.904  0.00  0.00    -0.046 A 
ATOM     22  C   UNL     1       1.228  -2.363  -0.193  0.00  0.00    +0.003 A 
ATOM     23  C   UNL     1       0.040  -2.735  -0.794  0.00  0.00    +0.000 A 
ATOM     24  C   UNL     1      -1.162  -2.266  -0.297  0.00  0.00    +0.000 A 
ATOM     25  C   UNL     1      -1.176  -1.426   0.800  0.00  0.00    +0.005 A 
ATOM     26  C   UNL     1       0.012  -1.058   1.404  0.00  0.00    -0.027 A 
ENDBRANCH  19  26
ENDBRANCH   1  19
TORSDOF 3
