REMARK  Name = ZINC32935873
REMARK  9 active torsions:
REMARK  status: ('A' for Active; 'I' for Inactive)
REMARK    1  A    between atoms: C_1  and  C_2
REMARK    2  A    between atoms: C_2  and  C_3
REMARK    3  A    between atoms: C_2  and  C_4
REMARK    4  A    between atoms: C_2  and  C_5
REMARK    5  A    between atoms: C_8  and  S_11
REMARK    6  A    between atoms: S_11  and  N_14
REMARK    7  A    between atoms: N_14  and  C_15
REMARK    8  A    between atoms: N_14  and  C_22
REMARK    9  A    between atoms: C_15  and  C_16
REMARK                            x       y       z     vdW  Elec       q    Type
REMARK                         _______ _______ _______ _____ _____    ______ ____
ROOT
ATOM      1  S   UNL     1       2.301   3.977  -0.073  0.00  0.00    +0.061 S 
ATOM      2  O   UNL     1       1.888   5.199   0.524  0.00  0.00    -0.153 OA
ATOM      3  O   UNL     1       3.176   3.068   0.580  0.00  0.00    -0.153 OA
ENDROOT
BRANCH   1   7
ATOM      4  C   UNL     1      -1.470   1.672  -1.052  0.00  0.00    -0.042 A 
ATOM      5  C   UNL     1      -0.276   1.000  -0.871  0.00  0.00    +0.006 A 
ATOM      6  C   UNL     1       0.876   1.704  -0.573  0.00  0.00    +0.029 A 
ATOM      7  C   UNL     1       0.833   3.080  -0.452  0.00  0.00    +0.106 A 
ATOM      8  C   UNL     1      -0.362   3.752  -0.628  0.00  0.00    +0.029 A 
ATOM      9  C   UNL     1      -1.514   3.048  -0.925  0.00  0.00    +0.006 A 
BRANCH   4  11
ATOM     10  C   UNL     1      -3.026  -0.087  -0.258  0.00  0.00    +0.015 C 
ATOM     11  C   UNL     1      -2.724   0.905  -1.383  0.00  0.00    -0.013 C 
ATOM     12  C   UNL     1      -3.894   1.880  -1.530  0.00  0.00    +0.015 C 
ATOM     13  C   UNL     1      -2.526   0.144  -2.695  0.00  0.00    +0.015 C 
ENDBRANCH   4  11
ENDBRANCH   1   7
BRANCH   1  14
ATOM     14  N   UNL     1       3.018   4.373  -1.512  0.00  0.00    -0.167 NA
BRANCH  14  15
ATOM     15  C   UNL     1       3.992   3.462  -2.120  0.00  0.00    +0.091 C 
ATOM     16  C   UNL     1       5.329   4.180  -2.225  0.00  0.00    +0.032 C 
ATOM     17  C   UNL     1       5.870   4.287  -3.669  0.00  0.00    +0.071 C 
ATOM     18  S   UNL     1       4.318   4.095  -4.650  0.00  0.00    -0.159 S 
ATOM     19  C   UNL     1       3.435   2.981  -3.479  0.00  0.00    +0.089 C 
ENDBRANCH  14  15
BRANCH  14  20
ATOM     20  C   UNL     1       2.679   5.633  -2.178  0.00  0.00    +0.165 C 
BRANCH  20  21
ATOM     21  C   UNL     1       1.555   5.399  -3.154  0.00  0.00    +0.057 A 
ATOM     22  C   UNL     1       0.252   5.646  -2.766  0.00  0.00    +0.025 A 
ATOM     23  C   UNL     1      -0.775   5.429  -3.672  0.00  0.00    +0.003 A 
ATOM     24  C   UNL     1      -0.451   4.969  -4.939  0.00  0.00    +0.020 A 
ATOM     25  C   UNL     1       0.876   4.744  -5.255  0.00  0.00    +0.111 A 
ATOM     26  N   UNL     1       1.827   4.967  -4.369  0.00  0.00    -0.259 NA
ENDBRANCH  20  21
ENDBRANCH  14  20
ENDBRANCH   1  14
TORSDOF 6
