REMARK  Name = ZINC02653485
REMARK  5 active torsions:
REMARK  status: ('A' for Active; 'I' for Inactive)
REMARK    1  A    between atoms: C_1  and  C_2
REMARK    2  A    between atoms: C_3  and  C_11
REMARK    3  A    between atoms: C_7  and  N_8
REMARK    4  A    between atoms: C_11  and  C_13
REMARK    5  A    between atoms: C_13  and  C_23
REMARK                            x       y       z     vdW  Elec       q    Type
REMARK                         _______ _______ _______ _____ _____    ______ ____
ROOT
ATOM      1  C   UNL     1      -0.267   2.204  -0.028  0.00  0.00    +0.135 C 
ATOM      2  C   UNL     1       0.772   3.140  -0.152  0.00  0.00    +0.114 C 
ATOM      3  N   UNL     1       0.613   4.460  -0.432  0.00  0.00    -0.300 N 
ATOM      4  C   UNL     1       1.870   5.053  -0.469  0.00  0.00    +0.054 A 
ATOM      5  C   UNL     1       2.298   6.352  -0.704  0.00  0.00    +0.025 A 
ATOM      6  C   UNL     1       3.647   6.646  -0.681  0.00  0.00    +0.002 A 
ATOM      7  C   UNL     1       4.575   5.651  -0.424  0.00  0.00    +0.002 A 
ATOM      8  C   UNL     1       4.160   4.355  -0.191  0.00  0.00    +0.025 A 
ATOM      9  C   UNL     1       2.806   4.049  -0.211  0.00  0.00    +0.054 A 
ATOM     10  N   UNL     1       2.097   2.869  -0.017  0.00  0.00    -0.300 N 
ATOM     11  H   UNL     1      -0.233   4.912  -0.579  0.00  0.00    +0.153 HD
ATOM     12  H   UNL     1       2.482   2.001   0.181  0.00  0.00    +0.153 HD
ENDROOT
BRANCH   1  13
ATOM     13  C   UNL     1      -1.610   2.611  -0.198  0.00  0.00    +0.207 C 
ATOM     14  O   UNL     1      -1.875   3.792  -0.345  0.00  0.00    -0.286 OA
BRANCH  13  17
ATOM     15  C   UNL     1      -2.036   0.960  -2.536  0.00  0.00    +0.047 C 
ATOM     16  C   UNL     1      -2.909   0.803  -1.318  0.00  0.00    -0.009 A 
ATOM     17  C   UNL     1      -2.695   1.605  -0.195  0.00  0.00    +0.028 A 
ATOM     18  C   UNL     1      -3.511   1.457   0.926  0.00  0.00    +0.012 A 
ATOM     19  C   UNL     1      -4.521   0.516   0.922  0.00  0.00    +0.003 A 
ATOM     20  C   UNL     1      -4.725  -0.279  -0.191  0.00  0.00    +0.033 A 
ATOM     21  C   UNL     1      -3.919  -0.137  -1.307  0.00  0.00    +0.130 A 
BRANCH  21  22
ATOM     22  N   UNL     1      -4.144  -0.992  -2.494  0.00  0.00    +0.057 N 
ATOM     23  O   UNL     1      -5.117  -1.722  -2.543  0.00  0.00    -0.126 OA
ATOM     24  O   UNL     1      -3.356  -0.965  -3.422  0.00  0.00    -0.126 OA
ENDBRANCH  21  22
ENDBRANCH  13  17
ENDBRANCH   1  13
BRANCH   1  25
ATOM     25  C   UNL     1       0.035   0.834   0.265  0.00  0.00    +0.106 C 
ATOM     26  N   UNL     1       0.274  -0.252   0.496  0.00  0.00    -0.191 NA
ENDBRANCH   1  25
TORSDOF 4
