REMARK  Name = ZINC46022335
REMARK  5 active torsions:
REMARK  status: ('A' for Active; 'I' for Inactive)
REMARK    1  A    between atoms: C_3  and  C_6
REMARK    2  A    between atoms: C_16  and  S_17
REMARK    3  A    between atoms: S_17  and  C_18
REMARK    4  A    between atoms: C_18  and  C_19
REMARK    5  A    between atoms: N_21  and  C_22
REMARK                            x       y       z     vdW  Elec       q    Type
REMARK                         _______ _______ _______ _____ _____    ______ ____
ROOT
ATOM      1  C   UNL     1       3.730   1.670  -0.012  0.00  0.00    +0.106 C 
ATOM      2  N   UNL     1       4.753   0.865  -0.022  0.00  0.00    -0.251 NA
ATOM      3  C   UNL     1       5.974   1.693  -0.024  0.00  0.00    +0.153 C 
ATOM      4  C   UNL     1       6.689   1.460  -1.377  0.00  0.00    +0.054 C 
ATOM      5  C   UNL     1       7.591   2.626  -1.663  0.00  0.00    +0.004 C 
ATOM      6  C   UNL     1       9.040   2.392  -1.188  0.00  0.00    +0.000 C 
ATOM      7  C   UNL     1       9.114   1.720   0.195  0.00  0.00    +0.000 C 
ATOM      8  C   UNL     1       8.099   2.283   1.153  0.00  0.00    +0.004 C 
ATOM      9  C   UNL     1       6.844   1.393   1.108  0.00  0.00    +0.054 C 
ATOM     10  N   UNL     1       5.504   3.091  -0.009  0.00  0.00    -0.246 NA
ATOM     11  C   UNL     1       4.207   3.073  -0.010  0.00  0.00    +0.121 C 
ENDROOT
BRANCH   1  14
ATOM     12  C   UNL     1      -0.016   1.350  -0.003  0.00  0.00    +0.008 A 
ATOM     13  C   UNL     1       1.178   2.035  -0.004  0.00  0.00    +0.018 A 
ATOM     14  C   UNL     1       2.321   1.252  -0.009  0.00  0.00    +0.040 A 
ATOM     15  S   UNL     1       1.637  -0.394  -0.012  0.00  0.00    -0.095 S 
ATOM     16  C   UNL     1       0.003  -0.004  -0.007  0.00  0.00    +0.046 A 
ENDBRANCH   1  14
BRANCH  11  17
ATOM     17  S   UNL     1       3.171   4.498  -0.004  0.00  0.00    -0.095 S 
BRANCH  17  18
ATOM     18  C   UNL     1       4.336   5.888  -0.004  0.00  0.00    +0.172 C 
BRANCH  18  19
ATOM     19  C   UNL     1       3.570   7.186   0.001  0.00  0.00    +0.227 C 
ATOM     20  O   UNL     1       2.357   7.174   0.005  0.00  0.00    -0.275 OA
ATOM     21  N   UNL     1       4.233   8.359   0.002  0.00  0.00    -0.285 N 
ATOM     22  H   UNL     1       5.200   8.370   0.067  0.00  0.00    +0.155 HD
BRANCH  21  23
ATOM     23  C   UNL     1       3.524   9.563  -0.091  0.00  0.00    +0.034 A 
ATOM     24  C   UNL     1       4.062  10.634  -0.792  0.00  0.00    +0.026 A 
ATOM     25  C   UNL     1       3.361  11.821  -0.883  0.00  0.00    +0.040 A 
ATOM     26  C   UNL     1       2.124  11.944  -0.274  0.00  0.00    +0.124 A 
ATOM     27  C   UNL     1       1.585  10.877   0.426  0.00  0.00    +0.040 A 
ATOM     28  C   UNL     1       2.280   9.687   0.514  0.00  0.00    +0.026 A 
ATOM     29  F   UNL     1       1.440  13.106  -0.363  0.00  0.00    -0.205 F 
ENDBRANCH  21  23
ENDBRANCH  18  19
ENDBRANCH  17  18
ENDBRANCH  11  17
TORSDOF 5
