REMARK  Name = ZINC04176558
REMARK  4 active torsions:
REMARK  status: ('A' for Active; 'I' for Inactive)
REMARK    1  A    between atoms: C_4  and  C_7
REMARK    2  A    between atoms: N_11  and  N_12
REMARK    3  A    between atoms: C_13  and  C_14
REMARK    4  A    between atoms: C_19  and  O_20
REMARK                            x       y       z     vdW  Elec       q    Type
REMARK                         _______ _______ _______ _____ _____    ______ ____
ROOT
ATOM      1  C   UNL     1       3.696  -0.685  -0.038  0.00  0.00    +0.055 A 
ATOM      2  C   UNL     1       4.856   0.005  -0.041  0.00  0.00    +0.075 A 
ATOM      3  S   UNL     1       6.069  -1.305  -0.063  0.00  0.00    -0.056 S 
ATOM      4  C   UNL     1       4.940  -2.688  -0.068  0.00  0.00    +0.192 A 
ATOM      5  N   UNL     1       5.205  -3.985  -0.082  0.00  0.00    -0.124 NA
ATOM      6  N   UNL     1       3.722  -2.051  -0.046  0.00  0.00    -0.332 N 
ATOM      7  H   UNL     1       2.897  -2.562  -0.040  0.00  0.00    +0.168 HD
ENDROOT
BRANCH   1  11
ATOM      8  C   UNL     1      -0.017   1.379   0.010  0.00  0.00    +0.000 A 
ATOM      9  C   UNL     1       1.168   2.093   0.002  0.00  0.00    +0.001 A 
ATOM     10  C   UNL     1       2.377   1.429  -0.013  0.00  0.00    +0.010 A 
ATOM     11  C   UNL     1       2.403   0.034  -0.021  0.00  0.00    -0.001 A 
ATOM     12  C   UNL     1       1.204  -0.680  -0.013  0.00  0.00    +0.010 A 
ATOM     13  C   UNL     1       0.002  -0.004   0.002  0.00  0.00    +0.001 A 
ENDBRANCH   1  11
BRANCH   5  14
ATOM     14  N   UNL     1       4.240  -4.841  -0.082  0.00  0.00    -0.154 NA
ATOM     15  C   UNL     1       4.503  -6.122  -0.095  0.00  0.00    +0.146 C 
BRANCH  15  16
ATOM     16  C   UNL     1       3.403  -7.097  -0.096  0.00  0.00    +0.036 A 
ATOM     17  C   UNL     1       3.679  -8.468  -0.104  0.00  0.00    +0.013 A 
ATOM     18  C   UNL     1       2.642  -9.377  -0.104  0.00  0.00    +0.001 A 
ATOM     19  C   UNL     1       1.329  -8.939  -0.095  0.00  0.00    +0.004 A 
ATOM     20  C   UNL     1       1.042  -7.586  -0.086  0.00  0.00    +0.046 A 
ATOM     21  C   UNL     1       2.070  -6.659  -0.081  0.00  0.00    +0.125 A 
BRANCH  21  22
ATOM     22  O   UNL     1       1.790  -5.330  -0.067  0.00  0.00    -0.506 OA
ATOM     23  H   UNL     1       1.701  -4.937  -0.946  0.00  0.00    +0.292 HD
ENDBRANCH  21  22
ENDBRANCH  15  16
ENDBRANCH   5  14
TORSDOF 4
