REMARK  Name = ZINC32537578
REMARK  7 active torsions:
REMARK  status: ('A' for Active; 'I' for Inactive)
REMARK    1  A    between atoms: C_1  and  C_2
REMARK    2  A    between atoms: C_2  and  O_3
REMARK    3  A    between atoms: O_3  and  C_4
REMARK    4  A    between atoms: C_7  and  N_26
REMARK    5  A    between atoms: C_9  and  S_10
REMARK    6  A    between atoms: S_10  and  N_13
REMARK    7  A    between atoms: N_16  and  C_19
REMARK                            x       y       z     vdW  Elec       q    Type
REMARK                         _______ _______ _______ _____ _____    ______ ____
ROOT
ATOM      1  C   UNL     1       1.155   3.170   0.008  0.00  0.00    +0.147 A 
ATOM      2  C   UNL     1      -0.055   3.848   0.024  0.00  0.00    +0.049 A 
ATOM      3  C   UNL     1      -1.242   3.143   0.031  0.00  0.00    +0.028 A 
ATOM      4  C   UNL     1      -1.224   1.754   0.017  0.00  0.00    +0.053 A 
ATOM      5  C   UNL     1      -0.013   1.076   0.008  0.00  0.00    +0.057 A 
ATOM      6  C   UNL     1       1.174   1.783   0.000  0.00  0.00    +0.149 A 
ENDROOT
BRANCH   4   7
ATOM      7  N   UNL     1      -2.427   1.038   0.019  0.00  0.00    -0.207 N 
ATOM      8  C   UNL     1      -3.660   1.629   0.560  0.00  0.00    +0.131 C 
ATOM      9  C   UNL     1      -4.742   1.626  -0.518  0.00  0.00    +0.022 C 
ATOM     10  C   UNL     1      -5.120   0.197  -0.900  0.00  0.00    +0.026 C 
ATOM     11  C   UNL     1      -3.968  -0.454  -1.676  0.00  0.00    +0.189 C 
ATOM     12  S   UNL     1      -2.508  -0.505  -0.599  0.00  0.00    +0.045 S 
ATOM     13  O   UNL     1      -1.327  -0.655  -1.375  0.00  0.00    -0.155 OA
ATOM     14  O   UNL     1      -2.754  -1.340   0.524  0.00  0.00    -0.155 OA
ENDBRANCH   4   7
BRANCH   6  15
ATOM     15  S   UNL     1       2.712   0.923  -0.018  0.00  0.00    +0.064 S 
ATOM     16  O   UNL     1       3.513   1.501   1.003  0.00  0.00    -0.153 OA
ATOM     17  O   UNL     1       2.401  -0.464  -0.050  0.00  0.00    -0.153 OA
BRANCH  15  18
ATOM     18  N   UNL     1       3.452   1.274  -1.457  0.00  0.00    -0.173 NA
ATOM     19  C   UNL     1       3.231   0.436  -2.645  0.00  0.00    +0.128 C 
ATOM     20  C   UNL     1       2.832   1.350  -3.814  0.00  0.00    +0.122 C 
ATOM     21  N   UNL     1       3.846   2.400  -3.976  0.00  0.00    -0.325 N 
ATOM     22  C   UNL     1       3.914   3.264  -2.789  0.00  0.00    +0.122 C 
ATOM     23  C   UNL     1       4.353   2.431  -1.580  0.00  0.00    +0.128 C 
BRANCH  21  24
ATOM     24  C   UNL     1       3.609   3.153  -5.130  0.00  0.00    +0.065 A 
ATOM     25  C   UNL     1       4.503   4.144  -5.511  0.00  0.00    +0.026 A 
ATOM     26  C   UNL     1       4.268   4.883  -6.654  0.00  0.00    +0.002 A 
ATOM     27  C   UNL     1       3.139   4.644  -7.415  0.00  0.00    +0.003 A 
ATOM     28  C   UNL     1       2.242   3.661  -7.037  0.00  0.00    +0.040 A 
ATOM     29  C   UNL     1       2.473   2.914  -5.896  0.00  0.00    +0.144 A 
ATOM     30  F   UNL     1       1.597   1.955  -5.527  0.00  0.00    -0.204 F 
ENDBRANCH  21  24
ENDBRANCH  15  18
ENDBRANCH   6  15
BRANCH   1  31
ATOM     31  O   UNL     1       2.324   3.865   0.001  0.00  0.00    -0.490 OA
BRANCH  31  33
ATOM     32  C   UNL     1       3.637   5.894  -0.001  0.00  0.00    +0.048 C 
ATOM     33  C   UNL     1       2.231   5.291   0.009  0.00  0.00    +0.226 C 
ENDBRANCH  31  33
ENDBRANCH   1  31
TORSDOF 6
