REMARK  Name = ZINC07127772
REMARK  2 active torsions:
REMARK  status: ('A' for Active; 'I' for Inactive)
REMARK    1  A    between atoms: C_4  and  C_7
REMARK    2  A    between atoms: C_10  and  C_12
REMARK                            x       y       z     vdW  Elec       q    Type
REMARK                         _______ _______ _______ _____ _____    ______ ____
ROOT
ATOM      1  C   UNL     1       7.733  -1.800  -0.083  0.00  0.00    +0.216 C 
ATOM      2  N   UNL     1       8.393  -0.802  -0.944  0.00  0.00    -0.292 N 
ATOM      3  C   UNL     1       8.672   0.445  -0.453  0.00  0.00    +0.183 C 
ATOM      4  N   UNL     1       8.688   1.514  -1.307  0.00  0.00    -0.331 N 
ATOM      5  N   UNL     1       8.926   0.637   0.830  0.00  0.00    -0.183 NA
ATOM      6  C   UNL     1       8.845  -0.421   1.670  0.00  0.00    +0.236 A 
ATOM      7  N   UNL     1       8.283  -1.624   1.267  0.00  0.00    -0.285 N 
ATOM      8  C   UNL     1       8.360  -2.487   2.318  0.00  0.00    +0.072 A 
ATOM      9  C   UNL     1       7.979  -3.813   2.485  0.00  0.00    +0.028 A 
ATOM     10  C   UNL     1       8.216  -4.389   3.723  0.00  0.00    +0.002 A 
ATOM     11  C   UNL     1       8.804  -3.685   4.759  0.00  0.00    +0.002 A 
ATOM     12  C   UNL     1       9.193  -2.365   4.620  0.00  0.00    +0.030 A 
ATOM     13  C   UNL     1       8.965  -1.762   3.378  0.00  0.00    +0.091 A 
ATOM     14  N   UNL     1       9.224  -0.515   2.922  0.00  0.00    -0.210 NA
ATOM     15  H   UNL     1       8.628  -1.029  -1.858  0.00  0.00    +0.151 HD
ATOM     16  H   UNL     1       8.502   1.384  -2.250  0.00  0.00    +0.145 HD
ATOM     17  H   UNL     1       8.884   2.402  -0.969  0.00  0.00    +0.145 HD
ENDROOT
BRANCH   1  21
ATOM     18  C   UNL     1       3.695  -0.685  -0.038  0.00  0.00    +0.020 A 
ATOM     19  C   UNL     1       3.933  -2.033  -0.054  0.00  0.00    +0.016 A 
ATOM     20  C   UNL     1       5.237  -2.476  -0.069  0.00  0.00    +0.015 A 
ATOM     21  C   UNL     1       6.245  -1.566  -0.069  0.00  0.00    +0.031 A 
ATOM     22  S   UNL     1       5.352  -0.020  -0.052  0.00  0.00    -0.089 S 
BRANCH  18  26
ATOM     23  C   UNL     1      -0.017   1.379   0.010  0.00  0.00    +0.000 A 
ATOM     24  C   UNL     1       1.168   2.093   0.002  0.00  0.00    +0.001 A 
ATOM     25  C   UNL     1       2.377   1.429  -0.013  0.00  0.00    +0.009 A 
ATOM     26  C   UNL     1       2.403   0.034  -0.021  0.00  0.00    -0.011 A 
ATOM     27  C   UNL     1       1.204  -0.681  -0.013  0.00  0.00    +0.009 A 
ATOM     28  C   UNL     1       0.002  -0.004   0.002  0.00  0.00    +0.001 A 
ENDBRANCH  18  26
ENDBRANCH   1  21
TORSDOF 2
