REMARK  Name = ZINC07616140
REMARK  3 active torsions:
REMARK  status: ('A' for Active; 'I' for Inactive)
REMARK    1  A    between atoms: C_4  and  C_7
REMARK    2  A    between atoms: C_8  and  C_9
REMARK    3  A    between atoms: C_14  and  O_22
REMARK                            x       y       z     vdW  Elec       q    Type
REMARK                         _______ _______ _______ _____ _____    ______ ____
ROOT
ATOM      1  C   UNL     1       3.644   6.040   0.001  0.00  0.00    +0.239 C 
ATOM      2  O   UNL     1       4.707   5.454   0.082  0.00  0.00    -0.271 OA
ATOM      3  N   UNL     1       3.621   7.384  -0.094  0.00  0.00    -0.298 N 
ATOM      4  C   UNL     1       2.346   8.114  -0.080  0.00  0.00    +0.111 C 
ATOM      5  C   UNL     1       2.284   9.018  -1.315  0.00  0.00    +0.054 C 
ATOM      6  C   UNL     1       3.521   9.919  -1.348  0.00  0.00    +0.072 C 
ATOM      7  C   UNL     1       3.440  10.841  -2.567  0.00  0.00    +0.035 C 
ATOM      8  C   UNL     1       4.676  11.741  -2.613  0.00  0.00    +0.003 C 
ATOM      9  C   UNL     1       5.932  10.873  -2.715  0.00  0.00    +0.001 C 
ATOM     10  C   UNL     1       6.017   9.955  -1.494  0.00  0.00    +0.008 C 
ATOM     11  C   UNL     1       4.781   9.054  -1.444  0.00  0.00    +0.038 C 
ATOM     12  C   UNL     1       4.870   8.149  -0.206  0.00  0.00    +0.114 C 
ENDROOT
BRANCH   1  14
ATOM     13  C   UNL     1       2.414   3.937  -0.006  0.00  0.00    +0.013 C 
ATOM     14  C   UNL     1       2.389   5.285   0.005  0.00  0.00    +0.068 C 
BRANCH  13  18
ATOM     15  C   UNL     1      -1.221   1.749   0.003  0.00  0.00    +0.000 A 
ATOM     16  C   UNL     1      -0.012   1.075  -0.008  0.00  0.00    +0.001 A 
ATOM     17  C   UNL     1       1.174   1.779  -0.013  0.00  0.00    +0.008 A 
ATOM     18  C   UNL     1       1.152   3.178  -0.001  0.00  0.00    -0.025 A 
ATOM     19  C   UNL     1      -0.073   3.851   0.016  0.00  0.00    +0.008 A 
ATOM     20  C   UNL     1      -1.250   3.133   0.021  0.00  0.00    +0.001 A 
ENDBRANCH  13  18
ENDBRANCH   1  14
BRANCH   6  21
ATOM     21  O   UNL     1       3.572  10.704  -0.156  0.00  0.00    -0.388 OA
ATOM     22  H   UNL     1       2.804  11.279  -0.031  0.00  0.00    +0.210 HD
ENDBRANCH   6  21
TORSDOF 3
