REMARK  Name = ZINC09684945
REMARK  9 active torsions:
REMARK  status: ('A' for Active; 'I' for Inactive)
REMARK    1  A    between atoms: C_1  and  C_2
REMARK    2  A    between atoms: C_3  and  C_22
REMARK    3  A    between atoms: C_4  and  S_9
REMARK    4  A    between atoms: C_5  and  C_8
REMARK    5  A    between atoms: N_6  and  C_7
REMARK    6  A    between atoms: S_9  and  N_12
REMARK    7  A    between atoms: N_12  and  C_13
REMARK    8  A    between atoms: C_13  and  C_14
REMARK    9  A    between atoms: C_14  and  C_15
REMARK                            x       y       z     vdW  Elec       q    Type
REMARK                         _______ _______ _______ _____ _____    ______ ____
ROOT
ATOM      1  C   UNL     1      -0.018   1.503   0.010  0.00  0.00    +0.064 C 
ATOM      2  C   UNL     1       0.002  -0.004   0.002  0.00  0.00    +0.030 A 
ATOM      3  C   UNL     1       0.008  -0.798  -1.112  0.00  0.00    +0.084 A 
ATOM      4  C   UNL     1       0.029  -2.182  -0.625  0.00  0.00    +0.138 A 
ATOM      5  C   UNL     1       0.034  -2.110   0.718  0.00  0.00    +0.043 A 
ATOM      6  N   UNL     1       0.024  -0.798   1.090  0.00  0.00    -0.349 N 
ATOM      7  C   UNL     1       0.032  -0.320   2.475  0.00  0.00    +0.149 C 
ATOM      8  C   UNL     1       0.054  -3.288   1.658  0.00  0.00    +0.065 C 
ENDROOT
BRANCH   3   9
ATOM      9  C   UNL     1      -0.005  -0.354  -2.515  0.00  0.00    +0.250 C 
ATOM     10  O   UNL     1       1.044  -0.156  -3.100  0.00  0.00    -0.270 OA
ATOM     11  N   UNL     1      -1.177  -0.166  -3.152  0.00  0.00    -0.297 N 
ATOM     12  C   UNL     1      -2.452  -0.394  -2.458  0.00  0.00    +0.108 C 
ATOM     13  C   UNL     1      -3.318   0.863  -2.590  0.00  0.00    +0.019 C 
ATOM     14  C   UNL     1      -3.465   1.222  -4.071  0.00  0.00    +0.003 C 
ATOM     15  C   UNL     1      -2.086   1.521  -4.664  0.00  0.00    +0.019 C 
ATOM     16  C   UNL     1      -1.206   0.278  -4.553  0.00  0.00    +0.108 C 
ENDBRANCH   3   9
BRANCH   4  17
ATOM     17  S   UNL     1       0.043  -3.646  -1.605  0.00  0.00    +0.061 S 
ATOM     18  O   UNL     1      -0.489  -4.683  -0.793  0.00  0.00    -0.153 OA
ATOM     19  O   UNL     1      -0.519  -3.298  -2.863  0.00  0.00    -0.153 OA
BRANCH  17  20
ATOM     20  N   UNL     1       1.629  -4.032  -1.886  0.00  0.00    -0.190 NA
ATOM     21  H   UNL     1       1.983  -4.004  -2.788  0.00  0.00    +0.148 HD
BRANCH  20  22
ATOM     22  C   UNL     1       2.498  -4.414  -0.770  0.00  0.00    +0.110 C 
BRANCH  22  23
ATOM     23  C   UNL     1       3.769  -5.069  -1.315  0.00  0.00    +0.052 C 
BRANCH  23  24
ATOM     24  C   UNL     1       4.663  -5.463  -0.167  0.00  0.00    -0.046 A 
ATOM     25  C   UNL     1       5.602  -4.570   0.315  0.00  0.00    +0.005 A 
ATOM     26  C   UNL     1       6.422  -4.930   1.367  0.00  0.00    +0.020 A 
ATOM     27  C   UNL     1       6.304  -6.184   1.938  0.00  0.00    +0.041 A 
ATOM     28  C   UNL     1       5.364  -7.078   1.455  0.00  0.00    +0.020 A 
ATOM     29  C   UNL     1       4.541  -6.715   0.406  0.00  0.00    +0.005 A 
ATOM     30 CL   UNL     1       7.334  -6.638   3.260  0.00  0.00    -0.084 Cl
ENDBRANCH  23  24
ENDBRANCH  22  23
ENDBRANCH  20  22
ENDBRANCH  17  20
ENDBRANCH   4  17
TORSDOF 6
