REMARK  Name = ZINC08901660
REMARK  7 active torsions:
REMARK  status: ('A' for Active; 'I' for Inactive)
REMARK    1  A    between atoms: C_1  and  C_2
REMARK    2  A    between atoms: C_7  and  S_8
REMARK    3  A    between atoms: S_8  and  N_11
REMARK    4  A    between atoms: N_11  and  C_12
REMARK    5  A    between atoms: C_12  and  C_13
REMARK    6  A    between atoms: C_13  and  C_15
REMARK    7  A    between atoms: C_13  and  N_51
REMARK                            x       y       z     vdW  Elec       q    Type
REMARK                         _______ _______ _______ _____ _____    ______ ____
ROOT
ATOM      1  C   UNL     1      -1.141   1.772   1.293  0.00  0.00    +0.095 C 
ENDROOT
BRANCH   1   2
ATOM      2  N   UNL     1      -2.574   1.469   1.257  0.00  0.00    -0.191 NA
ATOM      3  H   UNL     1      -2.980   1.137   0.441  0.00  0.00    +0.148 HD
BRANCH   2   4
ATOM      4  S   UNL     1      -3.502   1.694   2.611  0.00  0.00    +0.059 S 
ATOM      5  O   UNL     1      -4.840   1.392   2.241  0.00  0.00    -0.153 OA
ATOM      6  O   UNL     1      -2.836   1.027   3.675  0.00  0.00    -0.153 OA
BRANCH   4  13
ATOM      7  C   UNL     1      -4.691   3.851   0.856  0.00  0.00    +0.046 C 
ATOM      8  C   UNL     1      -4.033   4.327   2.125  0.00  0.00    -0.024 A 
ATOM      9  C   UNL     1      -4.001   5.677   2.422  0.00  0.00    +0.007 A 
ATOM     10  C   UNL     1      -3.397   6.114   3.586  0.00  0.00    +0.020 A 
ATOM     11  C   UNL     1      -2.824   5.201   4.453  0.00  0.00    +0.043 A 
ATOM     12  C   UNL     1      -2.860   3.850   4.157  0.00  0.00    +0.048 A 
ATOM     13  C   UNL     1      -3.460   3.414   2.991  0.00  0.00    +0.110 A 
ATOM     14 CL   UNL     1      -2.065   5.750   5.915  0.00  0.00    -0.083 Cl
ENDBRANCH   4  13
ENDBRANCH   2   4
ENDBRANCH   1   2
BRANCH   1  15
ATOM     15  C   UNL     1      -0.462   1.168   0.062  0.00  0.00    -0.021 C 
BRANCH  15  22
ATOM     16  C   UNL     1      -2.304   1.938  -1.325  0.00  0.00    -0.078 C 
ATOM     17  C   UNL     1      -2.716   2.477  -2.667  0.00  0.00    -0.019 C 
ATOM     18  C   UNL     1      -2.867   1.292  -3.645  0.00  0.00    -0.002 C 
ATOM     19  C   UNL     1      -1.579   0.819  -4.140  0.00  0.00    -0.002 C 
ATOM     20  C   UNL     1      -0.668   0.311  -3.003  0.00  0.00    -0.019 C 
ATOM     21  C   UNL     1      -0.059   1.500  -2.312  0.00  0.00    -0.078 C 
ATOM     22  N   UNL     1      -0.817   1.986  -1.109  0.00  0.00    +0.385 N 
ATOM     23  H   UNL     1      -0.547   2.960  -0.927  0.00  0.00    -0.081 HD
ENDBRANCH  15  22
BRANCH  15  24
ATOM     24  C   UNL     1       1.034   1.214   0.240  0.00  0.00    -0.053 A 
ATOM     25  C   UNL     1       1.727   0.087   0.642  0.00  0.00    +0.009 A 
ATOM     26  C   UNL     1       3.072   0.162   0.794  0.00  0.00    +0.045 A 
ATOM     27  S   UNL     1       3.398   1.864   0.362  0.00  0.00    -0.105 S 
ATOM     28  C   UNL     1       1.720   2.358   0.004  0.00  0.00    +0.047 A 
ENDBRANCH  15  24
ENDBRANCH   1  15
TORSDOF 6
