REMARK  Name = ZINC09925212
REMARK  11 active torsions:
REMARK  status: ('A' for Active; 'I' for Inactive)
REMARK    1  A    between atoms: C_1  and  C_2
REMARK    2  A    between atoms: C_7  and  N_12
REMARK    3  A    between atoms: C_9  and  C_11
REMARK    4  A    between atoms: C_13  and  C_15
REMARK    5  A    between atoms: C_15  and  C_17
REMARK    6  A    between atoms: C_15  and  S_18
REMARK    7  A    between atoms: S_18  and  C_19
REMARK    8  A    between atoms: C_22  and  C_32
REMARK    9  A    between atoms: N_23  and  C_24
REMARK   10  A    between atoms: C_27  and  O_30
REMARK   11  A    between atoms: O_30  and  C_31
REMARK                            x       y       z     vdW  Elec       q    Type
REMARK                         _______ _______ _______ _____ _____    ______ ____
ROOT
ATOM      1  C   UNL     1      -3.477   1.544   7.606  0.00  0.00    +0.197 A 
ATOM      2  N   UNL     1      -4.503   2.348   7.428  0.00  0.00    -0.122 NA
ATOM      3  N   UNL     1      -4.937   2.770   8.561  0.00  0.00    -0.128 NA
ATOM      4  C   UNL     1      -4.216   2.262   9.535  0.00  0.00    +0.169 A 
ATOM      5  N   UNL     1      -3.262   1.456   8.953  0.00  0.00    -0.270 N 
ENDROOT
BRANCH   5   6
ATOM      6  C   UNL     1      -2.275   0.704   9.607  0.00  0.00    +0.051 A 
ATOM      7  C   UNL     1      -2.638  -0.348  10.437  0.00  0.00    +0.030 A 
ATOM      8  C   UNL     1      -1.665  -1.092  11.075  0.00  0.00    +0.047 A 
ATOM      9  C   UNL     1      -0.325  -0.780  10.897  0.00  0.00    +0.120 A 
ATOM     10  C   UNL     1       0.038   0.275  10.073  0.00  0.00    +0.047 A 
ATOM     11  C   UNL     1      -0.933   1.015   9.429  0.00  0.00    +0.030 A 
BRANCH   9  12
ATOM     12  O   UNL     1       0.632  -1.509  11.531  0.00  0.00    -0.495 OA
ATOM     13  C   UNL     1       0.186  -2.580  12.364  0.00  0.00    +0.277 C 
ENDBRANCH   9  12
ENDBRANCH   5   6
BRANCH   4  14
ATOM     14  C   UNL     1      -4.399   2.503  10.981  0.00  0.00    +0.022 A 
ATOM     15  C   UNL     1      -3.400   2.160  11.900  0.00  0.00    +0.031 A 
ATOM     16  C   UNL     1      -3.611   2.407  13.240  0.00  0.00    +0.111 A 
ATOM     17  N   UNL     1      -4.739   2.950  13.660  0.00  0.00    -0.263 NA
ATOM     18  C   UNL     1      -5.708   3.284  12.828  0.00  0.00    +0.111 A 
ATOM     19  C   UNL     1      -5.579   3.077  11.471  0.00  0.00    +0.031 A 
ENDBRANCH   4  14
BRANCH   1  20
ATOM     20  S   UNL     1      -2.557   0.727   6.345  0.00  0.00    -0.073 S 
BRANCH  20  21
ATOM     21  C   UNL     1      -3.432   1.327   4.879  0.00  0.00    +0.137 C 
ATOM     22  C   UNL     1      -4.868   0.797   4.890  0.00  0.00    +0.029 C 
BRANCH  21  24
ATOM     23  N   UNL     1      -2.850   1.522   2.483  0.00  0.00    -0.311 N 
ATOM     24  C   UNL     1      -2.727   0.841   3.639  0.00  0.00    +0.226 C 
ATOM     25  O   UNL     1      -2.049  -0.164   3.682  0.00  0.00    -0.275 OA
ATOM     26  H   UNL     1      -3.393   2.325   2.449  0.00  0.00    +0.149 HD
BRANCH  23  32
ATOM     27  C   UNL     1      -2.928   1.570  -2.460  0.00  0.00    +0.008 C 
ATOM     28  C   UNL     1      -2.188   1.063  -1.221  0.00  0.00    -0.009 C 
ATOM     29  C   UNL     1      -0.753   1.593  -1.232  0.00  0.00    +0.003 C 
ATOM     30  C   UNL     1      -0.013   1.086   0.008  0.00  0.00    +0.002 C 
ATOM     31  C   UNL     1      -0.729   1.579   1.267  0.00  0.00    +0.022 C 
ATOM     32  C   UNL     1      -2.164   1.050   1.278  0.00  0.00    +0.076 C 
ATOM     33  C   UNL     1      -2.904   1.556   0.038  0.00  0.00    +0.009 C 
ATOM     34  C   UNL     1      -4.340   1.027   0.049  0.00  0.00    +0.009 C 
ENDBRANCH  23  32
ENDBRANCH  21  24
ENDBRANCH  20  21
ENDBRANCH   1  20
TORSDOF 7
