REMARK  Name = ZINC14687974
REMARK  7 active torsions:
REMARK  status: ('A' for Active; 'I' for Inactive)
REMARK    1  A    between atoms: C_1  and  C_2
REMARK    2  A    between atoms: C_2  and  C_3
REMARK    3  A    between atoms: C_3  and  C_25
REMARK    4  A    between atoms: N_6  and  C_10
REMARK    5  A    between atoms: C_10  and  C_11
REMARK    6  A    between atoms: N_13  and  C_14
REMARK    7  A    between atoms: C_14  and  C_15
REMARK                            x       y       z     vdW  Elec       q    Type
REMARK                         _______ _______ _______ _____ _____    ______ ____
ROOT
ATOM      1  C   UNL     1       1.225   1.016   9.134  0.00  0.00    +0.138 C 
ATOM      2  C   UNL     1       0.803   1.888   7.968  0.00  0.00    +0.251 C 
ATOM      3  O   UNL     1       1.266   2.963   7.652  0.00  0.00    -0.272 OA
ATOM      4  N   UNL     1      -0.195   1.220   7.356  0.00  0.00    -0.215 N 
ATOM      5  C   UNL     1      -0.462   0.061   7.970  0.00  0.00    +0.310 C 
ATOM      6  O   UNL     1      -1.324  -0.714   7.604  0.00  0.00    -0.252 OA
ATOM      7  N   UNL     1       0.333  -0.152   9.034  0.00  0.00    -0.281 N 
ATOM      8  H   UNL     1       0.318  -0.923   9.623  0.00  0.00    +0.152 HD
ENDROOT
BRANCH   1   9
ATOM      9  C   UNL     1       1.014   1.738  10.440  0.00  0.00    -0.015 A 
ATOM     10  C   UNL     1       2.033   2.499  10.981  0.00  0.00    +0.006 A 
ATOM     11  C   UNL     1       1.838   3.165  12.177  0.00  0.00    +0.000 A 
ATOM     12  C   UNL     1       0.627   3.062  12.836  0.00  0.00    +0.000 A 
ATOM     13  C   UNL     1      -0.390   2.296  12.298  0.00  0.00    +0.000 A 
ATOM     14  C   UNL     1      -0.196   1.634  11.100  0.00  0.00    +0.006 A 
ENDBRANCH   1   9
BRANCH   1  16
ATOM     15  C   UNL     1       2.863  -0.185   7.679  0.00  0.00    +0.007 C 
ATOM     16  C   UNL     1       2.687   0.591   8.986  0.00  0.00    +0.037 C 
ENDBRANCH   1  16
BRANCH   4  17
ATOM     17  C   UNL     1      -0.903   1.705   6.169  0.00  0.00    +0.213 C 
BRANCH  17  18
ATOM     18  C   UNL     1      -0.198   1.219   4.929  0.00  0.00    +0.231 C 
ATOM     19  O   UNL     1       0.798   0.535   5.028  0.00  0.00    -0.274 OA
ATOM     20  N   UNL     1      -0.675   1.545   3.712  0.00  0.00    -0.313 N 
ATOM     21  H   UNL     1      -1.472   2.092   3.633  0.00  0.00    +0.149 HD
BRANCH  20  22
ATOM     22  C   UNL     1       0.011   1.072   2.506  0.00  0.00    +0.111 C 
BRANCH  22  23
ATOM     23  C   UNL     1      -0.729   1.579   1.267  0.00  0.00    -0.013 C 
ATOM     24  C   UNL     1      -0.013   1.086   0.008  0.00  0.00    +0.012 C 
ATOM     25  C   UNL     1      -0.753   1.593  -1.232  0.00  0.00    -0.010 C 
ATOM     26  C   UNL     1      -0.773   3.123  -1.223  0.00  0.00    +0.007 C 
ATOM     27  C   UNL     1      -1.490   3.616   0.036  0.00  0.00    -0.010 C 
ATOM     28  C   UNL     1      -0.750   3.109   1.275  0.00  0.00    +0.012 C 
ATOM     29  C   UNL     1      -2.925   3.086   0.047  0.00  0.00    +0.007 C 
ATOM     30  C   UNL     1      -2.904   1.556   0.038  0.00  0.00    -0.010 C 
ATOM     31  C   UNL     1      -2.188   1.063  -1.221  0.00  0.00    +0.007 C 
ATOM     32  C   UNL     1      -2.164   1.050   1.278  0.00  0.00    +0.012 C 
ENDBRANCH  22  23
ENDBRANCH  20  22
ENDBRANCH  17  18
ENDBRANCH   4  17
TORSDOF 6
