REMARK  Name = ZINC04477807
REMARK  4 active torsions:
REMARK  status: ('A' for Active; 'I' for Inactive)
REMARK    1  A    between atoms: C_4  and  C_7
REMARK    2  A    between atoms: C_11  and  C_12
REMARK    3  A    between atoms: N_13  and  C_14
REMARK    4  A    between atoms: C_19  and  N_20
REMARK                            x       y       z     vdW  Elec       q    Type
REMARK                         _______ _______ _______ _____ _____    ______ ____
ROOT
ATOM      1  C   UNL     1       3.833  -0.532   0.063  0.00  0.00    +0.034 C 
ATOM      2  C   UNL     1       4.090  -1.164  -1.308  0.00  0.00    +0.088 C 
ATOM      3  C   UNL     1       5.384  -1.935  -1.266  0.00  0.00    +0.169 C 
ATOM      4  O   UNL     1       6.050  -2.055  -2.283  0.00  0.00    -0.292 OA
ATOM      5  C   UNL     1       5.828  -2.515  -0.076  0.00  0.00    +0.078 C 
ATOM      6  C   UNL     1       5.092  -2.395   1.104  0.00  0.00    +0.169 C 
ATOM      7  O   UNL     1       5.506  -2.911   2.130  0.00  0.00    -0.292 OA
ATOM      8  C   UNL     1       3.791  -1.636   1.123  0.00  0.00    +0.088 C 
ENDROOT
BRANCH   1  12
ATOM      9  C   UNL     1       0.095   1.536   0.001  0.00  0.00    +0.000 A 
ATOM     10  C   UNL     1       1.261   2.223   0.284  0.00  0.00    +0.000 A 
ATOM     11  C   UNL     1       2.470   1.554   0.304  0.00  0.00    +0.004 A 
ATOM     12  C   UNL     1       2.514   0.198   0.042  0.00  0.00    -0.043 A 
ATOM     13  C   UNL     1       1.349  -0.490  -0.240  0.00  0.00    +0.004 A 
ATOM     14  C   UNL     1       0.140   0.179  -0.262  0.00  0.00    +0.000 A 
ENDBRANCH   1  12
BRANCH   5  15
ATOM     15  C   UNL     1       7.092  -3.262  -0.066  0.00  0.00    +0.126 C 
ATOM     16  N   UNL     1       7.517  -3.808   1.040  0.00  0.00    -0.252 NA
BRANCH  16  17
ATOM     17  C   UNL     1       8.635  -4.599   1.028  0.00  0.00    +0.094 A 
ATOM     18  C   UNL     1       8.773  -5.604   0.067  0.00  0.00    +0.031 A 
ATOM     19  C   UNL     1       9.901  -6.396   0.059  0.00  0.00    +0.022 A 
ATOM     20  C   UNL     1      10.897  -6.198   1.002  0.00  0.00    +0.043 A 
ATOM     21  C   UNL     1      10.766  -5.204   1.957  0.00  0.00    +0.055 A 
ATOM     22  C   UNL     1       9.645  -4.401   1.971  0.00  0.00    +0.153 A 
ATOM     23 CL   UNL     1      12.314  -7.200   0.985  0.00  0.00    -0.083 Cl
BRANCH  22  24
ATOM     24  N   UNL     1       9.510  -3.334   2.989  0.00  0.00    +0.059 N 
ATOM     25  O   UNL     1      10.386  -3.163   3.805  0.00  0.00    -0.126 OA
ATOM     26  O   UNL     1       8.525  -2.633   3.003  0.00  0.00    -0.126 OA
ENDBRANCH  22  24
ENDBRANCH  16  17
ENDBRANCH   5  15
TORSDOF 4
