REMARK  Name = ZINC06293894
REMARK  8 active torsions:
REMARK  status: ('A' for Active; 'I' for Inactive)
REMARK    1  A    between atoms: C_1  and  C_2
REMARK    2  A    between atoms: C_2  and  O_4
REMARK    3  A    between atoms: O_4  and  C_5
REMARK    4  A    between atoms: C_5  and  C_6
REMARK    5  A    between atoms: C_6  and  O_7
REMARK    6  A    between atoms: O_7  and  C_8
REMARK    7  A    between atoms: C_12  and  C_31
REMARK    8  A    between atoms: C_24  and  C_30
REMARK                            x       y       z     vdW  Elec       q    Type
REMARK                         _______ _______ _______ _____ _____    ______ ____
ROOT
ATOM      1  C   UNL     1      -2.368   6.750   1.651  0.00  0.00    +0.119 C 
ATOM      2  C   UNL     1      -1.265   7.392   0.794  0.00  0.00    +0.032 C 
ATOM      3  C   UNL     1      -1.334   8.890   1.033  0.00  0.00    +0.010 C 
ATOM      4  C   UNL     1      -2.701   9.505   0.783  0.00  0.00    -0.026 C 
ATOM      5  C   UNL     1      -3.900   8.627   0.891  0.00  0.00    -0.002 C 
ATOM      6  C   UNL     1      -3.692   7.125   1.003  0.00  0.00    +0.035 C 
ATOM      7  C   UNL     1      -5.082   9.030   1.750  0.00  0.00    +0.004 C 
ATOM      8  C   UNL     1      -4.852  10.234   2.658  0.00  0.00    +0.004 C 
ATOM      9  C   UNL     1      -4.177  11.288   1.777  0.00  0.00    -0.004 C 
ATOM     10  C   UNL     1      -2.740  10.795   1.588  0.00  0.00    -0.001 C 
ATOM     11  C   UNL     1      -1.893  11.924   1.017  0.00  0.00    +0.005 C 
ATOM     12  C   UNL     1      -1.678  12.994   2.106  0.00  0.00    +0.007 C 
ATOM     13  C   UNL     1      -2.878  13.090   3.006  0.00  0.00    -0.029 C 
ATOM     14  C   UNL     1      -4.186  12.681   2.309  0.00  0.00    -0.002 C 
ATOM     15  C   UNL     1      -5.241  13.044   3.362  0.00  0.00    +0.004 C 
ATOM     16  C   UNL     1      -4.703  14.371   3.965  0.00  0.00    +0.001 C 
ATOM     17  C   UNL     1      -3.237  14.512   3.482  0.00  0.00    +0.007 C 
ATOM     18  C   UNL     1      -2.643  12.274   4.282  0.00  0.00    +0.011 C 
ATOM     19  C   UNL     1      -2.666   9.931  -0.679  0.00  0.00    +0.012 C 
ENDROOT
BRANCH   1  20
ATOM     20  O   UNL     1      -2.215   5.330   1.666  0.00  0.00    -0.373 OA
BRANCH  20  21
ATOM     21  C   UNL     1      -1.416   4.843   2.747  0.00  0.00    +0.201 C 
BRANCH  21  22
ATOM     22  C   UNL     1      -1.321   3.318   2.663  0.00  0.00    +0.260 C 
BRANCH  22  23
ATOM     23  O   UNL     1      -0.604   2.944   1.458  0.00  0.00    -0.463 OA
BRANCH  23  25
ATOM     24  C   UNL     1       0.301   1.167   0.002  0.00  0.00    +0.136 C 
ATOM     25  C   UNL     1      -0.433   1.631   1.233  0.00  0.00    +0.304 C 
ATOM     26  O   UNL     1      -0.867   0.823   2.019  0.00  0.00    -0.251 OA
ENDBRANCH  23  25
ENDBRANCH  22  23
ENDBRANCH  21  22
ENDBRANCH  20  21
ENDBRANCH   1  20
TORSDOF 5
