REMARK  Name = ZINC08791512
REMARK  9 active torsions:
REMARK  status: ('A' for Active; 'I' for Inactive)
REMARK    1  A    between atoms: C_1  and  C_2
REMARK    2  A    between atoms: C_2  and  O_3
REMARK    3  A    between atoms: O_3  and  C_4
REMARK    4  A    between atoms: C_7  and  C_10
REMARK    5  A    between atoms: C_10  and  C_11
REMARK    6  A    between atoms: C_11  and  C_21
REMARK    7  A    between atoms: C_15  and  C_19
REMARK    8  A    between atoms: C_15  and  C_20
REMARK    9  A    between atoms: C_21  and  N_67
REMARK                            x       y       z     vdW  Elec       q    Type
REMARK                         _______ _______ _______ _____ _____    ______ ____
ROOT
ATOM      1  C   UNL     1       0.575  -1.090   6.667  0.00  0.00    +0.154 C 
ATOM      2  C   UNL     1       1.155  -2.271   5.912  0.00  0.00    +0.326 C 
ATOM      3  O   UNL     1       1.977  -2.999   6.415  0.00  0.00    -0.250 OA
ATOM      4  O   UNL     1       0.710  -2.470   4.649  0.00  0.00    -0.422 OA
ATOM      5  C   UNL     1      -0.738  -2.492   4.489  0.00  0.00    +0.254 C 
ATOM      6  O   UNL     1      -1.303  -1.302   5.109  0.00  0.00    -0.422 OA
ATOM      7  C   UNL     1      -0.915  -1.069   6.384  0.00  0.00    +0.326 C 
ATOM      8  O   UNL     1      -1.721  -0.853   7.258  0.00  0.00    -0.250 OA
ATOM      9  C   UNL     1      -1.308  -3.741   5.166  0.00  0.00    +0.104 C 
ATOM     10  C   UNL     1      -1.090  -2.510   3.001  0.00  0.00    +0.104 C 
ENDROOT
BRANCH   1  11
ATOM     11  C   UNL     1       1.218   0.210   6.179  0.00  0.00    +0.062 C 
BRANCH  11  15
ATOM     12  C   UNL     1       0.521   0.656   1.986  0.00  0.00    +0.121 A 
ATOM     13  C   UNL     1       1.650  -0.013   2.436  0.00  0.00    +0.046 A 
ATOM     14  C   UNL     1       1.876  -0.151   3.792  0.00  0.00    +0.007 A 
ATOM     15  C   UNL     1       0.972   0.367   4.700  0.00  0.00    -0.046 A 
ATOM     16  C   UNL     1      -0.157   1.029   4.255  0.00  0.00    +0.007 A 
ATOM     17  C   UNL     1      -0.385   1.174   2.900  0.00  0.00    +0.046 A 
BRANCH  12  18
ATOM     18  O   UNL     1       0.299   0.797   0.653  0.00  0.00    -0.492 OA
BRANCH  18  20
ATOM     19  C   UNL     1       0.857   0.495  -1.679  0.00  0.00    +0.048 C 
ATOM     20  C   UNL     1       1.274   0.238  -0.230  0.00  0.00    +0.225 C 
ENDBRANCH  18  20
ENDBRANCH  12  18
ENDBRANCH  11  15
ENDBRANCH   1  11
BRANCH   1  21
ATOM     21  C   UNL     1       0.818  -1.260   8.168  0.00  0.00    -0.049 C 
BRANCH  21  35
ATOM     22  C   UNL     1       0.734  -3.670   7.966  0.00  0.00    -0.074 C 
ATOM     23  C   UNL     1       0.103  -4.951   8.492  0.00  0.00    -0.007 C 
ATOM     24  C   UNL     1      -1.421  -4.903   8.351  0.00  0.00    +0.011 C 
ATOM     25  C   UNL     1      -1.916  -3.663   9.103  0.00  0.00    +0.020 C 
ATOM     26  C   UNL     1      -1.289  -2.424   8.442  0.00  0.00    -0.069 C 
ATOM     27  C   UNL     1      -1.420  -3.716  10.531  0.00  0.00    +0.023 A 
ATOM     28  C   UNL     1      -2.176  -3.106  11.482  0.00  0.00    +0.022 A 
ATOM     29  C   UNL     1      -1.744  -3.062  12.812  0.00  0.00    +0.007 A 
ATOM     30  C   UNL     1      -0.539  -3.616  13.132  0.00  0.00    +0.070 A 
ATOM     31  C   UNL     1       0.217  -4.234  12.127  0.00  0.00    +0.251 A 
ATOM     32  O   UNL     1       1.324  -4.676  12.389  0.00  0.00    -0.268 OA
ATOM     33  N   UNL     1      -0.269  -4.345  10.866  0.00  0.00    -0.312 N 
ATOM     34  C   UNL     1       0.470  -5.207   9.944  0.00  0.00    +0.126 C 
ATOM     35  N   UNL     1       0.173  -2.493   8.662  0.00  0.00    +0.381 N 
ATOM     36  H   UNL     1       0.354  -2.584   9.669  0.00  0.00    -0.082 HD
ENDBRANCH  21  35
ENDBRANCH   1  21
TORSDOF 6
