REMARK  Name = ZINC13849886
REMARK  10 active torsions:
REMARK  status: ('A' for Active; 'I' for Inactive)
REMARK    1  A    between atoms: C_1  and  C_2
REMARK    2  A    between atoms: C_2  and  N_3
REMARK    3  A    between atoms: C_4  and  C_25
REMARK    4  A    between atoms: C_7  and  S_8
REMARK    5  A    between atoms: S_8  and  C_9
REMARK    6  A    between atoms: C_9  and  C_10
REMARK    7  A    between atoms: C_15  and  C_18
REMARK    8  A    between atoms: C_25  and  C_27
REMARK    9  A    between atoms: C_25  and  O_28
REMARK   10  A    between atoms: O_28  and  C_29
REMARK                            x       y       z     vdW  Elec       q    Type
REMARK                         _______ _______ _______ _____ _____    ______ ____
ROOT
ATOM      1  S   UNL     1       3.585  -0.267  -0.781  0.00  0.00    -0.077 S 
ENDROOT
BRANCH   1   6
ATOM      2  N   UNL     1       0.881  -0.373  -1.494  0.00  0.00    -0.303 N 
ATOM      3  C   UNL     1       0.172  -0.633  -2.634  0.00  0.00    +0.175 A 
ATOM      4  N   UNL     1       1.033  -0.894  -3.576  0.00  0.00    -0.130 NA
ATOM      5  N   UNL     1       2.230  -0.817  -3.114  0.00  0.00    -0.122 NA
ATOM      6  C   UNL     1       2.196  -0.495  -1.841  0.00  0.00    +0.192 A 
BRANCH   2   8
ATOM      7  C   UNL     1       0.193   1.489  -0.067  0.00  0.00    +0.027 C 
ATOM      8  C   UNL     1       0.342  -0.029  -0.176  0.00  0.00    +0.122 C 
ENDBRANCH   2   8
BRANCH   3   9
ATOM      9  C   UNL     1      -1.329  -0.622  -2.774  0.00  0.00    +0.238 C 
ATOM     10  C   UNL     1      -1.762   0.644  -3.517  0.00  0.00    +0.060 C 
BRANCH   9  11
ATOM     11  O   UNL     1      -1.748  -1.772  -3.510  0.00  0.00    -0.481 OA
BRANCH  11  12
ATOM     12  C   UNL     1      -3.018  -2.209  -3.303  0.00  0.00    +0.122 A 
ATOM     13  C   UNL     1      -3.453  -3.387  -3.893  0.00  0.00    +0.045 A 
ATOM     14  C   UNL     1      -4.744  -3.829  -3.680  0.00  0.00    +0.004 A 
ATOM     15  C   UNL     1      -5.603  -3.099  -2.879  0.00  0.00    +0.000 A 
ATOM     16  C   UNL     1      -5.172  -1.925  -2.290  0.00  0.00    +0.004 A 
ATOM     17  C   UNL     1      -3.880  -1.481  -2.495  0.00  0.00    +0.045 A 
ENDBRANCH  11  12
ENDBRANCH   9  11
ENDBRANCH   3   9
ENDBRANCH   1   6
BRANCH   1  18
ATOM     18  C   UNL     1       5.013  -0.574  -1.857  0.00  0.00    +0.173 C 
BRANCH  18  19
ATOM     19  C   UNL     1       6.284  -0.410  -1.063  0.00  0.00    +0.229 C 
ATOM     20  O   UNL     1       6.231  -0.115   0.112  0.00  0.00    -0.275 OA
ATOM     21  N   UNL     1       7.479  -0.591  -1.660  0.00  0.00    -0.264 N 
ATOM     22  C   UNL     1       8.650  -0.439  -0.928  0.00  0.00    +0.165 A 
ATOM     23  N   UNL     1       9.903  -0.566  -1.323  0.00  0.00    -0.225 NA
ATOM     24  C   UNL     1      10.911  -0.383  -0.483  0.00  0.00    +0.080 A 
ATOM     25  C   UNL     1      10.648  -0.058   0.819  0.00  0.00    +0.076 A 
ATOM     26  S   UNL     1       8.861  -0.013   0.795  0.00  0.00    -0.060 S 
ATOM     27  H   UNL     1       7.521  -0.827  -2.600  0.00  0.00    +0.157 HD
BRANCH  24  28
ATOM     28  C   UNL     1      12.311  -0.531  -0.949  0.00  0.00    +0.001 A 
ATOM     29  C   UNL     1      13.368  -0.345  -0.060  0.00  0.00    +0.011 A 
ATOM     30  C   UNL     1      14.669  -0.484  -0.499  0.00  0.00    +0.020 A 
ATOM     31  C   UNL     1      14.925  -0.807  -1.820  0.00  0.00    +0.041 A 
ATOM     32  C   UNL     1      13.879  -0.993  -2.708  0.00  0.00    +0.020 A 
ATOM     33  C   UNL     1      12.574  -0.863  -2.277  0.00  0.00    +0.011 A 
ATOM     34 CL   UNL     1      16.564  -0.980  -2.367  0.00  0.00    -0.084 Cl
ENDBRANCH  24  28
ENDBRANCH  18  19
ENDBRANCH   1  18
TORSDOF 8
