REMARK  Name = ZINC35541771
REMARK  5 active torsions:
REMARK  status: ('A' for Active; 'I' for Inactive)
REMARK    1  A    between atoms: C_1  and  C_2
REMARK    2  A    between atoms: C_2  and  N_3
REMARK    3  A    between atoms: N_3  and  C_4
REMARK    4  A    between atoms: C_4  and  C_6
REMARK    5  A    between atoms: C_4  and  C_13
REMARK                            x       y       z     vdW  Elec       q    Type
REMARK                         _______ _______ _______ _____ _____    ______ ____
ROOT
ATOM      1  C   UNL     1       0.710  -1.947  -1.215  0.00  0.00    -0.009 C 
ENDROOT
BRANCH   1   2
ATOM      2  C   UNL     1       1.520  -2.432  -2.389  0.00  0.00    -0.042 A 
ATOM      3  C   UNL     1       1.757  -1.590  -3.460  0.00  0.00    +0.018 A 
ATOM      4  C   UNL     1       2.501  -2.035  -4.538  0.00  0.00    +0.018 A 
ATOM      5  C   UNL     1       3.008  -3.323  -4.544  0.00  0.00    +0.016 A 
ATOM      6  C   UNL     1       2.772  -4.163  -3.473  0.00  0.00    +0.016 A 
ATOM      7  C   UNL     1       2.032  -3.716  -2.393  0.00  0.00    +0.020 A 
ATOM      8 BR   UNL     1       1.715  -4.865  -0.924  0.00  0.00    -0.050 Br
ATOM      9 BR   UNL     1       2.824  -0.885  -6.003  0.00  0.00    -0.050 Br
ENDBRANCH   1   2
BRANCH   1  10
ATOM     10  C   UNL     1      -0.700  -2.467  -1.328  0.00  0.00    -0.056 A 
ATOM     11  C   UNL     1      -1.602  -1.844  -2.171  0.00  0.00    +0.002 A 
ATOM     12  C   UNL     1      -2.895  -2.321  -2.275  0.00  0.00    +0.001 A 
ATOM     13  C   UNL     1      -3.287  -3.422  -1.536  0.00  0.00    +0.015 A 
ATOM     14  C   UNL     1      -2.385  -4.047  -0.694  0.00  0.00    +0.018 A 
ATOM     15  C   UNL     1      -1.090  -3.572  -0.594  0.00  0.00    +0.017 A 
ATOM     16 BR   UNL     1      -2.921  -5.552   0.317  0.00  0.00    -0.050 Br
ENDBRANCH   1  10
BRANCH   1  17
ATOM     17  N   UNL     1       0.690  -0.478  -1.207  0.00  0.00    +0.386 N 
ATOM     18  H   UNL     1       0.202  -0.144  -2.024  0.00  0.00    -0.085 HD
ATOM     19  H   UNL     1       1.636  -0.129  -1.214  0.00  0.00    -0.085 HD
BRANCH  17  21
ATOM     20  C   UNL     1      -0.019   1.526   0.010  0.00  0.00    -0.017 C 
ATOM     21  C   UNL     1       0.002  -0.004   0.002  0.00  0.00    -0.085 C 
ENDBRANCH  17  21
ENDBRANCH   1  17
TORSDOF 4
