REMARK  Name = ZINC01248710
REMARK  2 active torsions:
REMARK  status: ('A' for Active; 'I' for Inactive)
REMARK    1  A    between atoms: C_4  and  N_7
REMARK    2  A    between atoms: C_11  and  C_12
REMARK                            x       y       z     vdW  Elec       q    Type
REMARK                         _______ _______ _______ _____ _____    ______ ____
ROOT
ATOM      1  N   UNL     1      -0.258   6.327   0.039  0.00  0.00    -0.224 N 
ATOM      2  C   UNL     1       0.646   5.616   0.693  0.00  0.00    +0.263 C 
ATOM      3  O   UNL     1       1.557   6.147   1.302  0.00  0.00    -0.269 OA
ATOM      4  C   UNL     1       0.499   4.152   0.644  0.00  0.00    +0.080 C 
ATOM      5  C   UNL     1       1.272   3.182   1.211  0.00  0.00    +0.066 C 
ATOM      6  S   UNL     1      -0.974   3.995  -0.355  0.00  0.00    -0.061 S 
ATOM      7  C   UNL     1      -1.270   5.735  -0.628  0.00  0.00    +0.125 C 
ATOM      8  S   UNL     1      -2.531   6.473  -1.520  0.00  0.00    -0.027 S 
ENDROOT
BRANCH   1  12
ATOM      9  C   UNL     1       0.016  10.486   0.057  0.00  0.00    +0.000 A 
ATOM     10  C   UNL     1      -0.705   9.838   1.042  0.00  0.00    +0.002 A 
ATOM     11  C   UNL     1      -0.798   8.460   1.039  0.00  0.00    +0.024 A 
ATOM     12  C   UNL     1      -0.166   7.725   0.045  0.00  0.00    +0.043 A 
ATOM     13  C   UNL     1       0.562   8.378  -0.940  0.00  0.00    +0.024 A 
ATOM     14  C   UNL     1       0.646   9.757  -0.935  0.00  0.00    +0.002 A 
ENDBRANCH   1  12
BRANCH   5  15
ATOM     15  C   UNL     1       0.937   1.819   1.037  0.00  0.00    +0.129 A 
ATOM     16  C   UNL     1       1.627   0.740   1.552  0.00  0.00    +0.049 A 
ATOM     17  C   UNL     1       0.941  -0.410   1.129  0.00  0.00    +0.042 A 
ATOM     18  C   UNL     1      -0.114   0.002   0.392  0.00  0.00    +0.195 A 
ATOM     19  O   UNL     1      -0.114   1.342   0.338  0.00  0.00    -0.463 OA
ENDBRANCH   5  15
TORSDOF 2
