REMARK  Name = ZINC07094554
REMARK  8 active torsions:
REMARK  status: ('A' for Active; 'I' for Inactive)
REMARK    1  A    between atoms: C_1  and  C_2
REMARK    2  A    between atoms: C_4  and  N_24
REMARK    3  A    between atoms: C_6  and  S_8
REMARK    4  A    between atoms: S_8  and  C_9
REMARK    5  A    between atoms: C_9  and  C_10
REMARK    6  A    between atoms: N_12  and  C_13
REMARK    7  A    between atoms: C_13  and  C_14
REMARK    8  A    between atoms: N_16  and  C_17
REMARK                            x       y       z     vdW  Elec       q    Type
REMARK                         _______ _______ _______ _____ _____    ______ ____
ROOT
ATOM      1  C   UNL     1      -1.155  -0.695  -0.024  0.00  0.00    +0.224 C 
ATOM      2  O   UNL     1      -2.213  -0.103  -0.015  0.00  0.00    -0.275 OA
ATOM      3  N   UNL     1       0.003  -0.004  -0.021  0.00  0.00    -0.306 N 
ATOM      4  H   UNL     1       0.850  -0.478  -0.027  0.00  0.00    +0.149 HD
ENDROOT
BRANCH   1   5
ATOM      5  C   UNL     1      -1.134  -2.201  -0.037  0.00  0.00    +0.173 C 
BRANCH   5   6
ATOM      6  S   UNL     1      -2.832  -2.828  -0.038  0.00  0.00    -0.077 S 
BRANCH   6  12
ATOM      7  C   UNL     1      -4.518  -7.660  -0.076  0.00  0.00    +0.066 C 
ATOM      8  C   UNL     1      -3.345  -6.714  -0.070  0.00  0.00    +0.044 A 
ATOM      9  C   UNL     1      -2.053  -7.204  -0.078  0.00  0.00    +0.066 A 
ATOM     10  C   UNL     1      -0.995  -6.293  -0.073  0.00  0.00    +0.121 A 
ATOM     11  N   UNL     1      -1.264  -4.992  -0.061  0.00  0.00    -0.207 NA
ATOM     12  C   UNL     1      -2.517  -4.562  -0.054  0.00  0.00    +0.191 A 
ATOM     13  N   UNL     1      -3.541  -5.404  -0.053  0.00  0.00    -0.227 NA
BRANCH  10  14
ATOM     14  N   UNL     1       0.317  -6.739  -0.081  0.00  0.00    -0.343 N 
ATOM     15  H   UNL     1       1.047  -6.100  -0.077  0.00  0.00    +0.144 HD
ATOM     16  H   UNL     1       0.506  -7.691  -0.089  0.00  0.00    +0.144 HD
ENDBRANCH  10  14
ENDBRANCH   6  12
ENDBRANCH   5   6
ENDBRANCH   1   5
BRANCH   3  17
ATOM     17  C   UNL     1      -0.017   1.460  -0.008  0.00  0.00    +0.200 C 
BRANCH  17  18
ATOM     18  C   UNL     1       1.397   1.982  -0.007  0.00  0.00    +0.234 C 
ATOM     19  O   UNL     1       2.329   1.207  -0.016  0.00  0.00    -0.274 OA
ATOM     20  N   UNL     1       1.624   3.311   0.004  0.00  0.00    -0.283 N 
ATOM     21  H   UNL     1       0.881   3.931  -0.054  0.00  0.00    +0.155 HD
BRANCH  20  22
ATOM     22  C   UNL     1       2.934   3.795   0.100  0.00  0.00    +0.047 A 
ATOM     23  C   UNL     1       3.977   3.106  -0.505  0.00  0.00    +0.024 A 
ATOM     24  C   UNL     1       5.267   3.589  -0.412  0.00  0.00    +0.002 A 
ATOM     25  C   UNL     1       5.523   4.753   0.290  0.00  0.00    +0.001 A 
ATOM     26  C   UNL     1       4.488   5.439   0.898  0.00  0.00    +0.017 A 
ATOM     27  C   UNL     1       3.194   4.964   0.805  0.00  0.00    +0.039 A 
ATOM     28 BR   UNL     1       1.779   5.902   1.638  0.00  0.00    -0.048 Br
ENDBRANCH  20  22
ENDBRANCH  17  18
ENDBRANCH   3  17
TORSDOF 7
