REMARK  Name = ZINC01028273
REMARK  5 active torsions:
REMARK  status: ('A' for Active; 'I' for Inactive)
REMARK    1  A    between atoms: C_3  and  C_10
REMARK    2  A    between atoms: C_5  and  N_7
REMARK    3  A    between atoms: N_12  and  C_13
REMARK    4  A    between atoms: C_13  and  N_15
REMARK    5  A    between atoms: N_15  and  C_16
REMARK                            x       y       z     vdW  Elec       q    Type
REMARK                         _______ _______ _______ _____ _____    ______ ____
ROOT
ATOM      1  C   UNL     1      -5.988   2.517   2.494  0.00  0.00    +0.250 C 
ATOM      2  O   UNL     1      -6.491   2.032   3.488  0.00  0.00    -0.270 OA
ATOM      3  N   UNL     1      -6.636   2.458   1.313  0.00  0.00    -0.264 N 
ATOM      4  H   UNL     1      -6.234   2.846   0.520  0.00  0.00    +0.157 HD
ENDROOT
BRANCH   1   7
ATOM      5  C   UNL     1      -2.852   4.343   1.527  0.00  0.00    +0.003 A 
ATOM      6  C   UNL     1      -4.086   3.732   1.440  0.00  0.00    +0.013 A 
ATOM      7  C   UNL     1      -4.666   3.173   2.579  0.00  0.00    +0.039 A 
ATOM      8  C   UNL     1      -3.993   3.236   3.801  0.00  0.00    +0.045 A 
ATOM      9  C   UNL     1      -2.760   3.850   3.874  0.00  0.00    +0.127 A 
ATOM     10  C   UNL     1      -2.192   4.407   2.741  0.00  0.00    +0.033 A 
BRANCH   9  11
ATOM     11  N   UNL     1      -2.045   3.918   5.168  0.00  0.00    +0.056 N 
ATOM     12  O   UNL     1      -2.545   3.433   6.167  0.00  0.00    -0.126 OA
ATOM     13  O   UNL     1      -0.953   4.455   5.233  0.00  0.00    -0.126 OA
ENDBRANCH   9  11
ENDBRANCH   1   7
BRANCH   3  14
ATOM     14  C   UNL     1      -7.841   1.860   1.235  0.00  0.00    +0.141 C 
ATOM     15  S   UNL     1      -8.550   1.176   2.635  0.00  0.00    -0.018 S 
BRANCH  14  16
ATOM     16  N   UNL     1      -8.488   1.801   0.054  0.00  0.00    -0.294 N 
ATOM     17  H   UNL     1      -8.120   2.248  -0.724  0.00  0.00    +0.154 HD
BRANCH  16  18
ATOM     18  C   UNL     1      -9.692   1.094  -0.049  0.00  0.00    +0.070 A 
ATOM     19  C   UNL     1      -9.681  -0.257  -0.374  0.00  0.00    +0.064 A 
ATOM     20  C   UNL     1     -10.871  -0.953  -0.471  0.00  0.00    +0.022 A 
ATOM     21  C   UNL     1     -12.073  -0.304  -0.255  0.00  0.00    +0.003 A 
ATOM     22  C   UNL     1     -12.088   1.041   0.065  0.00  0.00    +0.022 A 
ATOM     23  C   UNL     1     -10.902   1.743   0.168  0.00  0.00    +0.064 A 
ATOM     24 CL   UNL     1     -10.922   3.432   0.567  0.00  0.00    -0.082 Cl
ATOM     25 CL   UNL     1      -8.173  -1.071  -0.652  0.00  0.00    -0.082 Cl
ENDBRANCH  16  18
ENDBRANCH  14  16
ENDBRANCH   3  14
TORSDOF 5
