REMARK  Name = ZINC33701460
REMARK  9 active torsions:
REMARK  status: ('A' for Active; 'I' for Inactive)
REMARK    1  A    between atoms: C_1  and  C_2
REMARK    2  A    between atoms: C_2  and  C_4
REMARK    3  A    between atoms: C_2  and  O_31
REMARK    4  A    between atoms: C_4  and  C_6
REMARK    5  A    between atoms: C_4  and  N_9
REMARK    6  A    between atoms: C_10  and  C_12
REMARK    7  A    between atoms: C_15  and  C_18
REMARK    8  A    between atoms: C_18  and  O_19
REMARK    9  A    between atoms: O_19  and  C_20
REMARK                            x       y       z     vdW  Elec       q    Type
REMARK                         _______ _______ _______ _____ _____    ______ ____
ROOT
ATOM      1  C   UNL     1      -2.489   1.372  -2.862  0.00  0.00    +0.037 A 
ATOM      2  C   UNL     1      -2.080   2.550  -3.489  0.00  0.00    +0.013 A 
ATOM      3  C   UNL     1      -2.748   2.999  -4.609  0.00  0.00    +0.008 A 
ATOM      4  C   UNL     1      -3.828   2.290  -5.105  0.00  0.00    -0.010 A 
ATOM      5  C   UNL     1      -4.242   1.125  -4.484  0.00  0.00    +0.008 A 
ATOM      6  C   UNL     1      -3.579   0.662  -3.367  0.00  0.00    +0.013 A 
ENDROOT
BRANCH   1   8
ATOM      7  N   UNL     1      -0.721   1.571  -1.179  0.00  0.00    -0.298 N 
ATOM      8  C   UNL     1      -1.773   0.883  -1.664  0.00  0.00    +0.245 C 
ATOM      9  O   UNL     1      -2.135  -0.141  -1.117  0.00  0.00    -0.270 OA
ATOM     10  H   UNL     1      -0.395   2.497  -1.674  0.00  0.00    +0.150 HD
BRANCH   7  11
ATOM     11  C   UNL     1      -0.013   1.086   0.008  0.00  0.00    +0.187 C 
BRANCH  11  12
ATOM     12  C   UNL     1      -0.718   1.572   1.248  0.00  0.00    +0.233 C 
ATOM     13  O   UNL     1      -1.714   2.256   1.150  0.00  0.00    -0.274 OA
ATOM     14  N   UNL     1      -0.242   1.246   2.466  0.00  0.00    -0.328 N 
ATOM     15  H   UNL     1      -0.756   1.601   3.371  0.00  0.00    +0.145 HD
ATOM     16  H   UNL     1       0.662   0.625   2.555  0.00  0.00    +0.145 HD
ENDBRANCH  11  12
BRANCH  11  18
ATOM     17  C   UNL     1       2.100   1.227  -1.319  0.00  0.00    +0.040 C 
ATOM     18  C   UNL     1       1.423   1.615  -0.003  0.00  0.00    +0.141 C 
BRANCH  18  19
ATOM     19  O   UNL     1       1.406   3.039   0.122  0.00  0.00    -0.390 OA
ATOM     20  H   UNL     1       0.957   3.508   1.010  0.00  0.00    +0.210 HD
ENDBRANCH  18  19
ENDBRANCH  11  18
ENDBRANCH   7  11
ENDBRANCH   1   8
BRANCH   4  21
ATOM     21  C   UNL     1      -4.557   2.789  -6.326  0.00  0.00    +0.264 C 
BRANCH  21  22
ATOM     22  O   UNL     1      -5.617   3.660  -5.926  0.00  0.00    -0.485 OA
BRANCH  22  23
ATOM     23  C   UNL     1      -6.378   4.200  -6.913  0.00  0.00    +0.147 A 
ATOM     24  C   UNL     1      -6.116   3.905  -8.221  0.00  0.00    +0.049 A 
ATOM     25  C   UNL     1      -6.884   4.447  -9.247  0.00  0.00    +0.024 A 
ATOM     26  C   UNL     1      -7.920   5.290  -8.975  0.00  0.00    +0.050 A 
ATOM     27  C   UNL     1      -8.220   5.618  -7.642  0.00  0.00    +0.022 A 
ATOM     28  C   UNL     1      -7.445   5.064  -6.593  0.00  0.00    +0.114 A 
ATOM     29  N   UNL     1      -7.722   5.377  -5.324  0.00  0.00    -0.251 NA
ATOM     30  C   UNL     1      -8.710   6.183  -5.021  0.00  0.00    +0.111 A 
ATOM     31  C   UNL     1      -9.515   6.757  -6.003  0.00  0.00    +0.020 A 
ATOM     32  C   UNL     1      -9.282   6.484  -7.321  0.00  0.00    +0.013 A 
ATOM     33 CL   UNL     1      -8.866   5.956 -10.270  0.00  0.00    -0.083 Cl
ENDBRANCH  22  23
ENDBRANCH  21  22
ENDBRANCH   4  21
TORSDOF 8
