REMARK  Name = ZINC64098324
REMARK  11 active torsions:
REMARK  status: ('A' for Active; 'I' for Inactive)
REMARK    1  A    between atoms: C_1  and  C_2
REMARK    2  A    between atoms: C_2  and  C_4
REMARK    3  A    between atoms: C_2  and  N_12
REMARK    4  A    between atoms: C_4  and  C_5
REMARK    5  A    between atoms: C_13  and  C_15
REMARK    6  A    between atoms: C_15  and  C_17
REMARK    7  A    between atoms: C_15  and  N_27
REMARK    8  A    between atoms: C_17  and  C_18
REMARK    9  A    between atoms: C_28  and  C_30
REMARK   10  A    between atoms: C_30  and  C_31
REMARK   11  A    between atoms: C_30  and  C_32
REMARK                            x       y       z     vdW  Elec       q    Type
REMARK                         _______ _______ _______ _____ _____    ______ ____
ROOT
ATOM      1  C   UNL     1      -3.465  -1.164  -1.134  0.00  0.00    +0.163 C 
ENDROOT
BRANCH   1   3
ATOM      2  N   UNL     1      -1.372  -0.511   0.012  0.00  0.00    -0.311 N 
ATOM      3  C   UNL     1      -2.051  -0.643  -1.145  0.00  0.00    +0.234 C 
ATOM      4  O   UNL     1      -1.524  -0.341  -2.194  0.00  0.00    -0.274 OA
ATOM      5  H   UNL     1      -1.794  -0.752   0.852  0.00  0.00    +0.149 HD
BRANCH   2   7
ATOM      6  C   UNL     1      -0.019   1.526   0.010  0.00  0.00    +0.028 C 
ATOM      7  C   UNL     1       0.002  -0.004   0.002  0.00  0.00    +0.074 C 
BRANCH   7   8
ATOM      8  C   UNL     1       0.742  -0.511   1.242  0.00  0.00    +0.057 C 
BRANCH   8   9
ATOM      9  C   UNL     1       0.870  -2.011   1.172  0.00  0.00    -0.044 A 
ATOM     10  C   UNL     1      -0.118  -2.814   1.711  0.00  0.00    +0.004 A 
ATOM     11  C   UNL     1      -0.001  -4.190   1.647  0.00  0.00    +0.002 A 
ATOM     12  C   UNL     1       1.103  -4.764   1.045  0.00  0.00    +0.020 A 
ATOM     13  C   UNL     1       2.092  -3.960   0.506  0.00  0.00    +0.041 A 
ATOM     14  C   UNL     1       1.972  -2.583   0.565  0.00  0.00    +0.023 A 
ATOM     15 CL   UNL     1       3.479  -4.679  -0.250  0.00  0.00    -0.084 Cl
ENDBRANCH   8   9
ENDBRANCH   7   8
ENDBRANCH   2   7
ENDBRANCH   1   3
BRANCH   1  16
ATOM     16  N   UNL     1      -4.137  -0.779  -2.377  0.00  0.00    -0.303 N 
ATOM     17  C   UNL     1      -3.647  -1.190  -3.564  0.00  0.00    +0.216 C 
ATOM     18  O   UNL     1      -2.650  -1.880  -3.602  0.00  0.00    -0.276 OA
ATOM     19  H   UNL     1      -4.934  -0.228  -2.347  0.00  0.00    +0.149 HD
BRANCH  17  20
ATOM     20  C   UNL     1      -4.338  -0.794  -4.843  0.00  0.00    +0.069 C 
ATOM     21  C   UNL     1      -4.358   0.731  -4.960  0.00  0.00    +0.017 C 
ATOM     22  C   UNL     1      -3.585  -1.387  -6.035  0.00  0.00    +0.017 C 
ENDBRANCH  17  20
ENDBRANCH   1  16
BRANCH   1  23
ATOM     23  C   UNL     1      -3.445  -2.690  -1.017  0.00  0.00    +0.065 C 
BRANCH  23  24
ATOM     24  C   UNL     1      -4.856  -3.202  -0.882  0.00  0.00    -0.039 C 
ATOM     25  C   UNL     1      -5.654  -3.655  -1.875  0.00  0.00    -0.001 A 
ATOM     26  C   UNL     1      -5.456  -3.800  -3.323  0.00  0.00    +0.010 A 
ATOM     27  C   UNL     1      -6.464  -4.295  -4.076  0.00  0.00    +0.001 A 
ATOM     28  C   UNL     1      -7.691  -4.671  -3.511  0.00  0.00    +0.002 A 
ATOM     29  C   UNL     1      -7.947  -4.568  -2.190  0.00  0.00    +0.026 A 
ATOM     30  C   UNL     1      -6.958  -4.060  -1.304  0.00  0.00    +0.043 A 
ATOM     31  N   UNL     1      -6.965  -3.865  -0.007  0.00  0.00    -0.380 N 
ATOM     32  C   UNL     1      -5.663  -3.319   0.391  0.00  0.00    +0.144 C 
ATOM     33  H   UNL     1      -7.706  -4.054   0.590  0.00  0.00    +0.160 HD
ENDBRANCH  23  24
ENDBRANCH   1  23
TORSDOF 8
