REMARK  Name = ZINC12978102
REMARK  5 active torsions:
REMARK  status: ('A' for Active; 'I' for Inactive)
REMARK    1  A    between atoms: C_1  and  C_2
REMARK    2  A    between atoms: C_2  and  C_21
REMARK    3  A    between atoms: N_5  and  C_9
REMARK    4  A    between atoms: C_9  and  C_10
REMARK    5  A    between atoms: C_13  and  C_15
REMARK                            x       y       z     vdW  Elec       q    Type
REMARK                         _______ _______ _______ _____ _____    ______ ____
ROOT
ATOM      1  C   UNL     1       7.291   1.192  -4.620  0.00  0.00    +0.047 C 
ATOM      2  C   UNL     1       8.339   0.982  -3.525  0.00  0.00    +0.135 C 
ATOM      3  C   UNL     1       7.759   1.305  -2.162  0.00  0.00    +0.251 C 
ATOM      4  O   UNL     1       7.324   2.373  -1.787  0.00  0.00    -0.272 OA
ATOM      5  N   UNL     1       7.830   0.160  -1.455  0.00  0.00    -0.215 N 
ATOM      6  C   UNL     1       8.372  -0.830  -2.173  0.00  0.00    +0.310 C 
ATOM      7  O   UNL     1       8.544  -1.956  -1.748  0.00  0.00    -0.252 OA
ATOM      8  N   UNL     1       8.703  -0.442  -3.417  0.00  0.00    -0.281 N 
ATOM      9  H   UNL     1       9.105  -0.991  -4.108  0.00  0.00    +0.152 HD
ENDROOT
BRANCH   2  10
ATOM     10  C   UNL     1       9.560   1.822  -3.795  0.00  0.00    -0.012 A 
ATOM     11  C   UNL     1       9.664   3.086  -3.243  0.00  0.00    +0.010 A 
ATOM     12  C   UNL     1      10.784   3.859  -3.484  0.00  0.00    +0.050 A 
ATOM     13  C   UNL     1      11.803   3.372  -4.288  0.00  0.00    +0.166 A 
ATOM     14  C   UNL     1      11.696   2.101  -4.847  0.00  0.00    +0.167 A 
ATOM     15  C   UNL     1      10.573   1.330  -4.598  0.00  0.00    +0.055 A 
ATOM     16  O   UNL     1      12.815   1.857  -5.590  0.00  0.00    -0.453 OA
ATOM     17  C   UNL     1      13.788   2.822  -5.149  0.00  0.00    +0.466 C 
ATOM     18  O   UNL     1      12.988   3.924  -4.679  0.00  0.00    -0.453 OA
ENDBRANCH   2  10
BRANCH   5  19
ATOM     19  C   UNL     1       7.374   0.019  -0.070  0.00  0.00    +0.215 C 
BRANCH  19  20
ATOM     20  C   UNL     1       5.925  -0.394  -0.058  0.00  0.00    +0.235 A 
ATOM     21  N   UNL     1       5.474  -1.617  -0.060  0.00  0.00    -0.110 NA
ATOM     22  N   UNL     1       4.188  -1.602  -0.042  0.00  0.00    -0.107 NA
ATOM     23  C   UNL     1       3.769  -0.355  -0.036  0.00  0.00    +0.255 A 
ATOM     24  O   UNL     1       4.864   0.433  -0.042  0.00  0.00    -0.418 OA
BRANCH  23  25
ATOM     25  C   UNL     1       2.369   0.095  -0.020  0.00  0.00    +0.077 A 
ATOM     26  C   UNL     1       1.211  -0.660  -0.013  0.00  0.00    +0.022 A 
ATOM     27  C   UNL     1       0.002  -0.004   0.002  0.00  0.00    +0.024 A 
ATOM     28  C   UNL     1      -0.016   1.355   0.009  0.00  0.00    +0.056 A 
ATOM     29  S   UNL     1       1.722   1.759  -0.005  0.00  0.00    -0.077 S 
ATOM     30 BR   UNL     1      -1.505   2.522   0.023  0.00  0.00    -0.043 Br
ENDBRANCH  23  25
ENDBRANCH  19  20
ENDBRANCH   5  19
TORSDOF 4
