REMARK  Name = ZINC67105941
REMARK  5 active torsions:
REMARK  status: ('A' for Active; 'I' for Inactive)
REMARK    1  A    between atoms: C_4  and  C_7
REMARK    2  A    between atoms: C_7  and  C_9
REMARK    3  A    between atoms: C_7  and  O_28
REMARK    4  A    between atoms: C_9  and  N_10
REMARK    5  A    between atoms: C_11  and  C_13
REMARK                            x       y       z     vdW  Elec       q    Type
REMARK                         _______ _______ _______ _____ _____    ______ ____
ROOT
ATOM      1  C   UNL     1       7.200  -2.921  -2.685  0.00  0.00    +0.078 C 
ATOM      2  C   UNL     1       8.289  -2.033  -2.081  0.00  0.00    +0.032 C 
ATOM      3  C   UNL     1       9.617  -2.796  -2.068  0.00  0.00    +0.108 C 
ATOM      4  N   UNL     1       9.906  -3.264  -3.431  0.00  0.00    -0.310 N 
ATOM      5  C   UNL     1       8.888  -4.051  -4.139  0.00  0.00    +0.108 C 
ATOM      6  C   UNL     1       7.568  -3.273  -4.128  0.00  0.00    +0.032 C 
ATOM      7  C   UNL     1      11.112  -2.968  -4.034  0.00  0.00    +0.162 A 
ATOM      8  N   UNL     1      12.129  -2.289  -3.554  0.00  0.00    -0.225 NA
ATOM      9  C   UNL     1      13.259  -2.076  -4.264  0.00  0.00    +0.080 A 
ATOM     10  C   UNL     1      14.417  -1.368  -3.869  0.00  0.00    +0.029 A 
ATOM     11  C   UNL     1      15.485  -1.244  -4.719  0.00  0.00    +0.002 A 
ATOM     12  C   UNL     1      15.471  -1.803  -5.989  0.00  0.00    +0.001 A 
ATOM     13  C   UNL     1      14.354  -2.502  -6.408  0.00  0.00    +0.017 A 
ATOM     14  C   UNL     1      13.280  -2.632  -5.564  0.00  0.00    +0.041 A 
ATOM     15  S   UNL     1      11.690  -3.419  -5.664  0.00  0.00    -0.052 S 
ENDROOT
BRANCH   1  17
ATOM     16  N   UNL     1       5.358  -1.774  -1.497  0.00  0.00    -0.312 N 
ATOM     17  C   UNL     1       5.885  -2.186  -2.668  0.00  0.00    +0.216 C 
ATOM     18  O   UNL     1       5.300  -1.964  -3.707  0.00  0.00    -0.276 OA
ATOM     19  H   UNL     1       5.826  -1.951  -0.666  0.00  0.00    +0.149 HD
BRANCH  16  20
ATOM     20  C   UNL     1       4.080  -1.059  -1.480  0.00  0.00    +0.140 C 
BRANCH  20  21
ATOM     21  C   UNL     1       3.711  -0.707  -0.038  0.00  0.00    +0.162 C 
BRANCH  21  25
ATOM     22  C   UNL     1      -0.017   1.378   0.010  0.00  0.00    +0.000 A 
ATOM     23  C   UNL     1       1.171   2.086   0.002  0.00  0.00    +0.000 A 
ATOM     24  C   UNL     1       2.377   1.411  -0.013  0.00  0.00    +0.006 A 
ATOM     25  C   UNL     1       2.396   0.029  -0.020  0.00  0.00    -0.018 A 
ATOM     26  C   UNL     1       1.208  -0.679  -0.012  0.00  0.00    +0.006 A 
ATOM     27  C   UNL     1       0.002  -0.004   0.002  0.00  0.00    +0.000 A 
ENDBRANCH  21  25
BRANCH  21  28
ATOM     28  O   UNL     1       3.596  -1.907   0.731  0.00  0.00    -0.386 OA
ATOM     29  H   UNL     1       2.922  -2.519   0.405  0.00  0.00    +0.210 HD
ENDBRANCH  21  28
ENDBRANCH  20  21
ENDBRANCH  16  20
ENDBRANCH   1  17
TORSDOF 5
