REMARK  Name = ZINC39710254
REMARK  12 active torsions:
REMARK  status: ('A' for Active; 'I' for Inactive)
REMARK    1  A    between atoms: C_1  and  C_2
REMARK    2  A    between atoms: C_9  and  C_14
REMARK    3  A    between atoms: C_14  and  C_16
REMARK    4  A    between atoms: C_14  and  N_26
REMARK    5  A    between atoms: N_21  and  C_22
REMARK    6  A    between atoms: C_22  and  C_23
REMARK    7  A    between atoms: C_22  and  C_24
REMARK    8  A    between atoms: C_22  and  C_25
REMARK    9  A    between atoms: N_26  and  C_27
REMARK   10  A    between atoms: N_26  and  C_34
REMARK   11  A    between atoms: C_27  and  C_28
REMARK   12  A    between atoms: C_34  and  C_35
REMARK                            x       y       z     vdW  Elec       q    Type
REMARK                         _______ _______ _______ _____ _____    ______ ____
ROOT
ATOM      1  C   UNL     1      -0.607  -5.768   2.834  0.00  0.00    -0.009 C 
ENDROOT
BRANCH   1  10
ATOM      2  C   UNL     1       3.959  -0.787   0.522  0.00  0.00    +0.044 C 
ATOM      3  C   UNL     1       3.243  -2.109   0.418  0.00  0.00    -0.050 A 
ATOM      4  C   UNL     1       3.108  -2.716  -0.831  0.00  0.00    +0.005 A 
ATOM      5  C   UNL     1       2.476  -3.906  -1.003  0.00  0.00    +0.024 A 
ATOM      6  C   UNL     1       1.921  -4.586   0.097  0.00  0.00    +0.040 A 
ATOM      7  N   UNL     1       1.303  -5.753  -0.084  0.00  0.00    -0.285 N 
ATOM      8  C   UNL     1       0.760  -6.443   0.904  0.00  0.00    +0.223 C 
ATOM      9  O   UNL     1       0.209  -7.504   0.678  0.00  0.00    -0.275 OA
ATOM     10  C   UNL     1       0.826  -5.909   2.317  0.00  0.00    +0.088 C 
ATOM     11  C   UNL     1       1.528  -4.582   2.528  0.00  0.00    -0.006 C 
ATOM     12  C   UNL     1       2.048  -3.968   1.428  0.00  0.00    -0.007 A 
ATOM     13  C   UNL     1       2.746  -2.687   1.542  0.00  0.00    +0.012 A 
ATOM     14  H   UNL     1       1.250  -6.113  -0.983  0.00  0.00    +0.155 HD
ENDBRANCH   1  10
BRANCH   1  15
ATOM     15  C   UNL     1      -1.406  -4.873   1.884  0.00  0.00    +0.205 C 
ATOM     16  N   UNL     1      -1.464  -5.471   0.543  0.00  0.00    -0.152 NA
ATOM     17  N   UNL     1      -0.926  -4.704  -0.258  0.00  0.00    -0.070 NA
ATOM     18  N   UNL     1      -0.444  -3.541   0.343  0.00  0.00    -0.179 N 
ATOM     19  N   UNL     1      -0.714  -3.582   1.688  0.00  0.00    -0.183 NA
ATOM     20  H   UNL     1       0.010  -2.818  -0.117  0.00  0.00    +0.191 HD
BRANCH  19  21
ATOM     21  C   UNL     1      -1.571  -2.459   2.090  0.00  0.00    +0.035 C 
ATOM     22  C   UNL     1      -2.024  -2.655   3.538  0.00  0.00    +0.029 C 
ATOM     23  C   UNL     1      -0.786  -1.151   1.973  0.00  0.00    +0.029 C 
ATOM     24  C   UNL     1      -2.797  -2.401   1.176  0.00  0.00    +0.029 C 
ENDBRANCH  19  21
ENDBRANCH   1  15
BRANCH   1  25
ATOM     25  N   UNL     1      -1.236  -7.094   2.901  0.00  0.00    +0.390 N 
ATOM     26  H   UNL     1      -1.319  -7.475   1.971  0.00  0.00    -0.080 HD
BRANCH  25  27
ATOM     27  C   UNL     1      -2.571  -6.973   3.502  0.00  0.00    -0.042 C 
BRANCH  27  28
ATOM     28  C   UNL     1      -3.583  -6.683   2.424  0.00  0.00    -0.064 A 
ATOM     29  C   UNL     1      -4.266  -5.482   2.422  0.00  0.00    +0.002 A 
ATOM     30  C   UNL     1      -5.194  -5.216   1.433  0.00  0.00    +0.000 A 
ATOM     31  C   UNL     1      -5.439  -6.151   0.445  0.00  0.00    +0.000 A 
ATOM     32  C   UNL     1      -4.755  -7.352   0.446  0.00  0.00    +0.000 A 
ATOM     33  C   UNL     1      -3.823  -7.617   1.433  0.00  0.00    +0.002 A 
ENDBRANCH  27  28
ENDBRANCH  25  27
BRANCH  25  34
ATOM     34  C   UNL     1      -0.408  -7.987   3.723  0.00  0.00    -0.040 C 
BRANCH  34  35
ATOM     35  C   UNL     1      -1.087  -9.326   3.850  0.00  0.00    -0.046 A 
ATOM     36  C   UNL     1      -1.804  -9.633   4.992  0.00  0.00    +0.003 A 
ATOM     37  C   UNL     1      -2.427 -10.861   5.109  0.00  0.00    +0.000 A 
ATOM     38  C   UNL     1      -2.334 -11.784   4.083  0.00  0.00    +0.001 A 
ATOM     39  C   UNL     1      -1.618 -11.479   2.942  0.00  0.00    +0.020 A 
ATOM     40  C   UNL     1      -0.999 -10.247   2.822  0.00  0.00    +0.042 A 
ATOM     41 CL   UNL     1      -0.104  -9.861   1.385  0.00  0.00    -0.083 Cl
ENDBRANCH  34  35
ENDBRANCH  25  34
ENDBRANCH   1  25
TORSDOF 8
