REMARK  Name = ZINC18326297
REMARK  5 active torsions:
REMARK  status: ('A' for Active; 'I' for Inactive)
REMARK    1  A    between atoms: C_1  and  C_2
REMARK    2  A    between atoms: C_2  and  C_4
REMARK    3  A    between atoms: C_2  and  S_20
REMARK    4  A    between atoms: C_10  and  C_15
REMARK    5  A    between atoms: S_20  and  C_21
REMARK                            x       y       z     vdW  Elec       q    Type
REMARK                         _______ _______ _______ _____ _____    ______ ____
ROOT
ATOM      1  C   UNL     1      -0.749   3.086   1.275  0.00  0.00    +0.124 A 
ATOM      2  N   UNL     1       0.217   3.763   1.948  0.00  0.00    -0.309 N 
ATOM      3  H   UNL     1       0.908   3.267   2.414  0.00  0.00    +0.170 HD
ATOM      4  C   UNL     1       0.234   5.108   1.980  0.00  0.00    +0.260 A 
ATOM      5  O   UNL     1       1.109   5.701   2.588  0.00  0.00    -0.267 OA
ATOM      6  C   UNL     1      -0.788   5.832   1.289  0.00  0.00    +0.083 A 
ATOM      7  C   UNL     1      -0.983   7.274   1.176  0.00  0.00    +0.039 A 
ATOM      8  C   UNL     1      -2.039   7.734   0.458  0.00  0.00    +0.059 A 
ATOM      9  S   UNL     1      -2.834   6.242  -0.109  0.00  0.00    -0.076 S 
ATOM     10  C   UNL     1      -1.744   5.048   0.622  0.00  0.00    +0.116 A 
ATOM     11  N   UNL     1      -1.693   3.719   0.631  0.00  0.00    -0.225 NA
ENDROOT
BRANCH   7  12
ATOM     12  C   UNL     1      -0.050   8.213   1.831  0.00  0.00    +0.136 A 
ATOM     13  C   UNL     1       0.561   9.274   1.238  0.00  0.00    +0.050 A 
ATOM     14  C   UNL     1       1.355   9.890   2.227  0.00  0.00    +0.042 A 
ATOM     15  C   UNL     1       1.197   9.178   3.359  0.00  0.00    +0.196 A 
ATOM     16  O   UNL     1       0.347   8.165   3.116  0.00  0.00    -0.463 OA
ENDBRANCH   7  12
BRANCH   1  18
ATOM     17  C   UNL     1      -0.013   1.086   0.008  0.00  0.00    +0.027 C 
ATOM     18  C   UNL     1      -0.729   1.579   1.267  0.00  0.00    +0.117 C 
BRANCH  18  19
ATOM     19  S   UNL     1      -2.431   0.951   1.280  0.00  0.00    -0.075 S 
BRANCH  19  20
ATOM     20  C   UNL     1      -2.240  -0.795   1.417  0.00  0.00    +0.197 A 
ATOM     21  N   UNL     1      -1.103  -1.451   1.486  0.00  0.00    -0.122 NA
ATOM     22  N   UNL     1      -1.323  -2.715   1.584  0.00  0.00    -0.127 NA
ATOM     23  C   UNL     1      -2.623  -2.942   1.574  0.00  0.00    +0.180 A 
ATOM     24  N   UNL     1      -3.244  -1.716   1.467  0.00  0.00    -0.275 N 
ATOM     25  C   UNL     1      -4.609  -1.631   1.433  0.00  0.00    +0.115 A 
ATOM     26  C   UNL     1      -5.365  -2.745   1.502  0.00  0.00    +0.059 A 
ATOM     27  C   UNL     1      -4.760  -4.012   1.612  0.00  0.00    +0.045 A 
ATOM     28  C   UNL     1      -3.405  -4.114   1.648  0.00  0.00    +0.087 A 
ATOM     29 CL   UNL     1      -2.644  -5.669   1.783  0.00  0.00    -0.080 Cl
ATOM     30 CL   UNL     1      -7.096  -2.617   1.457  0.00  0.00    -0.082 Cl
ENDBRANCH  19  20
ENDBRANCH  18  19
ENDBRANCH   1  18
TORSDOF 4
