REMARK  Name = ZINC45009421
REMARK  3 active torsions:
REMARK  status: ('A' for Active; 'I' for Inactive)
REMARK    1  A    between atoms: C_5  and  S_8
REMARK    2  A    between atoms: S_8  and  C_9
REMARK    3  A    between atoms: C_9  and  C_10
REMARK                            x       y       z     vdW  Elec       q    Type
REMARK                         _______ _______ _______ _____ _____    ______ ____
ROOT
ATOM      1  C   UNL     1       3.222  -4.318  -0.053  0.00  0.00    +0.146 A 
ATOM      2  N   UNL     1       3.306  -4.979   1.087  0.00  0.00    -0.199 NA
ATOM      3  C   UNL     1       3.465  -6.301   1.082  0.00  0.00    +0.217 A 
ATOM      4  N   UNL     1       3.538  -6.955  -0.072  0.00  0.00    -0.181 NA
ATOM      5  C   UNL     1       3.453  -6.287  -1.217  0.00  0.00    +0.217 A 
ATOM      6  N   UNL     1       3.289  -4.966  -1.203  0.00  0.00    -0.199 NA
ATOM      7  N   UNL     1       3.529  -6.961  -2.418  0.00  0.00    -0.327 N 
ATOM      8  N   UNL     1       3.553  -6.991   2.274  0.00  0.00    -0.327 N 
ATOM      9  H   UNL     1       3.644  -7.925  -2.427  0.00  0.00    +0.145 HD
ATOM     10  H   UNL     1       3.466  -6.473  -3.253  0.00  0.00    +0.145 HD
ATOM     11  H   UNL     1       3.500  -6.512   3.117  0.00  0.00    +0.145 HD
ATOM     12  H   UNL     1       3.669  -7.954   2.270  0.00  0.00    +0.145 HD
ENDROOT
BRANCH   1  13
ATOM     13  C   UNL     1       3.041  -2.822  -0.043  0.00  0.00    +0.152 C 
BRANCH  13  14
ATOM     14  S   UNL     1       1.271  -2.426  -0.024  0.00  0.00    -0.097 S 
BRANCH  14  19
ATOM     15  C   UNL     1      -0.017   1.379   0.010  0.00  0.00    +0.044 A 
ATOM     16  C   UNL     1       1.196   2.059   0.002  0.00  0.00    +0.060 A 
ATOM     17  C   UNL     1       2.375   1.339  -0.013  0.00  0.00    +0.132 A 
ATOM     18  N   UNL     1       2.362   0.019  -0.020  0.00  0.00    -0.246 NA
ATOM     19  C   UNL     1       1.228  -0.664  -0.013  0.00  0.00    +0.116 A 
ATOM     20  C   UNL     1       0.002  -0.004   0.002  0.00  0.00    +0.074 A 
ATOM     21 CL   UNL     1      -1.482  -0.904   0.012  0.00  0.00    -0.081 Cl
ATOM     22 CL   UNL     1       1.228   3.795   0.010  0.00  0.00    -0.082 Cl
ENDBRANCH  14  19
ENDBRANCH  13  14
ENDBRANCH   1  13
TORSDOF 3
