REMARK  Name = ZINC24965753
REMARK  12 active torsions:
REMARK  status: ('A' for Active; 'I' for Inactive)
REMARK    1  A    between atoms: C_1  and  C_2
REMARK    2  A    between atoms: C_5  and  N_8
REMARK    3  A    between atoms: C_9  and  C_11
REMARK    4  A    between atoms: C_11  and  S_12
REMARK    5  A    between atoms: S_12  and  C_13
REMARK    6  A    between atoms: C_13  and  C_15
REMARK    7  A    between atoms: C_13  and  C_16
REMARK    8  A    between atoms: N_18  and  C_19
REMARK    9  A    between atoms: C_19  and  C_21
REMARK   10  A    between atoms: C_19  and  C_28
REMARK   11  A    between atoms: C_28  and  C_29
REMARK   12  A    between atoms: C_28  and  C_30
REMARK                            x       y       z     vdW  Elec       q    Type
REMARK                         _______ _______ _______ _____ _____    ______ ____
ROOT
ATOM      1  C   UNL     1       3.985  -6.616  -0.534  0.00  0.00    +0.129 C 
ATOM      2  C   UNL     1       3.264  -6.970  -1.837  0.00  0.00    +0.029 C 
ENDROOT
BRANCH   1   3
ATOM      3  C   UNL     1       5.357  -7.239  -0.534  0.00  0.00    +0.226 C 
ATOM      4  O   UNL     1       6.328  -6.568  -0.814  0.00  0.00    -0.275 OA
ATOM      5  N   UNL     1       5.506  -8.542  -0.224  0.00  0.00    -0.307 N 
ATOM      6  H   UNL     1       4.626  -9.151   0.030  0.00  0.00    +0.149 HD
BRANCH   5   7
ATOM      7  C   UNL     1       6.840  -9.148  -0.224  0.00  0.00    +0.106 C 
BRANCH   7   8
ATOM      8  C   UNL     1       6.851 -10.340   0.697  0.00  0.00    -0.027 A 
ATOM      9  C   UNL     1       5.763 -11.192   0.737  0.00  0.00    +0.007 A 
ATOM     10  C   UNL     1       5.775 -12.289   1.578  0.00  0.00    +0.020 A 
ATOM     11  C   UNL     1       6.870 -12.528   2.388  0.00  0.00    +0.041 A 
ATOM     12  C   UNL     1       7.956 -11.671   2.353  0.00  0.00    +0.020 A 
ATOM     13  C   UNL     1       7.946 -10.578   1.507  0.00  0.00    +0.007 A 
ATOM     14 CL   UNL     1       6.882 -13.901   3.450  0.00  0.00    -0.084 Cl
ENDBRANCH   7   8
BRANCH   7  15
ATOM     15  C   UNL     1       7.196  -9.596  -1.643  0.00  0.00    +0.008 C 
ATOM     16  C   UNL     1       7.185  -8.386  -2.578  0.00  0.00    +0.009 C 
ATOM     17  C   UNL     1       8.589 -10.229  -1.643  0.00  0.00    +0.009 C 
ENDBRANCH   7  15
ENDBRANCH   5   7
ENDBRANCH   1   3
BRANCH   1  18
ATOM     18  S   UNL     1       4.139  -4.814  -0.398  0.00  0.00    -0.139 S 
BRANCH  18  19
ATOM     19  C   UNL     1       2.425  -4.236  -0.258  0.00  0.00    +0.165 C 
BRANCH  19  21
ATOM     20  N   UNL     1       1.237  -2.079  -0.020  0.00  0.00    -0.285 N 
ATOM     21  C   UNL     1       2.410  -2.734  -0.137  0.00  0.00    +0.227 C 
ATOM     22  O   UNL     1       3.452  -2.114  -0.144  0.00  0.00    -0.275 OA
ATOM     23  H   UNL     1       0.298  -2.645   0.073  0.00  0.00    +0.155 HD
BRANCH  20  28
ATOM     24  C   UNL     1       1.143   3.593  -0.015  0.00  0.00    +0.044 C 
ATOM     25  C   UNL     1       1.168   2.086  -0.017  0.00  0.00    -0.050 A 
ATOM     26  C   UNL     1       2.111   1.412  -0.771  0.00  0.00    +0.005 A 
ATOM     27  C   UNL     1       2.137   0.031  -0.774  0.00  0.00    +0.023 A 
ATOM     28  C   UNL     1       1.214  -0.680  -0.019  0.00  0.00    +0.033 A 
ATOM     29  C   UNL     1       0.268  -0.001   0.737  0.00  0.00    +0.023 A 
ATOM     30  C   UNL     1       0.248   1.380   0.736  0.00  0.00    +0.005 A 
ENDBRANCH  20  28
ENDBRANCH  19  21
ENDBRANCH  18  19
ENDBRANCH   1  18
TORSDOF 8
