REMARK  Name = ZINC40783161
REMARK  6 active torsions:
REMARK  status: ('A' for Active; 'I' for Inactive)
REMARK    1  A    between atoms: C_1  and  C_2
REMARK    2  A    between atoms: C_11  and  N_12
REMARK    3  A    between atoms: C_14  and  N_27
REMARK    4  A    between atoms: C_15  and  N_19
REMARK    5  A    between atoms: C_22  and  C_26
REMARK    6  A    between atoms: C_23  and  C_25
REMARK                            x       y       z     vdW  Elec       q    Type
REMARK                         _______ _______ _______ _____ _____    ______ ____
ROOT
ATOM      1  N   UNL     1       0.063  -4.885  -1.143  0.00  0.00    -0.297 N 
ATOM      2  C   UNL     1       0.187  -6.269  -1.087  0.00  0.00    +0.149 A 
ATOM      3  C   UNL     1       0.303  -7.018  -2.260  0.00  0.00    +0.106 A 
ATOM      4  C   UNL     1       0.425  -8.404  -2.147  0.00  0.00    +0.150 A 
ATOM      5  N   UNL     1       0.427  -8.954  -0.935  0.00  0.00    -0.219 NA
ATOM      6  C   UNL     1       0.316  -8.211   0.147  0.00  0.00    +0.225 A 
ATOM      7  N   UNL     1       0.204  -6.899   0.085  0.00  0.00    -0.219 NA
ATOM      8  H   UNL     1      -0.031  -4.441  -2.000  0.00  0.00    +0.154 HD
ENDROOT
BRANCH   1  19
ATOM      9  C   UNL     1      -2.361   0.940   0.385  0.00  0.00    +0.063 C 
ATOM     10  C   UNL     1      -1.715  -0.417   0.277  0.00  0.00    +0.013 A 
ATOM     11  C   UNL     1      -1.770  -1.100  -0.936  0.00  0.00    +0.021 A 
ATOM     12  C   UNL     1      -1.189  -2.332  -1.051  0.00  0.00    +0.013 A 
ATOM     13  C   UNL     1      -0.548  -2.872   0.076  0.00  0.00    +0.020 A 
ATOM     14  C   UNL     1      -0.528  -2.125   1.280  0.00  0.00    +0.048 A 
ATOM     15  N   UNL     1      -1.111  -0.922   1.325  0.00  0.00    -0.358 N 
ATOM     16  C   UNL     1       0.112  -2.661   2.410  0.00  0.00    +0.026 A 
ATOM     17  C   UNL     1       0.705  -3.886   2.341  0.00  0.00    +0.004 A 
ATOM     18  C   UNL     1       0.691  -4.627   1.165  0.00  0.00    +0.024 A 
ATOM     19  C   UNL     1       0.073  -4.137   0.032  0.00  0.00    +0.042 A 
ATOM     20  H   UNL     1      -1.090  -0.414   2.152  0.00  0.00    +0.166 HD
ENDBRANCH   1  19
BRANCH   4  21
ATOM     21  N   UNL     1       0.543  -9.198  -3.283  0.00  0.00    -0.277 N 
ATOM     22  C   UNL     1       0.664 -10.574  -3.158  0.00  0.00    +0.164 A 
ATOM     23  N   UNL     1       0.681 -11.297  -2.059  0.00  0.00    -0.230 NA
ATOM     24  C   UNL     1       0.804 -12.612  -2.109  0.00  0.00    +0.050 A 
ATOM     25  C   UNL     1       0.911 -13.174  -3.337  0.00  0.00    +0.011 A 
ATOM     26  S   UNL     1       0.818 -11.725  -4.376  0.00  0.00    -0.057 S 
ATOM     27  C   UNL     1       1.062 -14.624  -3.720  0.00  0.00    +0.053 C 
ATOM     28  C   UNL     1       0.825 -13.448  -0.856  0.00  0.00    +0.066 C 
ATOM     29  H   UNL     1       0.541  -8.789  -4.163  0.00  0.00    +0.156 HD
ENDBRANCH   4  21
BRANCH   3  30
ATOM     30  N   UNL     1       0.296  -6.395  -3.517  0.00  0.00    -0.353 N 
ATOM     31  H   UNL     1       0.210  -5.431  -3.580  0.00  0.00    +0.143 HD
ATOM     32  H   UNL     1       0.377  -6.929  -4.323  0.00  0.00    +0.143 HD
ENDBRANCH   3  30
TORSDOF 3
