REMARK  Name = ZINC20703350
REMARK  8 active torsions:
REMARK  status: ('A' for Active; 'I' for Inactive)
REMARK    1  A    between atoms: C_4  and  C_7
REMARK    2  A    between atoms: C_7  and  N_8
REMARK    3  A    between atoms: N_8  and  S_9
REMARK    4  A    between atoms: S_9  and  C_12
REMARK    5  A    between atoms: C_25  and  C_28
REMARK    6  A    between atoms: C_31  and  O_34
REMARK    7  A    between atoms: O_34  and  C_35
REMARK    8  A    between atoms: C_35  and  C_36
REMARK                            x       y       z     vdW  Elec       q    Type
REMARK                         _______ _______ _______ _____ _____    ______ ____
ROOT
ATOM      1  C   UNL     1       0.714  -2.900  -0.301  0.00  0.00    +0.106 A 
ATOM      2  C   UNL     1      -0.565  -2.385  -0.194  0.00  0.00    +0.030 A 
ATOM      3  C   UNL     1      -0.757  -1.022  -0.095  0.00  0.00    +0.025 A 
ATOM      4  C   UNL     1       0.331  -0.158  -0.102  0.00  0.00    +0.031 A 
ATOM      5  C   UNL     1       1.622  -0.687  -0.197  0.00  0.00    -0.018 A 
ATOM      6  C   UNL     1       1.804  -2.049  -0.303  0.00  0.00    +0.034 A 
ATOM      7  C   UNL     1       2.755   0.264  -0.159  0.00  0.00    +0.049 C 
ATOM      8  C   UNL     1       4.062  -0.046  -0.791  0.00  0.00    -0.023 C 
ATOM      9  C   UNL     1       4.610   1.088  -1.211  0.00  0.00    -0.030 C 
ATOM     10  C   UNL     1       3.676   2.262  -0.913  0.00  0.00    +0.033 C 
ATOM     11  C   UNL     1       2.307   1.568  -0.885  0.00  0.00    +0.029 C 
ATOM     12  C   UNL     1       1.238   2.179   0.002  0.00  0.00    +0.105 C 
ATOM     13  N   UNL     1       0.110   1.222  -0.017  0.00  0.00    -0.336 N 
ATOM     14  H   UNL     1      -0.925   1.591   0.036  0.00  0.00    +0.147 HD
ENDROOT
BRANCH  12  15
ATOM     15  C   UNL     1       1.758   2.343   1.407  0.00  0.00    -0.027 A 
ATOM     16  C   UNL     1       1.591   1.325   2.328  0.00  0.00    +0.009 A 
ATOM     17  C   UNL     1       2.072   1.471   3.615  0.00  0.00    +0.046 A 
ATOM     18  C   UNL     1       2.713   2.644   3.986  0.00  0.00    +0.121 A 
ATOM     19  C   UNL     1       2.874   3.666   3.061  0.00  0.00    +0.046 A 
ATOM     20  C   UNL     1       2.397   3.513   1.774  0.00  0.00    +0.009 A 
BRANCH  18  21
ATOM     21  O   UNL     1       3.182   2.791   5.253  0.00  0.00    -0.487 OA
BRANCH  21  22
ATOM     22  C   UNL     1       2.981   1.698   6.151  0.00  0.00    +0.264 C 
BRANCH  22  23
ATOM     23  C   UNL     1       3.563   2.041   7.498  0.00  0.00    -0.010 A 
ATOM     24  C   UNL     1       4.878   1.724   7.783  0.00  0.00    +0.007 A 
ATOM     25  C   UNL     1       5.413   2.043   9.017  0.00  0.00    +0.000 A 
ATOM     26  C   UNL     1       4.630   2.669   9.969  0.00  0.00    +0.000 A 
ATOM     27  C   UNL     1       3.314   2.981   9.686  0.00  0.00    +0.000 A 
ATOM     28  C   UNL     1       2.780   2.667   8.450  0.00  0.00    +0.007 A 
ENDBRANCH  22  23
ENDBRANCH  21  22
ENDBRANCH  18  21
ENDBRANCH  12  15
BRANCH   1  29
ATOM     29  S   UNL     1       0.954  -4.640  -0.436  0.00  0.00    +0.059 S 
ATOM     30  O   UNL     1       2.272  -4.905   0.025  0.00  0.00    -0.153 OA
ATOM     31  O   UNL     1      -0.191  -5.254   0.138  0.00  0.00    -0.153 OA
BRANCH  29  32
ATOM     32  N   UNL     1       0.933  -5.014  -2.050  0.00  0.00    -0.186 NA
ATOM     33  H   UNL     1       0.046  -5.505  -2.476  0.00  0.00    +0.148 HD
BRANCH  32  34
ATOM     34  C   UNL     1       1.982  -4.501  -2.934  0.00  0.00    +0.141 C 
BRANCH  34  38
ATOM     35  C   UNL     1       1.911  -6.650  -6.625  0.00  0.00    +0.000 A 
ATOM     36  C   UNL     1       1.152  -5.504  -6.478  0.00  0.00    +0.000 A 
ATOM     37  C   UNL     1       1.175  -4.808  -5.283  0.00  0.00    +0.005 A 
ATOM     38  C   UNL     1       1.957  -5.259  -4.236  0.00  0.00    -0.032 A 
ATOM     39  C   UNL     1       2.720  -6.402  -4.385  0.00  0.00    +0.005 A 
ATOM     40  C   UNL     1       2.693  -7.101  -5.578  0.00  0.00    +0.000 A 
ENDBRANCH  34  38
ENDBRANCH  32  34
ENDBRANCH  29  32
ENDBRANCH   1  29
TORSDOF 8
