REMARK  Name = ZINC01422465
REMARK  5 active torsions:
REMARK  status: ('A' for Active; 'I' for Inactive)
REMARK    1  A    between atoms: C_4  and  C_7
REMARK    2  A    between atoms: C_9  and  C_20
REMARK    3  A    between atoms: C_9  and  O_26
REMARK    4  A    between atoms: N_10  and  C_14
REMARK    5  A    between atoms: C_14  and  C_15
REMARK                            x       y       z     vdW  Elec       q    Type
REMARK                         _______ _______ _______ _____ _____    ______ ____
ROOT
ATOM      1  C   UNL     1       0.735   3.367   0.013  0.00  0.00    +0.263 C 
ATOM      2  C   UNL     1      -0.806   3.358   0.027  0.00  0.00    +0.207 C 
ATOM      3  N   UNL     1      -1.147   1.927   0.018  0.00  0.00    -0.227 N 
ATOM      4  C   UNL     1      -0.014   1.211   0.009  0.00  0.00    +0.406 C 
ATOM      5  O   UNL     1       0.002  -0.004   0.002  0.00  0.00    -0.226 OA
ATOM      6  O   UNL     1       1.097   1.956   0.002  0.00  0.00    -0.437 OA
ENDROOT
BRANCH   1  10
ATOM      7  C   UNL     1       2.196   5.314  -3.498  0.00  0.00    +0.000 A 
ATOM      8  C   UNL     1       2.228   5.968  -2.281  0.00  0.00    +0.000 A 
ATOM      9  C   UNL     1       1.755   5.338  -1.145  0.00  0.00    +0.007 A 
ATOM     10  C   UNL     1       1.250   4.054  -1.226  0.00  0.00    -0.002 A 
ATOM     11  C   UNL     1       1.223   3.398  -2.442  0.00  0.00    +0.007 A 
ATOM     12  C   UNL     1       1.691   4.029  -3.579  0.00  0.00    +0.000 A 
ENDBRANCH   1  10
BRANCH   2  13
ATOM     13  C   UNL     1      -1.351   4.035  -1.204  0.00  0.00    +0.006 A 
ATOM     14  C   UNL     1      -1.510   5.408  -1.224  0.00  0.00    +0.008 A 
ATOM     15  C   UNL     1      -2.006   6.030  -2.354  0.00  0.00    +0.000 A 
ATOM     16  C   UNL     1      -2.352   5.278  -3.461  0.00  0.00    +0.000 A 
ATOM     17  C   UNL     1      -2.197   3.905  -3.440  0.00  0.00    +0.000 A 
ATOM     18  C   UNL     1      -1.697   3.283  -2.311  0.00  0.00    +0.008 A 
ENDBRANCH   2  13
BRANCH   2  19
ATOM     19  O   UNL     1      -1.301   3.988   1.210  0.00  0.00    -0.364 OA
ATOM     20  H   UNL     1      -2.266   4.010   1.270  0.00  0.00    +0.213 HD
ENDBRANCH   2  19
BRANCH   3  21
ATOM     21  C   UNL     1      -2.504   1.375   0.021  0.00  0.00    +0.156 C 
BRANCH  21  22
ATOM     22  C   UNL     1      -2.963   1.178   1.442  0.00  0.00    +0.007 A 
ATOM     23  C   UNL     1      -3.615   2.044   2.256  0.00  0.00    +0.013 A 
ATOM     24  C   UNL     1      -3.944   1.642   3.537  0.00  0.00    +0.008 A 
ATOM     25  C   UNL     1      -3.595   0.397   3.946  0.00  0.00    +0.045 A 
ATOM     26  S   UNL     1      -2.783  -0.253   2.495  0.00  0.00    -0.100 S 
ENDBRANCH  21  22
ENDBRANCH   3  21
TORSDOF 5
