REMARK  Name = ZINC55035780
REMARK  9 active torsions:
REMARK  status: ('A' for Active; 'I' for Inactive)
REMARK    1  A    between atoms: C_1  and  O_2
REMARK    2  A    between atoms: O_2  and  C_3
REMARK    3  A    between atoms: C_5  and  C_14
REMARK    4  A    between atoms: C_8  and  O_9
REMARK    5  A    between atoms: O_9  and  C_10
REMARK    6  A    between atoms: C_10  and  C_11
REMARK    7  A    between atoms: C_14  and  N_15
REMARK    8  A    between atoms: N_15  and  C_16
REMARK    9  A    between atoms: C_16  and  C_17
REMARK                            x       y       z     vdW  Elec       q    Type
REMARK                         _______ _______ _______ _____ _____    ______ ____
ROOT
ATOM      1  C   UNL     1       0.626  -0.619   1.042  0.00  0.00    +0.163 A 
ATOM      2  C   UNL     1       1.202   0.137   2.051  0.00  0.00    +0.051 A 
ATOM      3  C   UNL     1       1.837  -0.489   3.108  0.00  0.00    -0.059 A 
ATOM      4  C   UNL     1       1.899  -1.869   3.162  0.00  0.00    +0.025 A 
ATOM      5  C   UNL     1       1.326  -2.630   2.158  0.00  0.00    +0.086 A 
ATOM      6  C   UNL     1       0.683  -2.008   1.099  0.00  0.00    +0.181 A 
ATOM      7 CL   UNL     1       1.407  -4.362   2.228  0.00  0.00    -0.080 Cl
ENDROOT
BRANCH   1   9
ATOM      8  C   UNL     1      -0.017   1.425   0.010  0.00  0.00    +0.277 C 
ATOM      9  O   UNL     1       0.002  -0.004   0.002  0.00  0.00    -0.491 OA
ENDBRANCH   1   9
BRANCH   6  10
ATOM     10  O   UNL     1       0.114  -2.754   0.114  0.00  0.00    -0.483 OA
BRANCH  10  11
ATOM     11  C   UNL     1       0.939  -3.091  -1.003  0.00  0.00    +0.256 C 
BRANCH  11  12
ATOM     12  C   UNL     1       0.143  -3.913  -1.984  0.00  0.00    +0.006 C 
ATOM     13  C   UNL     1       0.207  -3.646  -3.265  0.00  0.00    +0.007 C 
ENDBRANCH  11  12
ENDBRANCH  10  11
ENDBRANCH   6  10
BRANCH   3  14
ATOM     14  C   UNL     1       2.462   0.335   4.204  0.00  0.00    -0.046 C 
BRANCH  14  15
ATOM     15  N   UNL     1       1.471   0.577   5.261  0.00  0.00    +0.385 N 
ATOM     16  H   UNL     1       0.682   1.074   4.875  0.00  0.00    -0.085 HD
ATOM     17  H   UNL     1       1.161  -0.305   5.639  0.00  0.00    -0.085 HD
BRANCH  15  18
ATOM     18  C   UNL     1       2.081   1.380   6.329  0.00  0.00    -0.025 C 
BRANCH  18  19
ATOM     19  C   UNL     1       1.065   1.628   7.414  0.00  0.00    +0.034 A 
ATOM     20  C   UNL     1       0.994   0.837   8.511  0.00  0.00    +0.069 A 
ATOM     21  S   UNL     1      -0.354   1.608   9.392  0.00  0.00    -0.061 S 
ATOM     22  C   UNL     1      -0.681   2.837   8.289  0.00  0.00    +0.156 A 
ATOM     23  N   UNL     1       0.207   2.631   7.339  0.00  0.00    -0.232 NA
ATOM     24  N   UNL     1      -1.646   3.829   8.365  0.00  0.00    -0.338 N 
ATOM     25  H   UNL     1      -2.240   3.870   9.131  0.00  0.00    +0.144 HD
ATOM     26  H   UNL     1      -1.728   4.481   7.652  0.00  0.00    +0.144 HD
ENDBRANCH  18  19
ENDBRANCH  15  18
ENDBRANCH  14  15
ENDBRANCH   3  14
TORSDOF 8
