REMARK  Name = ZINC08950731
REMARK  14 active torsions:
REMARK  status: ('A' for Active; 'I' for Inactive)
REMARK    1  A    between atoms: C_1  and  C_2
REMARK    2  A    between atoms: C_2  and  O_3
REMARK    3  A    between atoms: O_3  and  C_4
REMARK    4  A    between atoms: C_4  and  C_6
REMARK    5  A    between atoms: C_7  and  C_37
REMARK    6  A    between atoms: C_8  and  C_36
REMARK    7  A    between atoms: C_10  and  N_11
REMARK    8  A    between atoms: C_12  and  C_14
REMARK    9  A    between atoms: C_14  and  O_15
REMARK   10  A    between atoms: O_15  and  C_16
REMARK   11  A    between atoms: C_21  and  C_35
REMARK   12  A    between atoms: C_22  and  C_34
REMARK   13  A    between atoms: C_26  and  C_27
REMARK   14  A    between atoms: C_30  and  C_33
REMARK                            x       y       z     vdW  Elec       q    Type
REMARK                         _______ _______ _______ _____ _____    ______ ____
ROOT
ATOM      1  C   UNL     1      -1.366  -3.511  -7.183  0.00  0.00    +0.211 A 
ATOM      2  C   UNL     1      -2.590  -3.416  -7.894  0.00  0.00    +0.235 A 
ATOM      3  O   UNL     1      -3.660  -3.626  -7.347  0.00  0.00    -0.283 OA
ATOM      4  C   UNL     1      -2.517  -3.049  -9.322  0.00  0.00    +0.068 A 
ATOM      5  C   UNL     1      -3.668  -2.929 -10.099  0.00  0.00    +0.019 A 
ATOM      6  C   UNL     1      -3.558  -2.591 -11.429  0.00  0.00    -0.047 A 
ATOM      7  C   UNL     1      -2.310  -2.370 -11.995  0.00  0.00    -0.044 A 
ATOM      8  C   UNL     1      -1.165  -2.484 -11.237  0.00  0.00    +0.050 A 
ATOM      9  C   UNL     1      -1.253  -2.826  -9.892  0.00  0.00    +0.140 A 
ATOM     10  O   UNL     1      -0.143  -2.945  -9.135  0.00  0.00    -0.451 OA
ATOM     11  C   UNL     1      -0.192  -3.274  -7.834  0.00  0.00    +0.181 A 
ATOM     12  C   UNL     1      -2.206  -2.001 -13.452  0.00  0.00    +0.044 C 
ATOM     13  C   UNL     1      -4.798  -2.460 -12.275  0.00  0.00    +0.044 C 
ENDROOT
BRANCH  11  14
ATOM     14  C   UNL     1       1.072  -3.382  -7.081  0.00  0.00    +0.021 A 
ATOM     15  C   UNL     1       2.031  -2.370  -7.170  0.00  0.00    +0.012 A 
ATOM     16  C   UNL     1       3.208  -2.475  -6.459  0.00  0.00    +0.004 A 
ATOM     17  C   UNL     1       3.446  -3.585  -5.668  0.00  0.00    -0.050 A 
ATOM     18  C   UNL     1       2.503  -4.594  -5.579  0.00  0.00    +0.004 A 
ATOM     19  C   UNL     1       1.319  -4.500  -6.280  0.00  0.00    +0.012 A 
ATOM     20  C   UNL     1       4.737  -3.696  -4.899  0.00  0.00    +0.044 C 
ENDBRANCH  11  14
BRANCH   1  21
ATOM     21  O   UNL     1      -1.364  -3.841  -5.863  0.00  0.00    -0.476 OA
BRANCH  21  22
ATOM     22  C   UNL     1      -1.557  -2.778  -4.928  0.00  0.00    +0.325 C 
BRANCH  22  24
ATOM     23  N   UNL     1      -1.687  -2.505  -2.473  0.00  0.00    -0.277 N 
ATOM     24  C   UNL     1      -1.525  -3.330  -3.526  0.00  0.00    +0.255 C 
ATOM     25  O   UNL     1      -1.353  -4.517  -3.345  0.00  0.00    -0.272 OA
ATOM     26  H   UNL     1      -1.824  -1.555  -2.617  0.00  0.00    +0.155 HD
BRANCH  23  31
ATOM     27  C   UNL     1      -1.803  -2.327   0.018  0.00  0.00    +0.091 A 
ATOM     28  C   UNL     1      -1.721  -3.114   1.227  0.00  0.00    -0.025 A 
ATOM     29  C   UNL     1      -1.523  -4.436   1.087  0.00  0.00    -0.008 A 
ATOM     30  S   UNL     1      -1.428  -4.652  -0.678  0.00  0.00    -0.078 S 
ATOM     31  C   UNL     1      -1.657  -3.012  -1.183  0.00  0.00    +0.086 A 
ATOM     32  C   UNL     1      -1.405  -5.483   2.165  0.00  0.00    +0.052 C 
ATOM     33  C   UNL     1      -1.859  -2.480   2.587  0.00  0.00    +0.045 C 
BRANCH  27  34
ATOM     34  C   UNL     1      -2.022  -0.880   0.057  0.00  0.00    +0.342 C 
ATOM     35  O   UNL     1      -3.154  -0.436   0.036  0.00  0.00    -0.245 OA
BRANCH  34  36
ATOM     36  O   UNL     1      -0.969  -0.040   0.115  0.00  0.00    -0.461 OA
BRANCH  36  38
ATOM     37  C   UNL     1       0.049   2.171   0.215  0.00  0.00    +0.048 C 
ATOM     38  C   UNL     1      -1.261   1.382   0.150  0.00  0.00    +0.229 C 
ENDBRANCH  36  38
ENDBRANCH  34  36
ENDBRANCH  27  34
ENDBRANCH  23  31
ENDBRANCH  22  24
ENDBRANCH  21  22
ENDBRANCH   1  21
TORSDOF 8
