REMARK  Name = ZINC39698598
REMARK  4 active torsions:
REMARK  status: ('A' for Active; 'I' for Inactive)
REMARK    1  A    between atoms: C_1  and  C_2
REMARK    2  A    between atoms: C_5  and  C_9
REMARK    3  A    between atoms: C_6  and  O_8
REMARK    4  A    between atoms: C_12  and  C_15
REMARK                            x       y       z     vdW  Elec       q    Type
REMARK                         _______ _______ _______ _____ _____    ______ ____
ROOT
ATOM      1  C   UNL     1       0.059  -4.279  -0.033  0.00  0.00    +0.157 C 
ATOM      2  C   UNL     1       1.474  -4.798   0.145  0.00  0.00    +0.033 C 
ATOM      3  C   UNL     1       1.712  -5.482  -0.990  0.00  0.00    +0.089 C 
ATOM      4  N   UNL     1       0.629  -5.433  -1.809  0.00  0.00    -0.178 NA
ATOM      5  N   UNL     1      -0.327  -4.793  -1.358  0.00  0.00    -0.297 N 
ATOM      6  H   UNL     1      -1.180  -4.651  -1.797  0.00  0.00    +0.183 HD
ENDROOT
BRANCH   1  11
ATOM      7  C   UNL     1      -0.018   1.503   0.010  0.00  0.00    +0.044 C 
ATOM      8  C   UNL     1       0.002  -0.004   0.002  0.00  0.00    -0.047 A 
ATOM      9  C   UNL     1       0.006  -0.688  -1.200  0.00  0.00    +0.004 A 
ATOM     10  C   UNL     1       0.024  -2.071  -1.211  0.00  0.00    +0.010 A 
ATOM     11  C   UNL     1       0.039  -2.772  -0.020  0.00  0.00    +0.022 A 
ATOM     12  C   UNL     1       0.035  -2.088   1.186  0.00  0.00    +0.123 A 
ATOM     13  C   UNL     1       0.023  -0.700   1.195  0.00  0.00    +0.049 A 
BRANCH  12  14
ATOM     14  O   UNL     1       0.050  -2.776   2.358  0.00  0.00    -0.506 OA
ATOM     15  H   UNL     1       0.938  -2.963   2.694  0.00  0.00    +0.292 HD
ENDBRANCH  12  14
ENDBRANCH   1  11
BRANCH   3  16
ATOM     16  C   UNL     1       2.979  -6.188  -1.303  0.00  0.00    +0.003 A 
ATOM     17  C   UNL     1       4.029  -6.180  -0.387  0.00  0.00    +0.010 A 
ATOM     18  C   UNL     1       5.205  -6.838  -0.682  0.00  0.00    +0.002 A 
ATOM     19  C   UNL     1       5.344  -7.506  -1.886  0.00  0.00    +0.015 A 
ATOM     20  C   UNL     1       4.305  -7.518  -2.800  0.00  0.00    +0.019 A 
ATOM     21  C   UNL     1       3.121  -6.867  -2.511  0.00  0.00    +0.025 A 
ATOM     22 BR   UNL     1       4.503  -8.433  -4.443  0.00  0.00    -0.050 Br
ENDBRANCH   3  16
TORSDOF 3
