REMARK  Name = ZINC33546924
REMARK  11 active torsions:
REMARK  status: ('A' for Active; 'I' for Inactive)
REMARK    1  A    between atoms: C_1  and  C_2
REMARK    2  A    between atoms: C_2  and  C_3
REMARK    3  A    between atoms: C_3  and  C_4
REMARK    4  A    between atoms: C_4  and  C_5
REMARK    5  A    between atoms: C_6  and  C_21
REMARK    6  A    between atoms: C_7  and  C_18
REMARK    7  A    between atoms: C_8  and  C_17
REMARK    8  A    between atoms: N_9  and  C_10
REMARK    9  A    between atoms: C_10  and  C_11
REMARK   10  A    between atoms: C_11  and  C_12
REMARK   11  A    between atoms: C_24  and  C_27
REMARK                            x       y       z     vdW  Elec       q    Type
REMARK                         _______ _______ _______ _____ _____    ______ ____
ROOT
ATOM      1  C   UNL     1       0.926   1.795  -3.079  0.00  0.00    +0.027 A 
ATOM      2  C   UNL     1       1.329   1.063  -4.149  0.00  0.00    +0.015 A 
ATOM      3  C   UNL     1       0.493  -0.152  -4.148  0.00  0.00    +0.065 A 
ATOM      4  C   UNL     1      -0.335  -0.040  -3.067  0.00  0.00    +0.029 A 
ATOM      5  N   UNL     1      -0.067   1.120  -2.437  0.00  0.00    -0.346 N 
ATOM      6  C   UNL     1      -1.377  -1.046  -2.651  0.00  0.00    +0.064 C 
ENDROOT
BRANCH   2   7
ATOM      7  C   UNL     1       2.388   1.415  -5.125  0.00  0.00    -0.015 A 
ATOM      8  C   UNL     1       3.716   1.512  -4.711  0.00  0.00    +0.009 A 
ATOM      9  C   UNL     1       4.699   1.835  -5.624  0.00  0.00    +0.013 A 
ATOM     10  C   UNL     1       4.367   2.074  -6.946  0.00  0.00    +0.055 A 
ATOM     11  C   UNL     1       3.050   1.985  -7.361  0.00  0.00    +0.013 A 
ATOM     12  C   UNL     1       2.060   1.657  -6.457  0.00  0.00    +0.009 A 
BRANCH  10  13
ATOM     13  C   UNL     1       5.444   2.432  -7.937  0.00  0.00    +0.417 C 
ATOM     14  F   UNL     1       5.605   3.821  -7.970  0.00  0.00    -0.166 F 
ATOM     15  F   UNL     1       6.648   1.832  -7.554  0.00  0.00    -0.166 F 
ATOM     16  F   UNL     1       5.079   1.975  -9.208  0.00  0.00    -0.166 F 
ENDBRANCH  10  13
ENDBRANCH   2   7
BRANCH   3  17
ATOM     17  C   UNL     1       0.542  -1.260  -5.114  0.00  0.00    +0.244 C 
ATOM     18  O   UNL     1      -0.153  -1.228  -6.112  0.00  0.00    -0.270 OA
ATOM     19  N   UNL     1       1.356  -2.312  -4.894  0.00  0.00    -0.325 N 
ATOM     20  H   UNL     1       1.392  -3.140  -5.617  0.00  0.00    +0.145 HD
ATOM     21  H   UNL     1       1.984  -2.341  -3.992  0.00  0.00    +0.145 HD
ENDBRANCH   3  17
BRANCH   1  22
ATOM     22  C   UNL     1       1.488   3.132  -2.669  0.00  0.00    +0.054 C 
BRANCH  22  23
ATOM     23  C   UNL     1       2.661   2.919  -1.710  0.00  0.00    +0.006 C 
BRANCH  23  25
ATOM     24  C   UNL     1       4.405   4.063  -0.333  0.00  0.00    +0.004 C 
ATOM     25  C   UNL     1       3.232   4.276  -1.293  0.00  0.00    -0.003 C 
ENDBRANCH  23  25
ENDBRANCH  22  23
ENDBRANCH   1  22
BRANCH   5  26
ATOM     26  C   UNL     1      -0.753   1.593  -1.232  0.00  0.00    +0.127 C 
BRANCH  26  27
ATOM     27  C   UNL     1      -0.013   1.086   0.008  0.00  0.00    +0.064 C 
BRANCH  27  28
ATOM     28  C   UNL     1      -0.718   1.572   1.248  0.00  0.00    -0.009 A 
ATOM     29  C   UNL     1      -1.714   0.979   1.951  0.00  0.00    +0.011 A 
ATOM     30  C   UNL     1      -2.214   1.616   3.071  0.00  0.00    +0.008 A 
ATOM     31  C   UNL     1      -1.694   2.814   3.433  0.00  0.00    +0.045 A 
ATOM     32  S   UNL     1      -0.454   3.074   2.176  0.00  0.00    -0.102 S 
ENDBRANCH  27  28
ENDBRANCH  26  27
ENDBRANCH   5  26
TORSDOF 9
