REMARK  Name = ZINC21359393
REMARK  4 active torsions:
REMARK  status: ('A' for Active; 'I' for Inactive)
REMARK    1  A    between atoms: N_11  and  C_12
REMARK    2  A    between atoms: C_12  and  C_13
REMARK    3  A    between atoms: N_15  and  C_16
REMARK    4  A    between atoms: C_19  and  C_22
REMARK                            x       y       z     vdW  Elec       q    Type
REMARK                         _______ _______ _______ _____ _____    ______ ____
ROOT
ATOM      1  C   UNL     1      -4.699   3.337   1.415  0.00  0.00    +0.237 C 
ATOM      2  O   UNL     1      -4.530   4.179   2.271  0.00  0.00    -0.274 OA
ATOM      3  N   UNL     1      -5.276   2.161   1.732  0.00  0.00    -0.284 N 
ATOM      4  H   UNL     1      -5.508   1.432   0.941  0.00  0.00    +0.155 HD
ENDROOT
BRANCH   3   5
ATOM      5  C   UNL     1      -5.577   1.867   3.063  0.00  0.00    +0.033 A 
ATOM      6  C   UNL     1      -4.754   2.336   4.081  0.00  0.00    +0.024 A 
ATOM      7  C   UNL     1      -5.052   2.052   5.396  0.00  0.00    +0.012 A 
ATOM      8  C   UNL     1      -6.176   1.284   5.705  0.00  0.00    +0.007 A 
ATOM      9  C   UNL     1      -6.998   0.810   4.681  0.00  0.00    +0.012 A 
ATOM     10  C   UNL     1      -6.698   1.102   3.369  0.00  0.00    +0.024 A 
BRANCH   8  11
ATOM     11  C   UNL     1      -6.494   0.973   7.114  0.00  0.00    +0.109 A 
ATOM     12  N   UNL     1      -7.500   0.277   7.599  0.00  0.00    -0.239 NA
ATOM     13  C   UNL     1      -7.667   0.067   8.919  0.00  0.00    +0.079 A 
ATOM     14  C   UNL     1      -8.694  -0.660   9.566  0.00  0.00    +0.029 A 
ATOM     15  C   UNL     1      -8.721  -0.773  10.921  0.00  0.00    +0.002 A 
ATOM     16  C   UNL     1      -7.751  -0.185  11.721  0.00  0.00    +0.001 A 
ATOM     17  C   UNL     1      -6.729   0.534  11.129  0.00  0.00    +0.017 A 
ATOM     18  C   UNL     1      -6.693   0.654   9.761  0.00  0.00    +0.040 A 
ATOM     19  S   UNL     1      -5.615   1.452   8.595  0.00  0.00    -0.067 S 
ENDBRANCH   8  11
ENDBRANCH   3   5
BRANCH   1  20
ATOM     20  C   UNL     1      -4.265   3.606  -0.003  0.00  0.00    +0.221 C 
BRANCH  20  31
ATOM     21  C   UNL     1       0.402   5.500   0.512  0.00  0.00    +0.002 A 
ATOM     22  C   UNL     1      -0.149   4.227   0.594  0.00  0.00    +0.002 A 
ATOM     23  C   UNL     1      -1.498   4.034   0.391  0.00  0.00    +0.028 A 
ATOM     24  C   UNL     1      -2.319   5.123   0.113  0.00  0.00    +0.071 A 
ATOM     25  C   UNL     1      -1.761   6.413   0.030  0.00  0.00    +0.088 A 
ATOM     26  C   UNL     1      -0.383   6.581   0.235  0.00  0.00    +0.030 A 
ATOM     27  N   UNL     1      -2.538   7.479  -0.244  0.00  0.00    -0.248 NA
ATOM     28  C   UNL     1      -3.818   7.344  -0.438  0.00  0.00    +0.181 A 
ATOM     29  C   UNL     1      -4.442   6.019  -0.361  0.00  0.00    +0.270 A 
ATOM     30  O   UNL     1      -5.639   5.890  -0.543  0.00  0.00    -0.266 OA
ATOM     31  N   UNL     1      -3.673   4.943  -0.087  0.00  0.00    -0.297 N 
ENDBRANCH  20  31
ENDBRANCH   1  20
TORSDOF 4
