REMARK  Name = ZINC35671649
REMARK  9 active torsions:
REMARK  status: ('A' for Active; 'I' for Inactive)
REMARK    1  A    between atoms: C_5  and  C_7
REMARK    2  A    between atoms: C_7  and  C_9
REMARK    3  A    between atoms: C_7  and  N_27
REMARK    4  A    between atoms: C_9  and  N_10
REMARK    5  A    between atoms: N_10  and  C_11
REMARK    6  A    between atoms: C_12  and  C_25
REMARK    7  A    between atoms: C_14  and  C_16
REMARK    8  A    between atoms: C_16  and  O_17
REMARK    9  A    between atoms: O_17  and  C_18
REMARK                            x       y       z     vdW  Elec       q    Type
REMARK                         _______ _______ _______ _____ _____    ______ ____
ROOT
ATOM      1  N   UNL     1       1.746  -3.902  -1.683  0.00  0.00    -0.314 N 
ATOM      2  H   UNL     1       1.565  -4.517  -0.955  0.00  0.00    +0.149 HD
ENDROOT
BRANCH   1   3
ATOM      3  C   UNL     1       2.165  -4.385  -2.905  0.00  0.00    +0.225 A 
ATOM      4  C   UNL     1       2.367  -5.712  -3.246  0.00  0.00    +0.201 A 
ATOM      5  N   UNL     1       2.777  -5.725  -4.546  0.00  0.00    -0.198 NA
ATOM      6  C   UNL     1       2.826  -4.502  -4.979  0.00  0.00    +0.237 A 
ATOM      7  O   UNL     1       2.452  -3.660  -4.002  0.00  0.00    -0.421 OA
BRANCH   4   8
ATOM      8  C   UNL     1       2.181  -6.850  -2.397  0.00  0.00    +0.124 C 
ATOM      9  N   UNL     1       2.034  -7.753  -1.724  0.00  0.00    -0.189 NA
ENDBRANCH   4   8
BRANCH   6  10
ATOM     10  C   UNL     1       3.234  -4.090  -6.370  0.00  0.00    +0.324 C 
BRANCH  10  11
ATOM     11  O   UNL     1       2.080  -4.051  -7.213  0.00  0.00    -0.483 OA
BRANCH  11  12
ATOM     12  C   UNL     1       2.276  -3.695  -8.509  0.00  0.00    +0.121 A 
ATOM     13  C   UNL     1       3.552  -3.395  -8.963  0.00  0.00    +0.047 A 
ATOM     14  C   UNL     1       3.749  -3.033 -10.281  0.00  0.00    +0.023 A 
ATOM     15  C   UNL     1       2.674  -2.969 -11.150  0.00  0.00    +0.041 A 
ATOM     16  C   UNL     1       1.400  -3.267 -10.700  0.00  0.00    +0.023 A 
ATOM     17  C   UNL     1       1.200  -3.636  -9.383  0.00  0.00    +0.047 A 
ATOM     18 CL   UNL     1       2.923  -2.513 -12.806  0.00  0.00    -0.084 Cl
ENDBRANCH  11  12
ENDBRANCH  10  11
ENDBRANCH   6  10
ENDBRANCH   1   3
BRANCH   1  19
ATOM     19  C   UNL     1       1.575  -2.461  -1.485  0.00  0.00    +0.094 C 
BRANCH  19  20
ATOM     20  C   UNL     1       1.232  -2.184  -0.019  0.00  0.00    -0.019 C 
BRANCH  20  25
ATOM     21  C   UNL     1      -1.384  -4.581   1.270  0.00  0.00    +0.000 A 
ATOM     22  C   UNL     1      -2.552  -3.935   0.912  0.00  0.00    +0.001 A 
ATOM     23  C   UNL     1      -2.497  -2.722   0.253  0.00  0.00    +0.020 A 
ATOM     24  C   UNL     1      -1.271  -2.154  -0.050  0.00  0.00    +0.043 A 
ATOM     25  C   UNL     1      -0.102  -2.802   0.309  0.00  0.00    -0.041 A 
ATOM     26  C   UNL     1      -0.159  -4.015   0.969  0.00  0.00    +0.003 A 
ATOM     27 CL   UNL     1      -1.200  -0.631  -0.879  0.00  0.00    -0.083 Cl
ENDBRANCH  20  25
BRANCH  20  28
ATOM     28  N   UNL     1       2.268  -2.768   0.844  0.00  0.00    +0.385 N 
ATOM     29  C   UNL     1       3.597  -2.198   0.506  0.00  0.00    -0.078 C 
ATOM     30  C   UNL     1       4.426  -2.445   1.792  0.00  0.00    -0.020 C 
ATOM     31  C   UNL     1       3.395  -2.204   2.919  0.00  0.00    -0.020 C 
ATOM     32  C   UNL     1       2.019  -2.405   2.256  0.00  0.00    -0.078 C 
ATOM     33  H   UNL     1       2.282  -3.772   0.740  0.00  0.00    -0.081 HD
ENDBRANCH  20  28
ENDBRANCH  19  20
ENDBRANCH   1  19
TORSDOF 9
