REMARK  Name = ZINC39992748
REMARK  9 active torsions:
REMARK  status: ('A' for Active; 'I' for Inactive)
REMARK    1  A    between atoms: C_1  and  N_2
REMARK    2  A    between atoms: C_3  and  C_5
REMARK    3  A    between atoms: C_9  and  N_10
REMARK    4  A    between atoms: C_11  and  C_13
REMARK    5  A    between atoms: C_13  and  C_30
REMARK    6  A    between atoms: C_14  and  C_15
REMARK    7  A    between atoms: C_18  and  C_20
REMARK    8  A    between atoms: C_23  and  S_26
REMARK    9  A    between atoms: S_26  and  N_29
REMARK                            x       y       z     vdW  Elec       q    Type
REMARK                         _______ _______ _______ _____ _____    ______ ____
ROOT
ATOM      1  C   UNL     1       4.876  -2.656   1.376  0.00  0.00    +0.117 C 
ATOM      2  C   UNL     1       5.822  -3.526   1.898  0.00  0.00    +0.070 C 
ENDROOT
BRANCH   2   3
ATOM      3  C   UNL     1       6.960  -3.019   2.547  0.00  0.00    +0.130 A 
ATOM      4  C   UNL     1       7.982  -3.773   3.107  0.00  0.00    +0.050 A 
ATOM      5  C   UNL     1       8.902  -2.871   3.640  0.00  0.00    +0.050 A 
ATOM      6  C   UNL     1       8.417  -1.604   3.390  0.00  0.00    +0.136 A 
ATOM      7  O   UNL     1       7.253  -1.713   2.728  0.00  0.00    -0.455 OA
BRANCH   6   8
ATOM      8  C   UNL     1       9.070  -0.340   3.780  0.00  0.00    +0.017 A 
ATOM      9  C   UNL     1      10.291  -0.361   4.459  0.00  0.00    +0.013 A 
ATOM     10  C   UNL     1      10.897   0.824   4.820  0.00  0.00    +0.029 A 
ATOM     11  C   UNL     1      10.297   2.033   4.512  0.00  0.00    +0.105 A 
ATOM     12  C   UNL     1       9.088   2.062   3.840  0.00  0.00    +0.029 A 
ATOM     13  C   UNL     1       8.474   0.884   3.468  0.00  0.00    +0.013 A 
BRANCH  11  14
ATOM     14  S   UNL     1      11.077   3.542   4.978  0.00  0.00    +0.056 S 
ATOM     15  O   UNL     1      10.051   4.522   5.058  0.00  0.00    -0.153 OA
ATOM     16  O   UNL     1      11.928   3.238   6.075  0.00  0.00    -0.153 OA
BRANCH  14  17
ATOM     17  N   UNL     1      12.063   3.991   3.726  0.00  0.00    -0.204 NA
ATOM     18  H   UNL     1      12.118   3.440   2.930  0.00  0.00    +0.144 HD
ATOM     19  H   UNL     1      12.587   4.805   3.788  0.00  0.00    +0.144 HD
ENDBRANCH  14  17
ENDBRANCH  11  14
ENDBRANCH   6   8
ENDBRANCH   2   3
BRANCH   1  21
ATOM     20  N   UNL     1       2.768  -2.341   0.191  0.00  0.00    -0.275 N 
ATOM     21  C   UNL     1       3.687  -3.186   0.698  0.00  0.00    +0.259 C 
ATOM     22  O   UNL     1       3.531  -4.389   0.595  0.00  0.00    -0.269 OA
ATOM     23  H   UNL     1       2.892  -1.383   0.273  0.00  0.00    +0.156 HD
BRANCH  20  28
ATOM     24  C   UNL     1       0.605  -2.130  -1.026  0.00  0.00    +0.069 A 
ATOM     25  C   UNL     1      -0.462  -2.898  -1.645  0.00  0.00    -0.023 A 
ATOM     26  C   UNL     1      -0.295  -4.236  -1.568  0.00  0.00    -0.004 A 
ATOM     27  S   UNL     1       1.232  -4.450  -0.700  0.00  0.00    -0.077 S 
ATOM     28  C   UNL     1       1.645  -2.842  -0.449  0.00  0.00    +0.085 A 
ATOM     29  C   UNL     1      -1.215  -5.289  -2.104  0.00  0.00    +0.043 C 
ATOM     30  C   UNL     1      -2.565  -4.632  -2.426  0.00  0.00    +0.005 C 
ATOM     31  C   UNL     1      -2.314  -3.352  -3.229  0.00  0.00    +0.005 C 
ATOM     32  C   UNL     1      -1.676  -2.291  -2.330  0.00  0.00    +0.037 C 
BRANCH  24  35
ATOM     33  C   UNL     1      -0.018   1.461   0.010  0.00  0.00    +0.128 C 
ATOM     34  N   UNL     1       0.002  -0.004   0.002  0.00  0.00    -0.314 N 
ATOM     35  C   UNL     1       0.585  -0.664  -1.018  0.00  0.00    +0.246 C 
ATOM     36  O   UNL     1       1.095  -0.044  -1.932  0.00  0.00    -0.270 OA
ATOM     37  H   UNL     1      -0.404  -0.499   0.731  0.00  0.00    +0.149 HD
ENDBRANCH  24  35
ENDBRANCH  20  28
ENDBRANCH   1  21
BRANCH   1  38
ATOM     38  C   UNL     1       5.059  -1.241   1.497  0.00  0.00    +0.104 C 
ATOM     39  N   UNL     1       5.205  -0.119   1.594  0.00  0.00    -0.191 NA
ENDBRANCH   1  38
TORSDOF 8
