REMARK  Name = ZINC16183996
REMARK  6 active torsions:
REMARK  status: ('A' for Active; 'I' for Inactive)
REMARK    1  A    between atoms: C_1  and  C_2
REMARK    2  A    between atoms: C_7  and  C_34
REMARK    3  A    between atoms: C_10  and  C_12
REMARK    4  A    between atoms: C_12  and  S_13
REMARK    5  A    between atoms: S_13  and  C_14
REMARK    6  A    between atoms: N_27  and  C_28
REMARK                            x       y       z     vdW  Elec       q    Type
REMARK                         _______ _______ _______ _____ _____    ______ ____
ROOT
ATOM      1  C   UNL     1       3.923   0.662   5.460  0.00  0.00    +0.178 A 
ATOM      2  N   UNL     1       4.200  -0.621   5.348  0.00  0.00    -0.215 NA
ATOM      3  C   UNL     1       4.748  -1.289   6.357  0.00  0.00    +0.117 A 
ATOM      4  C   UNL     1       5.058  -0.673   7.581  0.00  0.00    +0.076 A 
ATOM      5  C   UNL     1       5.658  -1.539   8.598  0.00  0.00    -0.023 A 
ATOM      6  C   UNL     1       5.854  -2.831   8.265  0.00  0.00    -0.004 A 
ATOM      7  S   UNL     1       5.260  -2.971   6.601  0.00  0.00    -0.073 S 
ATOM      8  C   UNL     1       6.446  -3.909   9.120  0.00  0.00    +0.043 C 
ATOM      9  C   UNL     1       7.145  -3.250  10.317  0.00  0.00    +0.005 C 
ATOM     10  C   UNL     1       6.199  -2.212  10.928  0.00  0.00    +0.005 C 
ATOM     11  C   UNL     1       6.051  -1.022   9.979  0.00  0.00    +0.037 C 
ATOM     12  C   UNL     1       4.747   0.720   7.675  0.00  0.00    +0.268 A 
ATOM     13  O   UNL     1       4.982   1.338   8.699  0.00  0.00    -0.267 OA
ATOM     14  N   UNL     1       4.197   1.340   6.615  0.00  0.00    -0.255 N 
ENDROOT
BRANCH  14  15
ATOM     15  C   UNL     1       3.894   2.706   6.698  0.00  0.00    +0.052 A 
ATOM     16  C   UNL     1       4.872   3.653   6.424  0.00  0.00    +0.026 A 
ATOM     17  C   UNL     1       4.570   4.998   6.506  0.00  0.00    +0.002 A 
ATOM     18  C   UNL     1       3.297   5.402   6.863  0.00  0.00    +0.000 A 
ATOM     19  C   UNL     1       2.321   4.461   7.138  0.00  0.00    +0.002 A 
ATOM     20  C   UNL     1       2.615   3.115   7.051  0.00  0.00    +0.026 A 
ENDBRANCH  14  15
BRANCH   1  21
ATOM     21  S   UNL     1       3.196   1.516   4.102  0.00  0.00    -0.078 S 
BRANCH  21  22
ATOM     22  C   UNL     1       3.021   0.240   2.824  0.00  0.00    +0.173 C 
BRANCH  22  30
ATOM     23  C   UNL     1       1.848   2.354  -0.564  0.00  0.00    +0.028 C 
ATOM     24  C   UNL     1       2.276   0.914  -0.853  0.00  0.00    +0.073 C 
ATOM     25  C   UNL     1       1.185   0.206  -1.663  0.00  0.00    +0.022 C 
ATOM     26  C   UNL     1       1.554  -1.269  -1.829  0.00  0.00    +0.004 C 
ATOM     27  C   UNL     1       1.642  -1.933  -0.453  0.00  0.00    +0.022 C 
ATOM     28  C   UNL     1       2.739  -1.250   0.370  0.00  0.00    +0.073 C 
ATOM     29  N   UNL     1       2.471   0.194   0.413  0.00  0.00    -0.295 N 
ATOM     30  C   UNL     1       2.403   0.846   1.591  0.00  0.00    +0.226 C 
ATOM     31  O   UNL     1       1.843   1.920   1.658  0.00  0.00    -0.275 OA
ATOM     32  C   UNL     1       2.741  -1.817   1.792  0.00  0.00    +0.028 C 
ENDBRANCH  22  30
ENDBRANCH  21  22
ENDBRANCH   1  21
TORSDOF 4
