REMARK  Name = ZINC36202347
REMARK  15 active torsions:
REMARK  status: ('A' for Active; 'I' for Inactive)
REMARK    1  A    between atoms: C_1  and  C_2
REMARK    2  A    between atoms: C_2  and  C_3
REMARK    3  A    between atoms: C_2  and  N_4
REMARK    4  A    between atoms: N_4  and  C_5
REMARK    5  A    between atoms: N_4  and  C_16
REMARK    6  A    between atoms: C_5  and  C_6
REMARK    7  A    between atoms: C_10  and  O_14
REMARK    8  A    between atoms: C_11  and  O_12
REMARK    9  A    between atoms: O_12  and  C_13
REMARK   10  A    between atoms: O_14  and  C_15
REMARK   11  A    between atoms: C_16  and  C_17
REMARK   12  A    between atoms: C_20  and  C_22
REMARK   13  A    between atoms: C_22  and  C_23
REMARK   14  A    between atoms: C_22  and  C_29
REMARK   15  A    between atoms: C_22  and  O_35
REMARK                            x       y       z     vdW  Elec       q    Type
REMARK                         _______ _______ _______ _____ _____    ______ ____
ROOT
ATOM      1  C   UNL     1      -3.752   2.423  -0.392  0.00  0.00    +0.089 A 
ATOM      2  C   UNL     1      -3.506   3.745  -0.412  0.00  0.00    +0.043 A 
ATOM      3  C   UNL     1      -4.572   4.370   0.276  0.00  0.00    +0.048 A 
ATOM      4  C   UNL     1      -5.404   3.392   0.676  0.00  0.00    +0.146 A 
ATOM      5  O   UNL     1      -4.905   2.215   0.263  0.00  0.00    -0.463 OA
ENDROOT
BRANCH   1   6
ATOM      6  C   UNL     1      -2.882   1.356  -1.006  0.00  0.00    -0.002 C 
BRANCH   6   7
ATOM      7  N   UNL     1      -1.990   0.801   0.021  0.00  0.00    +0.389 N 
ATOM      8  H   UNL     1      -2.535   0.504   0.816  0.00  0.00    -0.080 HD
BRANCH   7  10
ATOM      9  C   UNL     1      -0.243   1.326   1.655  0.00  0.00    -0.013 C 
ATOM     10  C   UNL     1      -1.029   1.830   0.443  0.00  0.00    -0.074 C 
ATOM     11  C   UNL     1      -0.062   2.127  -0.705  0.00  0.00    -0.013 C 
ENDBRANCH   7  10
BRANCH   7  12
ATOM     12  C   UNL     1      -1.263  -0.349  -0.533  0.00  0.00    -0.038 C 
BRANCH  12  13
ATOM     13  C   UNL     1      -0.562  -1.084   0.581  0.00  0.00    -0.019 A 
ATOM     14  C   UNL     1       0.787  -1.370   0.479  0.00  0.00    +0.005 A 
ATOM     15  C   UNL     1       1.432  -2.044   1.499  0.00  0.00    +0.004 A 
ATOM     16  C   UNL     1       0.731  -2.435   2.626  0.00  0.00    +0.049 A 
ATOM     17  C   UNL     1      -0.620  -2.151   2.734  0.00  0.00    +0.162 A 
ATOM     18  C   UNL     1      -1.269  -1.468   1.709  0.00  0.00    +0.163 A 
BRANCH  18  19
ATOM     19  O   UNL     1      -2.594  -1.182   1.813  0.00  0.00    -0.491 OA
ATOM     20  C   UNL     1      -3.510  -2.156   1.308  0.00  0.00    +0.277 C 
ENDBRANCH  18  19
BRANCH  17  21
ATOM     21  O   UNL     1      -1.311  -2.535   3.841  0.00  0.00    -0.491 OA
ATOM     22  C   UNL     1      -0.579  -3.228   4.854  0.00  0.00    +0.277 C 
ENDBRANCH  17  21
ENDBRANCH  12  13
ENDBRANCH   7  12
ENDBRANCH   6   7
ENDBRANCH   1   6
BRANCH   4  23
ATOM     23  C   UNL     1      -6.683   3.584   1.450  0.00  0.00    +0.174 C 
BRANCH  23  24
ATOM     24  C   UNL     1      -7.656   2.490   1.093  0.00  0.00    -0.004 A 
ATOM     25  C   UNL     1      -8.818   2.794   0.409  0.00  0.00    +0.007 A 
ATOM     26  C   UNL     1      -9.710   1.790   0.081  0.00  0.00    +0.000 A 
ATOM     27  C   UNL     1      -9.440   0.482   0.438  0.00  0.00    +0.000 A 
ATOM     28  C   UNL     1      -8.277   0.178   1.121  0.00  0.00    +0.000 A 
ATOM     29  C   UNL     1      -7.383   1.181   1.445  0.00  0.00    +0.007 A 
ENDBRANCH  23  24
BRANCH  23  30
ATOM     30  C   UNL     1      -6.389   3.533   2.927  0.00  0.00    -0.004 A 
ATOM     31  C   UNL     1      -5.415   2.678   3.408  0.00  0.00    +0.007 A 
ATOM     32  C   UNL     1      -5.145   2.631   4.763  0.00  0.00    +0.000 A 
ATOM     33  C   UNL     1      -5.848   3.439   5.636  0.00  0.00    +0.000 A 
ATOM     34  C   UNL     1      -6.822   4.294   5.155  0.00  0.00    +0.000 A 
ATOM     35  C   UNL     1      -7.089   4.344   3.800  0.00  0.00    +0.007 A 
ENDBRANCH  23  30
BRANCH  23  36
ATOM     36  O   UNL     1      -7.252   4.853   1.121  0.00  0.00    -0.372 OA
ATOM     37  H   UNL     1      -6.680   5.605   1.325  0.00  0.00    +0.212 HD
ENDBRANCH  23  36
ENDBRANCH   4  23
TORSDOF 11
