REMARK  Name = ZINC36567721
REMARK  17 active torsions:
REMARK  status: ('A' for Active; 'I' for Inactive)
REMARK    1  A    between atoms: C_1  and  C_2
REMARK    2  A    between atoms: C_2  and  C_3
REMARK    3  A    between atoms: C_3  and  N_4
REMARK    4  A    between atoms: N_4  and  C_5
REMARK    5  A    between atoms: C_5  and  C_7
REMARK    6  A    between atoms: C_5  and  C_14
REMARK    7  A    between atoms: C_12  and  O_13
REMARK    8  A    between atoms: N_16  and  C_17
REMARK    9  A    between atoms: C_17  and  C_18
REMARK   10  A    between atoms: C_17  and  C_19
REMARK   11  A    between atoms: C_17  and  C_20
REMARK   12  A    between atoms: C_20  and  C_21
REMARK   13  A    between atoms: C_21  and  C_22
REMARK   14  A    between atoms: C_21  and  C_23
REMARK   15  A    between atoms: C_21  and  C_24
REMARK   16  A    between atoms: C_25  and  C_27
REMARK   17  A    between atoms: C_32  and  O_33
REMARK                            x       y       z     vdW  Elec       q    Type
REMARK                         _______ _______ _______ _____ _____    ______ ____
ROOT
ATOM      1  C   UNL     1      -1.333  -4.463   0.065  0.00  0.00    +0.196 C 
ENDROOT
BRANCH   1   2
ATOM      2  C   UNL     1      -0.261  -3.468   0.427  0.00  0.00    +0.023 A 
ATOM      3  C   UNL     1      -0.079  -2.336  -0.344  0.00  0.00    +0.009 A 
ATOM      4  C   UNL     1       0.905  -1.423  -0.013  0.00  0.00    +0.001 A 
ATOM      5  C   UNL     1       1.709  -1.640   1.091  0.00  0.00    +0.004 A 
ATOM      6  C   UNL     1       1.532  -2.770   1.865  0.00  0.00    +0.046 A 
ATOM      7  C   UNL     1       0.541  -3.685   1.538  0.00  0.00    +0.122 A 
BRANCH   7   8
ATOM      8  O   UNL     1       0.360  -4.795   2.301  0.00  0.00    -0.506 OA
ATOM      9  H   UNL     1       0.886  -5.556   2.019  0.00  0.00    +0.292 HD
ENDBRANCH   7   8
ENDBRANCH   1   2
BRANCH   1  10
ATOM     10  C   UNL     1      -2.321  -4.572   1.198  0.00  0.00    +0.239 C 
ATOM     11  O   UNL     1      -3.433  -4.105   1.079  0.00  0.00    -0.273 OA
ATOM     12  N   UNL     1      -1.967  -5.188   2.343  0.00  0.00    -0.308 N 
ATOM     13  H   UNL     1      -1.077  -5.561   2.438  0.00  0.00    +0.149 HD
BRANCH  12  14
ATOM     14  C   UNL     1      -2.927  -5.294   3.445  0.00  0.00    +0.030 C 
ATOM     15  C   UNL     1      -2.957  -3.977   4.223  0.00  0.00    +0.031 C 
ATOM     16  C   UNL     1      -4.320  -5.584   2.881  0.00  0.00    +0.031 C 
BRANCH  14  17
ATOM     17  C   UNL     1      -2.508  -6.430   4.380  0.00  0.00    +0.031 C 
BRANCH  17  18
ATOM     18  C   UNL     1      -2.000  -7.611   3.550  0.00  0.00    -0.036 C 
ATOM     19  C   UNL     1      -0.495  -7.463   3.319  0.00  0.00    +0.010 C 
ATOM     20  C   UNL     1      -2.274  -8.916   4.301  0.00  0.00    +0.010 C 
ATOM     21  C   UNL     1      -2.723  -7.636   2.202  0.00  0.00    +0.010 C 
ENDBRANCH  17  18
ENDBRANCH  14  17
ENDBRANCH  12  14
ENDBRANCH   1  10
BRANCH   1  22
ATOM     22  N   UNL     1      -2.026  -4.015  -1.146  0.00  0.00    -0.282 N 
ATOM     23  C   UNL     1      -1.615  -4.446  -2.355  0.00  0.00    +0.251 C 
ATOM     24  O   UNL     1      -2.240  -4.141  -3.353  0.00  0.00    -0.270 OA
BRANCH  23  25
ATOM     25  C   UNL     1      -0.408  -5.287  -2.469  0.00  0.00    +0.078 A 
ATOM     26  C   UNL     1       0.495  -5.366  -1.406  0.00  0.00    +0.017 A 
ATOM     27  C   UNL     1       1.620  -6.154  -1.518  0.00  0.00    +0.001 A 
ATOM     28  C   UNL     1       1.860  -6.868  -2.680  0.00  0.00    +0.004 A 
ATOM     29  C   UNL     1       0.976  -6.798  -3.739  0.00  0.00    +0.046 A 
ATOM     30  C   UNL     1      -0.164  -6.014  -3.641  0.00  0.00    +0.129 A 
BRANCH  30  31
ATOM     31  O   UNL     1      -1.037  -5.949  -4.678  0.00  0.00    -0.506 OA
ATOM     32  H   UNL     1      -0.843  -5.244  -5.311  0.00  0.00    +0.292 HD
ENDBRANCH  30  31
ENDBRANCH  23  25
BRANCH  22  33
ATOM     33  C   UNL     1      -3.165  -3.100  -1.042  0.00  0.00    +0.109 C 
BRANCH  33  35
ATOM     34  C   UNL     1      -5.656  -2.948  -1.166  0.00  0.00    +0.005 C 
ATOM     35  C   UNL     1      -4.439  -3.819  -1.488  0.00  0.00    +0.016 C 
ENDBRANCH  33  35
ENDBRANCH  22  33
ENDBRANCH   1  22
TORSDOF 11
