REMARK  Name = ZINC39971172
REMARK  11 active torsions:
REMARK  status: ('A' for Active; 'I' for Inactive)
REMARK    1  A    between atoms: C_1  and  N_2
REMARK    2  A    between atoms: N_2  and  S_3
REMARK    3  A    between atoms: S_3  and  C_6
REMARK    4  A    between atoms: C_9  and  N_12
REMARK    5  A    between atoms: N_12  and  C_13
REMARK    6  A    between atoms: C_13  and  N_15
REMARK    7  A    between atoms: N_15  and  C_16
REMARK    8  A    between atoms: C_16  and  C_17
REMARK    9  A    between atoms: C_17  and  C_18
REMARK   10  A    between atoms: C_18  and  C_19
REMARK   11  A    between atoms: C_18  and  C_25
REMARK                            x       y       z     vdW  Elec       q    Type
REMARK                         _______ _______ _______ _____ _____    ______ ____
ROOT
ATOM      1  N   UNL     1      -3.919  -1.131  -7.301  0.00  0.00    -0.326 N 
ATOM      2  H   UNL     1      -4.557  -0.448  -7.040  0.00  0.00    +0.148 HD
ENDROOT
BRANCH   1   3
ATOM      3  C   UNL     1      -3.170  -1.745  -6.364  0.00  0.00    +0.135 C 
ATOM      4  S   UNL     1      -2.044  -2.951  -6.823  0.00  0.00    -0.019 S 
BRANCH   3   5
ATOM      5  N   UNL     1      -3.306  -1.410  -5.066  0.00  0.00    -0.297 N 
ATOM      6  H   UNL     1      -3.998  -0.787  -4.796  0.00  0.00    +0.154 HD
BRANCH   5  10
ATOM      7  C   UNL     1      -0.752  -3.049  -2.212  0.00  0.00    +0.105 A 
ATOM      8  C   UNL     1      -0.246  -2.623  -3.427  0.00  0.00    +0.030 A 
ATOM      9  C   UNL     1      -1.090  -2.079  -4.375  0.00  0.00    +0.025 A 
ATOM     10  C   UNL     1      -2.448  -1.960  -4.107  0.00  0.00    +0.033 A 
ATOM     11  C   UNL     1      -2.952  -2.389  -2.886  0.00  0.00    +0.025 A 
ATOM     12  C   UNL     1      -2.104  -2.937  -1.944  0.00  0.00    +0.030 A 
BRANCH   7  13
ATOM     13  S   UNL     1       0.329  -3.742  -1.005  0.00  0.00    +0.058 S 
ATOM     14  O   UNL     1      -0.304  -3.566   0.256  0.00  0.00    -0.153 OA
ATOM     15  O   UNL     1       1.627  -3.235  -1.282  0.00  0.00    -0.153 OA
BRANCH  13  17
ATOM     16  C   UNL     1       0.969  -5.885  -2.525  0.00  0.00    +0.127 C 
ATOM     17  N   UNL     1       0.389  -5.373  -1.280  0.00  0.00    -0.193 NA
ATOM     18  H   UNL     1       0.040  -5.990  -0.618  0.00  0.00    +0.148 HD
ENDBRANCH  13  17
ENDBRANCH   7  13
ENDBRANCH   5  10
ENDBRANCH   3   5
ENDBRANCH   1   3
BRANCH   1  19
ATOM     19  C   UNL     1      -3.771  -1.496  -8.712  0.00  0.00    +0.104 C 
BRANCH  19  20
ATOM     20  C   UNL     1      -4.731  -0.657  -9.559  0.00  0.00    +0.031 C 
BRANCH  20  21
ATOM     21  C   UNL     1      -4.576  -1.037 -11.032  0.00  0.00    +0.050 C 
BRANCH  21  22
ATOM     22  C   UNL     1      -5.014  -2.466 -11.231  0.00  0.00    -0.040 A 
ATOM     23  C   UNL     1      -4.172  -3.366 -11.856  0.00  0.00    +0.004 A 
ATOM     24  C   UNL     1      -4.574  -4.676 -12.038  0.00  0.00    +0.000 A 
ATOM     25  C   UNL     1      -5.817  -5.086 -11.595  0.00  0.00    +0.000 A 
ATOM     26  C   UNL     1      -6.659  -4.185 -10.969  0.00  0.00    +0.000 A 
ATOM     27  C   UNL     1      -6.256  -2.876 -10.783  0.00  0.00    +0.004 A 
ENDBRANCH  21  22
BRANCH  21  28
ATOM     28  C   UNL     1      -5.430  -0.128 -11.878  0.00  0.00    -0.040 A 
ATOM     29  C   UNL     1      -6.765   0.051 -11.569  0.00  0.00    +0.004 A 
ATOM     30  C   UNL     1      -7.548   0.885 -12.345  0.00  0.00    +0.000 A 
ATOM     31  C   UNL     1      -6.996   1.541 -13.430  0.00  0.00    +0.000 A 
ATOM     32  C   UNL     1      -5.660   1.363 -13.738  0.00  0.00    +0.000 A 
ATOM     33  C   UNL     1      -4.876   0.532 -12.959  0.00  0.00    +0.004 A 
ENDBRANCH  21  28
ENDBRANCH  20  21
ENDBRANCH  19  20
ENDBRANCH   1  19
TORSDOF 10
