REMARK  Name = ZINC35474387
REMARK  7 active torsions:
REMARK  status: ('A' for Active; 'I' for Inactive)
REMARK    1  A    between atoms: C_1  and  C_2
REMARK    2  A    between atoms: C_2  and  N_3
REMARK    3  A    between atoms: N_3  and  C_4
REMARK    4  A    between atoms: C_4  and  C_5
REMARK    5  A    between atoms: C_8  and  C_11
REMARK    6  A    between atoms: C_14  and  C_17
REMARK    7  A    between atoms: N_20  and  C_21
REMARK                            x       y       z     vdW  Elec       q    Type
REMARK                         _______ _______ _______ _____ _____    ______ ____
ROOT
ATOM      1  N   UNL     1      -1.372  -0.511   0.012  0.00  0.00    -0.282 N 
ATOM      2  C   UNL     1      -1.993  -0.751   1.184  0.00  0.00    +0.303 C 
ATOM      3  O   UNL     1      -3.134  -1.171   1.193  0.00  0.00    -0.253 OA
ATOM      4  N   UNL     1      -1.350  -0.524   2.347  0.00  0.00    -0.294 N 
ATOM      5  H   UNL     1      -0.440  -0.188   2.340  0.00  0.00    +0.151 HD
ENDROOT
BRANCH   4   6
ATOM      6  C   UNL     1      -2.025  -0.784   3.620  0.00  0.00    +0.037 C 
ATOM      7  C   UNL     1      -2.417  -2.261   3.697  0.00  0.00    +0.029 C 
ATOM      8  C   UNL     1      -3.122  -2.533   5.028  0.00  0.00    -0.008 C 
ATOM      9  C   UNL     1      -2.178  -2.195   6.184  0.00  0.00    +0.007 C 
ATOM     10  C   UNL     1      -1.786  -0.718   6.107  0.00  0.00    -0.008 C 
ATOM     11  C   UNL     1      -1.081  -0.446   4.776  0.00  0.00    +0.029 C 
ATOM     12  C   UNL     1      -3.043   0.149   6.204  0.00  0.00    +0.007 C 
ATOM     13  C   UNL     1      -3.987  -0.189   5.049  0.00  0.00    -0.008 C 
ATOM     14  C   UNL     1      -4.379  -1.666   5.125  0.00  0.00    +0.007 C 
ATOM     15  C   UNL     1      -3.282   0.083   3.718  0.00  0.00    +0.029 C 
ENDBRANCH   4   6
BRANCH   1  17
ATOM     16  C   UNL     1      -0.019   1.526   0.010  0.00  0.00    +0.024 C 
ATOM     17  C   UNL     1       0.002  -0.004   0.002  0.00  0.00    +0.106 C 
ENDBRANCH   1  17
BRANCH   1  18
ATOM     18  C   UNL     1      -2.072  -0.758  -1.251  0.00  0.00    +0.157 C 
BRANCH  18  19
ATOM     19  C   UNL     1      -1.816  -2.197  -1.703  0.00  0.00    +0.227 C 
ATOM     20  C   UNL     1      -2.476  -2.472  -3.075  0.00  0.00    +0.108 C 
ATOM     21  C   UNL     1      -1.458  -3.366  -3.757  0.00  0.00    +0.091 C 
ATOM     22  N   UNL     1      -0.346  -3.282  -3.107  0.00  0.00    -0.089 NA
ATOM     23  O   UNL     1      -0.420  -2.404  -2.001  0.00  0.00    -0.388 OA
BRANCH  21  24
ATOM     24  C   UNL     1      -1.698  -4.191  -4.958  0.00  0.00    -0.000 A 
ATOM     25  C   UNL     1      -2.952  -4.188  -5.572  0.00  0.00    +0.010 A 
ATOM     26  C   UNL     1      -3.169  -4.961  -6.694  0.00  0.00    +0.004 A 
ATOM     27  C   UNL     1      -2.148  -5.738  -7.210  0.00  0.00    -0.050 A 
ATOM     28  C   UNL     1      -0.903  -5.746  -6.607  0.00  0.00    +0.004 A 
ATOM     29  C   UNL     1      -0.670  -4.973  -5.489  0.00  0.00    +0.010 A 
ATOM     30  C   UNL     1      -2.393  -6.580  -8.436  0.00  0.00    +0.044 C 
ENDBRANCH  21  24
ENDBRANCH  18  19
ENDBRANCH   1  18
TORSDOF 5
