REMARK  Name = ZINC62510589
REMARK  6 active torsions:
REMARK  status: ('A' for Active; 'I' for Inactive)
REMARK    1  A    between atoms: C_7  and  C_16
REMARK    2  A    between atoms: C_9  and  C_10
REMARK    3  A    between atoms: N_18  and  C_19
REMARK    4  A    between atoms: C_19  and  C_20
REMARK    5  A    between atoms: C_20  and  C_26
REMARK    6  A    between atoms: C_26  and  O_27
REMARK                            x       y       z     vdW  Elec       q    Type
REMARK                         _______ _______ _______ _____ _____    ______ ____
ROOT
ATOM      1  C   UNL     1      -0.016   1.359   0.009  0.00  0.00    +0.004 A 
ATOM      2  C   UNL     1       1.195   2.068   0.002  0.00  0.00    +0.018 A 
ATOM      3  C   UNL     1       2.374   1.409  -0.013  0.00  0.00    +0.093 A 
ATOM      4  N   UNL     1       2.406   0.044  -0.022  0.00  0.00    -0.302 N 
ATOM      5  C   UNL     1       1.235  -0.671  -0.014  0.00  0.00    +0.078 A 
ATOM      6  C   UNL     1       0.002  -0.004   0.002  0.00  0.00    +0.028 A 
ATOM      7  C   UNL     1       1.601  -2.024  -0.025  0.00  0.00    +0.151 A 
ATOM      8  N   UNL     1       2.949  -2.067  -0.039  0.00  0.00    -0.226 NA
ATOM      9  C   UNL     1       3.428  -0.857  -0.037  0.00  0.00    +0.118 A 
ENDROOT
BRANCH   9  10
ATOM     10  C   UNL     1       4.893  -0.505  -0.050  0.00  0.00    +0.056 C 
ATOM     11  C   UNL     1       5.545  -1.080  -1.309  0.00  0.00    +0.011 C 
ATOM     12  C   UNL     1       7.033  -0.723  -1.322  0.00  0.00    +0.001 C 
ATOM     13  C   UNL     1       7.710  -1.312  -0.083  0.00  0.00    +0.000 C 
ATOM     14  C   UNL     1       7.058  -0.737   1.176  0.00  0.00    +0.001 C 
ATOM     15  C   UNL     1       5.570  -1.094   1.189  0.00  0.00    +0.011 C 
ENDBRANCH   9  10
BRANCH   7  16
ATOM     16  C   UNL     1       0.694  -3.171  -0.022  0.00  0.00    +0.265 C 
ATOM     17  O   UNL     1      -0.511  -2.994  -0.009  0.00  0.00    -0.268 OA
ATOM     18  N   UNL     1       1.191  -4.424  -0.035  0.00  0.00    -0.309 N 
ATOM     19  H   UNL     1       2.151  -4.565  -0.045  0.00  0.00    +0.149 HD
BRANCH  18  20
ATOM     20  C   UNL     1       0.282  -5.573  -0.032  0.00  0.00    +0.113 C 
BRANCH  20  21
ATOM     21  C   UNL     1       1.097  -6.868  -0.048  0.00  0.00    +0.009 C 
ATOM     22  C   UNL     1       1.966  -6.908  -1.306  0.00  0.00    +0.011 C 
ATOM     23  C   UNL     1       1.071  -6.853  -2.546  0.00  0.00    +0.001 C 
ATOM     24  C   UNL     1       0.122  -8.053  -2.543  0.00  0.00    +0.000 C 
ATOM     25  C   UNL     1      -0.747  -8.013  -1.285  0.00  0.00    +0.001 C 
ATOM     26  C   UNL     1       0.147  -8.068  -0.045  0.00  0.00    +0.011 C 
BRANCH  21  27
ATOM     27  C   UNL     1       1.991  -6.922   1.192  0.00  0.00    +0.164 C 
BRANCH  27  28
ATOM     28  O   UNL     1       2.878  -5.801   1.190  0.00  0.00    -0.394 OA
ATOM     29  H   UNL     1       3.476  -5.771   1.949  0.00  0.00    +0.209 HD
ENDBRANCH  27  28
ENDBRANCH  21  27
ENDBRANCH  20  21
ENDBRANCH  18  20
ENDBRANCH   7  16
TORSDOF 6
