REMARK  Name = ZINC08999820
REMARK  8 active torsions:
REMARK  status: ('A' for Active; 'I' for Inactive)
REMARK    1  A    between atoms: C_1  and  C_2
REMARK    2  A    between atoms: C_2  and  C_3
REMARK    3  A    between atoms: N_9  and  S_10
REMARK    4  A    between atoms: S_10  and  C_13
REMARK    5  A    between atoms: C_16  and  C_19
REMARK    6  A    between atoms: C_19  and  N_21
REMARK    7  A    between atoms: N_23  and  C_32
REMARK    8  A    between atoms: C_32  and  C_33
REMARK                            x       y       z     vdW  Elec       q    Type
REMARK                         _______ _______ _______ _____ _____    ______ ____
ROOT
ATOM      1  C   UNL     1       0.324  -0.684   1.416  0.00  0.00    +0.106 A 
ATOM      2  C   UNL     1       1.603  -0.787   1.935  0.00  0.00    +0.029 A 
ATOM      3  C   UNL     1       1.798  -1.313   3.196  0.00  0.00    +0.015 A 
ATOM      4  C   UNL     1       0.705  -1.750   3.943  0.00  0.00    +0.039 A 
ATOM      5  C   UNL     1      -0.581  -1.649   3.412  0.00  0.00    +0.015 A 
ATOM      6  C   UNL     1      -0.764  -1.117   2.152  0.00  0.00    +0.029 A 
ENDROOT
BRANCH   1   7
ATOM      7  S   UNL     1       0.082  -0.007  -0.193  0.00  0.00    +0.061 S 
ATOM      8  O   UNL     1      -1.043  -0.673  -0.749  0.00  0.00    -0.153 OA
ATOM      9  O   UNL     1       1.354  -0.001  -0.826  0.00  0.00    -0.153 OA
BRANCH   7  15
ATOM     10  C   UNL     1       0.663   2.615   0.216  0.00  0.00    +0.080 C 
ATOM     11  C   UNL     1       0.461   3.724  -0.821  0.00  0.00    +0.021 C 
ATOM     12  C   UNL     1      -0.981   4.234  -0.743  0.00  0.00    +0.003 C 
ATOM     13  C   UNL     1      -1.946   3.090  -1.063  0.00  0.00    +0.017 C 
ATOM     14  C   UNL     1      -1.770   1.974  -0.034  0.00  0.00    +0.110 C 
ATOM     15  N   UNL     1      -0.355   1.578   0.005  0.00  0.00    -0.174 NA
BRANCH  10  17
ATOM     16  C   UNL     1       3.115   3.046   0.426  0.00  0.00    +0.005 C 
ATOM     17  C   UNL     1       2.057   2.006   0.054  0.00  0.00    +0.017 C 
ENDBRANCH  10  17
ENDBRANCH   7  15
ENDBRANCH   1   7
BRANCH   4  18
ATOM     18  C   UNL     1       0.908  -2.320   5.295  0.00  0.00    +0.269 C 
ATOM     19  O   UNL     1      -0.049  -2.701   5.946  0.00  0.00    -0.268 OA
BRANCH  18  20
ATOM     20  N   UNL     1       2.142  -2.416   5.801  0.00  0.00    -0.152 NA
ATOM     21  C   UNL     1       2.324  -2.928   7.014  0.00  0.00    +0.167 A 
ATOM     22  N   UNL     1       3.493  -3.109   7.686  0.00  0.00    -0.317 N 
ATOM     23  C   UNL     1       3.484  -3.658   8.955  0.00  0.00    +0.058 A 
ATOM     24  C   UNL     1       4.576  -3.917   9.799  0.00  0.00    +0.030 A 
ATOM     25  C   UNL     1       4.389  -4.479  11.039  0.00  0.00    +0.040 A 
ATOM     26  C   UNL     1       3.121  -4.807  11.496  0.00  0.00    +0.125 A 
ATOM     27  C   UNL     1       2.026  -4.562  10.683  0.00  0.00    +0.055 A 
ATOM     28  C   UNL     1       2.214  -4.000   9.442  0.00  0.00    +0.042 A 
ATOM     29  S   UNL     1       1.130  -3.531   8.117  0.00  0.00    -0.052 S 
ATOM     30  F   UNL     1       2.956  -5.358  12.718  0.00  0.00    -0.205 F 
BRANCH  22  31
ATOM     31  C   UNL     1       4.761  -2.717   7.066  0.00  0.00    +0.151 C 
BRANCH  31  32
ATOM     32  C   UNL     1       4.652  -2.852   5.569  0.00  0.00    -0.013 C 
ATOM     33  C   UNL     1       4.919  -1.828   4.798  0.00  0.00    +0.005 C 
ENDBRANCH  31  32
ENDBRANCH  22  31
ENDBRANCH  18  20
ENDBRANCH   4  18
TORSDOF 7
