REMARK  Name = ZINC09449538
REMARK  10 active torsions:
REMARK  status: ('A' for Active; 'I' for Inactive)
REMARK    1  A    between atoms: C_1  and  C_2
REMARK    2  A    between atoms: C_6  and  N_8
REMARK    3  A    between atoms: C_9  and  C_11
REMARK    4  A    between atoms: C_11  and  S_12
REMARK    5  A    between atoms: S_12  and  C_13
REMARK    6  A    between atoms: C_18  and  N_30
REMARK    7  A    between atoms: C_19  and  C_28
REMARK    8  A    between atoms: C_24  and  C_26
REMARK    9  A    between atoms: C_24  and  C_27
REMARK   10  A    between atoms: N_30  and  C_31
REMARK                            x       y       z     vdW  Elec       q    Type
REMARK                         _______ _______ _______ _____ _____    ______ ____
ROOT
ATOM      1  C   UNL     1      -1.554  -4.715   2.471  0.00  0.00    +0.198 A 
ATOM      2  N   UNL     1      -0.331  -4.650   1.996  0.00  0.00    -0.122 NA
ATOM      3  N   UNL     1      -0.026  -3.433   1.714  0.00  0.00    -0.128 NA
ATOM      4  C   UNL     1      -1.043  -2.640   1.994  0.00  0.00    +0.169 A 
ATOM      5  N   UNL     1      -2.050  -3.441   2.487  0.00  0.00    -0.256 N 
ATOM      6  C   UNL     1      -3.243  -2.897   2.870  0.00  0.00    +0.129 A 
ATOM      7  C   UNL     1      -3.445  -1.528   2.757  0.00  0.00    +0.094 A 
ATOM      8  C   UNL     1      -2.411  -0.695   2.246  0.00  0.00    -0.015 A 
ATOM      9  C   UNL     1      -1.232  -1.242   1.877  0.00  0.00    +0.027 A 
ATOM     10  C   UNL     1      -0.100  -0.402   1.346  0.00  0.00    +0.199 C 
ATOM     11  O   UNL     1      -0.575   0.886   0.955  0.00  0.00    -0.369 OA
ATOM     12  C   UNL     1      -1.342   1.533   1.977  0.00  0.00    +0.068 C 
ATOM     13  C   UNL     1      -2.668   0.785   2.131  0.00  0.00    +0.071 C 
ATOM     14  C   UNL     1      -1.612   2.985   1.578  0.00  0.00    +0.041 C 
ATOM     15  C   UNL     1      -0.573   1.496   3.299  0.00  0.00    +0.041 C 
ENDROOT
BRANCH   7  16
ATOM     16  C   UNL     1      -4.694  -0.954   3.156  0.00  0.00    +0.103 C 
ATOM     17  N   UNL     1      -5.686  -0.498   3.473  0.00  0.00    -0.191 NA
ENDBRANCH   7  16
BRANCH   6  18
ATOM     18  N   UNL     1      -4.240  -3.702   3.364  0.00  0.00    -0.299 N 
ATOM     19  H   UNL     1      -4.298  -3.873   4.317  0.00  0.00    +0.154 HD
BRANCH  18  20
ATOM     20  C   UNL     1      -5.172  -4.274   2.493  0.00  0.00    +0.032 A 
ATOM     21  C   UNL     1      -5.022  -4.131   1.120  0.00  0.00    +0.023 A 
ATOM     22  C   UNL     1      -5.941  -4.701   0.262  0.00  0.00    +0.002 A 
ATOM     23  C   UNL     1      -7.017  -5.407   0.770  0.00  0.00    +0.000 A 
ATOM     24  C   UNL     1      -7.173  -5.547   2.137  0.00  0.00    +0.002 A 
ATOM     25  C   UNL     1      -6.254  -4.983   3.000  0.00  0.00    +0.023 A 
ENDBRANCH  18  20
ENDBRANCH   6  18
BRANCH   1  26
ATOM     26  S   UNL     1      -2.397  -6.173   2.992  0.00  0.00    -0.076 S 
BRANCH  26  27
ATOM     27  C   UNL     1      -1.156  -7.484   2.816  0.00  0.00    +0.173 C 
BRANCH  27  29
ATOM     28  N   UNL     1      -1.017  -9.922   3.209  0.00  0.00    -0.285 N 
ATOM     29  C   UNL     1      -1.783  -8.815   3.143  0.00  0.00    +0.227 C 
ATOM     30  O   UNL     1      -2.976  -8.890   3.346  0.00  0.00    -0.275 OA
ATOM     31  H   UNL     1      -0.052  -9.850   3.137  0.00  0.00    +0.155 HD
BRANCH  28  37
ATOM     32  C   UNL     1      -0.853 -14.463   5.087  0.00  0.00    +0.044 C 
ATOM     33  C   UNL     1      -1.556 -13.396   4.288  0.00  0.00    -0.049 A 
ATOM     34  C   UNL     1      -2.792 -13.656   3.726  0.00  0.00    +0.003 A 
ATOM     35  C   UNL     1      -3.441 -12.679   2.993  0.00  0.00    +0.002 A 
ATOM     36  C   UNL     1      -2.857 -11.438   2.824  0.00  0.00    +0.023 A 
ATOM     37  C   UNL     1      -1.613 -11.176   3.383  0.00  0.00    +0.034 A 
ATOM     38  C   UNL     1      -0.965 -12.159   4.119  0.00  0.00    +0.026 A 
ENDBRANCH  28  37
ENDBRANCH  27  29
ENDBRANCH  26  27
ENDBRANCH   1  26
TORSDOF 7
