REMARK  Name = ZINC01462164
REMARK  5 active torsions:
REMARK  status: ('A' for Active; 'I' for Inactive)
REMARK    1  A    between atoms: C_3  and  C_8
REMARK    2  A    between atoms: C_11  and  C_13
REMARK    3  A    between atoms: C_14  and  C_15
REMARK    4  A    between atoms: C_14  and  C_17
REMARK    5  A    between atoms: N_19  and  C_20
REMARK                            x       y       z     vdW  Elec       q    Type
REMARK                         _______ _______ _______ _____ _____    ______ ____
ROOT
ATOM      1  C   UNL     1      -3.589   0.666  -3.330  0.00  0.00    +0.070 C 
ATOM      2  C   UNL     1      -2.507   1.378  -2.832  0.00  0.00    +0.117 C 
ENDROOT
BRANCH   1   6
ATOM      3  C   UNL     1      -4.867   2.394  -6.164  0.00  0.00    +0.136 A 
ATOM      4  C   UNL     1      -5.740   1.327  -6.137  0.00  0.00    +0.050 A 
ATOM      5  C   UNL     1      -5.373   0.526  -5.057  0.00  0.00    +0.050 A 
ATOM      6  C   UNL     1      -4.280   1.137  -4.458  0.00  0.00    +0.130 A 
ATOM      7  O   UNL     1      -4.000   2.265  -5.145  0.00  0.00    -0.455 OA
BRANCH   3  10
ATOM      8  C   UNL     1      -5.856   4.552  -9.072  0.00  0.00    +0.002 A 
ATOM      9  C   UNL     1      -5.842   3.516  -8.162  0.00  0.00    +0.011 A 
ATOM     10  C   UNL     1      -4.885   3.497  -7.144  0.00  0.00    +0.018 A 
ATOM     11  C   UNL     1      -3.940   4.524  -7.063  0.00  0.00    +0.026 A 
ATOM     12  C   UNL     1      -3.963   5.551  -7.984  0.00  0.00    +0.019 A 
ATOM     13  C   UNL     1      -4.918   5.566  -8.987  0.00  0.00    +0.015 A 
ATOM     14 BR   UNL     1      -2.687   6.942  -7.877  0.00  0.00    -0.050 Br
ENDBRANCH   3  10
ENDBRANCH   1   6
BRANCH   2  15
ATOM     15  C   UNL     1      -1.784   0.885  -1.653  0.00  0.00    +0.255 C 
ATOM     16  O   UNL     1      -2.134  -0.147  -1.112  0.00  0.00    -0.269 OA
ATOM     17  N   UNL     1      -0.734   1.577  -1.169  0.00  0.00    -0.306 N 
ATOM     18  H   UNL     1      -0.455   2.400  -1.599  0.00  0.00    +0.149 HD
BRANCH  17  19
ATOM     19  C   UNL     1      -0.013   1.086   0.008  0.00  0.00    +0.096 C 
ATOM     20  C   UNL     1      -0.703   1.589   1.287  0.00  0.00    +0.046 C 
ATOM     21  C   UNL     1       0.216   1.352   2.510  0.00  0.00    +0.168 C 
ATOM     22  S   UNL     1       1.898   1.415   1.770  0.00  0.00    -0.029 S 
ATOM     23  O   UNL     1       2.523   0.149   1.935  0.00  0.00    -0.174 OA
ATOM     24  O   UNL     1       2.561   2.587   2.223  0.00  0.00    -0.174 OA
ATOM     25  C   UNL     1       1.444   1.631  -0.003  0.00  0.00    +0.188 C 
ENDBRANCH  17  19
ENDBRANCH   2  15
BRANCH   2  26
ATOM     26  C   UNL     1      -2.096   2.593  -3.468  0.00  0.00    +0.104 C 
ATOM     27  N   UNL     1      -1.769   3.557  -3.972  0.00  0.00    -0.191 NA
ENDBRANCH   2  26
TORSDOF 5
