REMARK  Name = ZINC13037787
REMARK  6 active torsions:
REMARK  status: ('A' for Active; 'I' for Inactive)
REMARK    1  A    between atoms: C_4  and  C_7
REMARK    2  A    between atoms: C_9  and  C_12
REMARK    3  A    between atoms: C_12  and  S_13
REMARK    4  A    between atoms: S_13  and  C_14
REMARK    5  A    between atoms: C_17  and  C_20
REMARK    6  A    between atoms: N_18  and  N_19
REMARK                            x       y       z     vdW  Elec       q    Type
REMARK                         _______ _______ _______ _____ _____    ______ ____
ROOT
ATOM      1  C   UNL     1       2.045   0.769  -0.013  0.00  0.00    +0.209 A 
ATOM      2  N   UNL     1       1.186   1.764   0.000  0.00  0.00    -0.121 NA
ATOM      3  N   UNL     1      -0.016   1.308   0.009  0.00  0.00    -0.127 NA
ATOM      4  C   UNL     1       0.002  -0.004   0.002  0.00  0.00    +0.183 A 
ATOM      5  N   UNL     1       1.323  -0.390  -0.013  0.00  0.00    -0.224 N 
ENDROOT
BRANCH   4   6
ATOM      6  C   UNL     1      -1.175  -0.899   0.008  0.00  0.00    +0.039 A 
ATOM      7  C   UNL     1      -1.002  -2.284  -0.007  0.00  0.00    +0.014 A 
ATOM      8  C   UNL     1      -2.103  -3.114   0.004  0.00  0.00    +0.021 A 
ATOM      9  C   UNL     1      -3.380  -2.576   0.019  0.00  0.00    +0.042 A 
ATOM     10  C   UNL     1      -3.559  -1.203   0.029  0.00  0.00    +0.040 A 
ATOM     11  C   UNL     1      -2.464  -0.362   0.023  0.00  0.00    +0.053 A 
ATOM     12 CL   UNL     1      -2.689   1.360   0.035  0.00  0.00    -0.083 Cl
ATOM     13 CL   UNL     1      -4.761  -3.627   0.027  0.00  0.00    -0.083 Cl
ENDBRANCH   4   6
BRANCH   5  14
ATOM     14  N   UNL     1       1.810  -1.666  -0.024  0.00  0.00    -0.295 N 
ATOM     15  H   UNL     1       1.929  -1.999  -0.969  0.00  0.00    +0.163 HD
ATOM     16  H   UNL     1       2.674  -1.728   0.494  0.00  0.00    +0.163 HD
ENDBRANCH   5  14
BRANCH   1  17
ATOM     17  S   UNL     1       3.802   0.906  -0.030  0.00  0.00    -0.078 S 
BRANCH  17  18
ATOM     18  C   UNL     1       3.977   2.708  -0.022  0.00  0.00    +0.133 C 
BRANCH  18  21
ATOM     19  C   UNL     1       7.352   3.554  -1.215  0.00  0.00    +0.109 A 
ATOM     20  N   UNL     1       6.066   3.235  -1.176  0.00  0.00    -0.243 NA
ATOM     21  C   UNL     1       5.440   3.070  -0.034  0.00  0.00    +0.059 A 
ATOM     22  C   UNL     1       6.111   3.232   1.137  0.00  0.00    +0.071 A 
ATOM     23  S   UNL     1       7.744   3.636   0.527  0.00  0.00    -0.075 S 
BRANCH  19  27
ATOM     24  C   UNL     1       9.866   4.206  -4.577  0.00  0.00    +0.000 A 
ATOM     25  C   UNL     1      10.382   4.323  -3.298  0.00  0.00    +0.001 A 
ATOM     26  C   UNL     1       9.570   4.112  -2.202  0.00  0.00    +0.010 A 
ATOM     27  C   UNL     1       8.227   3.781  -2.385  0.00  0.00    +0.007 A 
ATOM     28  C   UNL     1       7.715   3.659  -3.678  0.00  0.00    +0.010 A 
ATOM     29  C   UNL     1       8.535   3.878  -4.765  0.00  0.00    +0.001 A 
ENDBRANCH  19  27
ENDBRANCH  18  21
ENDBRANCH  17  18
ENDBRANCH   1  17
TORSDOF 6
