REMARK  Name = ZINC33577981
REMARK  7 active torsions:
REMARK  status: ('A' for Active; 'I' for Inactive)
REMARK    1  A    between atoms: C_1  and  C_2
REMARK    2  A    between atoms: C_2  and  C_4
REMARK    3  A    between atoms: C_2  and  N_16
REMARK    4  A    between atoms: N_6  and  C_7
REMARK    5  A    between atoms: C_7  and  C_8
REMARK    6  A    between atoms: C_8  and  C_9
REMARK    7  A    between atoms: C_17  and  C_19
REMARK                            x       y       z     vdW  Elec       q    Type
REMARK                         _______ _______ _______ _____ _____    ______ ____
ROOT
ATOM      1  N   UNL     1       0.018  10.118   0.053  0.00  0.00    -0.299 N 
ATOM      2  C   UNL     1      -0.618   8.929   0.054  0.00  0.00    +0.263 C 
ATOM      3  O   UNL     1      -1.832   8.889   0.066  0.00  0.00    -0.269 OA
ATOM      4  H   UNL     1       1.117  10.154   0.043  0.00  0.00    +0.150 HD
ENDROOT
BRANCH   2   5
ATOM      5  C   UNL     1       0.164   7.674   0.039  0.00  0.00    +0.126 A 
ATOM      6  C   UNL     1      -0.500   6.450   0.039  0.00  0.00    +0.043 A 
ATOM      7  C   UNL     1       0.254   5.281   0.026  0.00  0.00    +0.011 A 
ATOM      8  C   UNL     1      -0.065   3.845   0.023  0.00  0.00    +0.008 A 
ATOM      9  C   UNL     1      -1.258   3.124   0.031  0.00  0.00    +0.010 A 
ATOM     10  C   UNL     1      -1.226   1.747   0.017  0.00  0.00    +0.001 A 
ATOM     11  C   UNL     1      -0.013   1.076   0.008  0.00  0.00    +0.002 A 
ATOM     12  C   UNL     1       1.175   1.775   0.000  0.00  0.00    +0.026 A 
ATOM     13  C   UNL     1       1.164   3.167   0.007  0.00  0.00    +0.048 A 
ATOM     14  N   UNL     1       2.180   4.105   0.002  0.00  0.00    -0.353 N 
ATOM     15  H   UNL     1       3.230   3.777  -0.010  0.00  0.00    +0.166 HD
ATOM     16  C   UNL     1       1.658   5.379   0.013  0.00  0.00    +0.066 A 
ATOM     17  C   UNL     1       2.240   6.647   0.013  0.00  0.00    +0.137 A 
ATOM     18  N   UNL     1       1.494   7.727   0.026  0.00  0.00    -0.248 NA
ENDBRANCH   2   5
BRANCH   1  20
ATOM     19  C   UNL     1      -1.118  11.721   1.510  0.00  0.00    +0.038 C 
ATOM     20  C   UNL     1      -0.756  11.362   0.068  0.00  0.00    +0.156 C 
BRANCH  20  21
ATOM     21  C   UNL     1       0.066  12.472  -0.535  0.00  0.00    +0.233 C 
ATOM     22  O   UNL     1       1.187  12.246  -0.937  0.00  0.00    -0.274 OA
ATOM     23  N   UNL     1      -0.446  13.715  -0.627  0.00  0.00    -0.313 N 
ATOM     24  H   UNL     1      -1.463  13.920  -0.263  0.00  0.00    +0.149 HD
BRANCH  23  25
ATOM     25  C   UNL     1       0.353  14.794  -1.214  0.00  0.00    +0.109 C 
BRANCH  25  26
ATOM     26  C   UNL     1      -0.455  16.093  -1.199  0.00  0.00    +0.054 C 
BRANCH  26  27
ATOM     27  C   UNL     1       0.367  17.203  -1.802  0.00  0.00    -0.046 A 
ATOM     28  C   UNL     1       1.180  17.977  -0.995  0.00  0.00    +0.005 A 
ATOM     29  C   UNL     1       1.938  18.992  -1.548  0.00  0.00    +0.020 A 
ATOM     30  C   UNL     1       1.875  19.240  -2.908  0.00  0.00    +0.041 A 
ATOM     31  C   UNL     1       1.057  18.468  -3.714  0.00  0.00    +0.020 A 
ATOM     32  C   UNL     1       0.303  17.451  -3.160  0.00  0.00    +0.005 A 
ATOM     33 CL   UNL     1       2.822  20.518  -3.603  0.00  0.00    -0.084 Cl
ENDBRANCH  26  27
ENDBRANCH  25  26
ENDBRANCH  23  25
ENDBRANCH  20  21
ENDBRANCH   1  20
TORSDOF 6
