REMARK  Name = ZINC33629150
REMARK  8 active torsions:
REMARK  status: ('A' for Active; 'I' for Inactive)
REMARK    1  A    between atoms: C_1  and  C_2
REMARK    2  A    between atoms: C_2  and  O_3
REMARK    3  A    between atoms: O_3  and  C_4
REMARK    4  A    between atoms: C_8  and  N_10
REMARK    5  A    between atoms: C_11  and  C_13
REMARK    6  A    between atoms: N_20  and  N_21
REMARK    7  A    between atoms: C_22  and  C_23
REMARK    8  A    between atoms: C_22  and  C_24
REMARK                            x       y       z     vdW  Elec       q    Type
REMARK                         _______ _______ _______ _____ _____    ______ ____
ROOT
ATOM      1  C   UNL     1      -5.753  -6.256  -0.209  0.00  0.00    +0.149 C 
ATOM      2  C   UNL     1      -5.698  -7.558  -1.010  0.00  0.00    +0.120 C 
ATOM      3  C   UNL     1      -6.989  -8.301  -0.980  0.00  0.00    +0.220 C 
ATOM      4  O   UNL     1      -7.214  -9.003  -1.942  0.00  0.00    -0.275 OA
ATOM      5  N   UNL     1      -7.923  -8.296  -0.041  0.00  0.00    -0.264 N 
ATOM      6  C   UNL     1      -7.917  -7.457   1.059  0.00  0.00    +0.183 C 
ATOM      7  N   UNL     1      -8.999  -7.268   1.782  0.00  0.00    -0.126 NA
ATOM      8  S   UNL     1      -6.391  -6.645   1.454  0.00  0.00    -0.075 S 
ATOM      9  H   UNL     1      -8.659  -8.922  -0.131  0.00  0.00    +0.157 HD
ENDROOT
BRANCH   1  11
ATOM     10  N   UNL     1      -4.215  -4.331   0.008  0.00  0.00    -0.284 N 
ATOM     11  C   UNL     1      -4.371  -5.665  -0.099  0.00  0.00    +0.231 C 
ATOM     12  O   UNL     1      -3.399  -6.391  -0.108  0.00  0.00    -0.274 OA
ATOM     13  H   UNL     1      -4.992  -3.757   0.092  0.00  0.00    +0.155 HD
BRANCH  10  18
ATOM     14  C   UNL     1      -1.390  -2.088   0.735  0.00  0.00    +0.122 A 
ATOM     15  C   UNL     1      -0.388  -2.676  -0.024  0.00  0.00    +0.046 A 
ATOM     16  C   UNL     1      -0.658  -3.808  -0.769  0.00  0.00    +0.005 A 
ATOM     17  C   UNL     1      -1.925  -4.359  -0.760  0.00  0.00    +0.023 A 
ATOM     18  C   UNL     1      -2.931  -3.774  -0.001  0.00  0.00    +0.037 A 
ATOM     19  C   UNL     1      -2.661  -2.640   0.751  0.00  0.00    +0.069 A 
BRANCH  14  20
ATOM     20  O   UNL     1      -1.123  -0.974   1.467  0.00  0.00    -0.492 OA
BRANCH  20  22
ATOM     21  C   UNL     1       0.318   0.786   2.285  0.00  0.00    +0.048 C 
ATOM     22  C   UNL     1       0.209  -0.460   1.403  0.00  0.00    +0.225 C 
ENDBRANCH  20  22
ENDBRANCH  14  20
ENDBRANCH  10  18
ENDBRANCH   1  11
BRANCH   7  23
ATOM     23  N   UNL     1     -10.191  -7.922   1.445  0.00  0.00    -0.151 NA
ATOM     24  C   UNL     1     -11.268  -7.734   2.164  0.00  0.00    +0.074 C 
ATOM     25  C   UNL     1     -12.549  -8.439   1.800  0.00  0.00    +0.069 C 
BRANCH  24  26
ATOM     26  C   UNL     1     -11.227  -6.840   3.321  0.00  0.00    +0.036 A 
ATOM     27  C   UNL     1     -10.165  -6.101   3.817  0.00  0.00    +0.019 A 
ATOM     28  C   UNL     1     -10.375  -5.324   4.932  0.00  0.00    +0.028 A 
ATOM     29  C   UNL     1     -11.607  -5.305   5.508  0.00  0.00    +0.079 A 
ATOM     30  S   UNL     1     -12.535  -6.411   4.457  0.00  0.00    -0.076 S 
ATOM     31 CL   UNL     1     -12.143  -4.425   6.905  0.00  0.00    -0.076 Cl
ENDBRANCH  24  26
ENDBRANCH   7  23
TORSDOF 6
