REMARK  Name = ZINC16034605
REMARK  12 active torsions:
REMARK  status: ('A' for Active; 'I' for Inactive)
REMARK    1  A    between atoms: C_1  and  C_2
REMARK    2  A    between atoms: C_2  and  C_3
REMARK    3  A    between atoms: C_2  and  C_4
REMARK    4  A    between atoms: C_2  and  C_5
REMARK    5  A    between atoms: C_13  and  C_25
REMARK    6  A    between atoms: C_15  and  C_21
REMARK    7  A    between atoms: C_15  and  C_23
REMARK    8  A    between atoms: C_16  and  N_20
REMARK    9  A    between atoms: C_17  and  C_18
REMARK   10  A    between atoms: C_28  and  O_31
REMARK   11  A    between atoms: O_31  and  C_32
REMARK   12  A    between atoms: C_32  and  C_33
REMARK                            x       y       z     vdW  Elec       q    Type
REMARK                         _______ _______ _______ _____ _____    ______ ____
ROOT
ATOM      1  C   UNL     1       3.249   2.746   5.096  0.00  0.00    -0.001 C 
ATOM      2  C   UNL     1       4.544   1.925   5.026  0.00  0.00    +0.031 C 
ATOM      3  C   UNL     1       4.173   0.470   5.145  0.00  0.00    -0.021 C 
ATOM      4  C   UNL     1       3.136   0.089   5.864  0.00  0.00    -0.029 C 
ATOM      5  C   UNL     1       2.277   1.028   6.658  0.00  0.00    +0.031 C 
ATOM      6  C   UNL     1       2.596   2.487   6.427  0.00  0.00    +0.013 C 
ATOM      7  C   UNL     1       0.811   0.710   6.358  0.00  0.00    +0.066 C 
ATOM      8  C   UNL     1       0.506  -0.712   6.831  0.00  0.00    +0.188 C 
ATOM      9  C   UNL     1       1.509  -1.696   6.308  0.00  0.00    +0.054 C 
ATOM     10  C   UNL     1       2.742  -1.345   5.864  0.00  0.00    +0.074 C 
ENDROOT
BRANCH   7  11
ATOM     11  C   UNL     1       0.566   0.812   4.875  0.00  0.00    -0.041 A 
ATOM     12  C   UNL     1       0.981  -0.205   4.035  0.00  0.00    +0.007 A 
ATOM     13  C   UNL     1       0.757  -0.114   2.675  0.00  0.00    +0.046 A 
ATOM     14  C   UNL     1       0.115   0.999   2.152  0.00  0.00    +0.121 A 
ATOM     15  C   UNL     1      -0.296   2.021   2.996  0.00  0.00    +0.046 A 
ATOM     16  C   UNL     1      -0.075   1.922   4.356  0.00  0.00    +0.007 A 
BRANCH  14  17
ATOM     17  O   UNL     1      -0.106   1.091   0.814  0.00  0.00    -0.483 OA
BRANCH  17  18
ATOM     18  C   UNL     1      -0.773   2.265   0.346  0.00  0.00    +0.324 C 
BRANCH  18  19
ATOM     19  C   UNL     1      -0.930   2.191  -1.151  0.00  0.00    +0.248 C 
ATOM     20  O   UNL     1      -0.511   1.228  -1.757  0.00  0.00    -0.272 OA
ATOM     21  N   UNL     1      -1.534   3.196  -1.816  0.00  0.00    -0.327 N 
ATOM     22  H   UNL     1      -1.649   3.141  -2.909  0.00  0.00    +0.145 HD
ATOM     23  H   UNL     1      -1.914   4.069  -1.266  0.00  0.00    +0.145 HD
ENDBRANCH  18  19
ENDBRANCH  17  18
ENDBRANCH  14  17
ENDBRANCH   7  11
BRANCH   1  25
ATOM     24  C   UNL     1       2.102   0.798   4.030  0.00  0.00    +0.011 C 
ATOM     25  C   UNL     1       2.304   2.314   3.972  0.00  0.00    -0.035 C 
ATOM     26  C   UNL     1       0.955   3.015   4.143  0.00  0.00    +0.011 C 
ATOM     27  C   UNL     1       2.910   2.696   2.621  0.00  0.00    +0.011 C 
ENDBRANCH   1  25
BRANCH   9  28
ATOM     28  N   UNL     1       1.162  -3.017   6.277  0.00  0.00    -0.358 N 
ATOM     29  H   UNL     1       1.876  -3.764   5.900  0.00  0.00    +0.142 HD
ATOM     30  H   UNL     1       0.170  -3.334   6.630  0.00  0.00    +0.142 HD
ENDBRANCH   9  28
BRANCH  10  31
ATOM     31  C   UNL     1       3.655  -2.346   5.400  0.00  0.00    +0.101 C 
ATOM     32  N   UNL     1       4.380  -3.140   5.032  0.00  0.00    -0.191 NA
ENDBRANCH  10  31
BRANCH   8  33
ATOM     33  C   UNL     1       0.525  -0.743   8.303  0.00  0.00    +0.091 C 
ATOM     34  N   UNL     1       0.539  -0.767   9.438  0.00  0.00    -0.194 NA
ENDBRANCH   8  33
BRANCH   8  35
ATOM     35  C   UNL     1      -0.835  -1.097   6.361  0.00  0.00    +0.091 C 
ATOM     36  N   UNL     1      -1.869  -1.394   5.998  0.00  0.00    -0.194 NA
ENDBRANCH   8  35
TORSDOF 9
