REMARK  Name = ZINC02857764
REMARK  11 active torsions:
REMARK  status: ('A' for Active; 'I' for Inactive)
REMARK    1  A    between atoms: C_1  and  C_2
REMARK    2  A    between atoms: C_2  and  O_3
REMARK    3  A    between atoms: O_3  and  C_4
REMARK    4  A    between atoms: C_4  and  C_6
REMARK    5  A    between atoms: C_7  and  C_29
REMARK    6  A    between atoms: C_8  and  C_27
REMARK    7  A    between atoms: C_9  and  N_11
REMARK    8  A    between atoms: C_12  and  C_14
REMARK    9  A    between atoms: C_14  and  S_15
REMARK   10  A    between atoms: S_15  and  C_16
REMARK   11  A    between atoms: C_18  and  C_26
REMARK                            x       y       z     vdW  Elec       q    Type
REMARK                         _______ _______ _______ _____ _____    ______ ____
ROOT
ATOM      1  N   UNL     1      -1.156  -0.694   0.009  0.00  0.00    -0.278 N 
ATOM      2  C   UNL     1       0.002  -0.004   0.002  0.00  0.00    +0.228 C 
ATOM      3  O   UNL     1       1.060  -0.596  -0.011  0.00  0.00    -0.275 OA
ATOM      4  H   UNL     1      -2.002  -0.220   0.020  0.00  0.00    +0.155 HD
ENDROOT
BRANCH   1   8
ATOM      5  C   UNL     1      -0.621  -4.699  -0.019  0.00  0.00    +0.102 A 
ATOM      6  C   UNL     1      -1.948  -4.318  -0.003  0.00  0.00    -0.010 A 
ATOM      7  C   UNL     1      -2.220  -2.960   0.007  0.00  0.00    +0.084 A 
ATOM      8  C   UNL     1      -1.137  -2.076   0.002  0.00  0.00    +0.090 A 
ATOM      9  S   UNL     1       0.234  -3.135  -0.025  0.00  0.00    -0.065 S 
ATOM     10  C   UNL     1      -3.056  -5.339   0.002  0.00  0.00    +0.046 C 
BRANCH   5  11
ATOM     11  C   UNL     1      -0.058  -6.048  -0.033  0.00  0.00    +0.346 C 
ATOM     12  O   UNL     1      -0.796  -7.016  -0.031  0.00  0.00    -0.244 OA
BRANCH  11  13
ATOM     13  O   UNL     1       1.280  -6.221  -0.047  0.00  0.00    -0.461 OA
BRANCH  13  15
ATOM     14  C   UNL     1       3.290  -7.563  -0.075  0.00  0.00    +0.048 C 
ATOM     15  C   UNL     1       1.760  -7.567  -0.060  0.00  0.00    +0.229 C 
ENDBRANCH  13  15
ENDBRANCH  11  13
ENDBRANCH   5  11
BRANCH   7  16
ATOM     16  C   UNL     1      -3.567  -2.477   0.024  0.00  0.00    +0.102 C 
ATOM     17  N   UNL     1      -4.637  -2.094   0.037  0.00  0.00    -0.191 NA
ENDBRANCH   7  16
ENDBRANCH   1   8
BRANCH   2  18
ATOM     18  C   UNL     1      -0.018   1.503   0.010  0.00  0.00    +0.173 C 
BRANCH  18  19
ATOM     19  S   UNL     1       1.680   2.129  -0.003  0.00  0.00    -0.077 S 
BRANCH  19  20
ATOM     20  C   UNL     1       1.366   3.863   0.010  0.00  0.00    +0.189 A 
ATOM     21  N   UNL     1       0.113   4.295   0.019  0.00  0.00    -0.227 NA
ATOM     22  C   UNL     1      -0.151   5.590   0.031  0.00  0.00    +0.046 A 
ATOM     23  C   UNL     1       0.899   6.501   0.024  0.00  0.00    -0.005 A 
ATOM     24  C   UNL     1       2.191   6.019   0.014  0.00  0.00    +0.049 A 
ATOM     25  N   UNL     1       2.387   4.705   0.004  0.00  0.00    -0.227 NA
ATOM     26  C   UNL     1       3.393   6.924   0.021  0.00  0.00    +0.056 C 
ATOM     27  C   UNL     1       2.999   8.339  -0.398  0.00  0.00    +0.006 C 
ATOM     28  C   UNL     1       1.801   8.783   0.451  0.00  0.00    +0.005 C 
ATOM     29  C   UNL     1       0.579   7.970   0.025  0.00  0.00    +0.039 C 
ATOM     30  C   UNL     1      -1.578   6.074   0.047  0.00  0.00    +0.066 C 
ENDBRANCH  19  20
ENDBRANCH  18  19
ENDBRANCH   2  18
TORSDOF 8
