REMARK  Name = ZINC16613318
REMARK  7 active torsions:
REMARK  status: ('A' for Active; 'I' for Inactive)
REMARK    1  A    between atoms: C_1  and  C_2
REMARK    2  A    between atoms: C_2  and  C_3
REMARK    3  A    between atoms: C_2  and  N_4
REMARK    4  A    between atoms: N_4  and  C_5
REMARK    5  A    between atoms: C_5  and  C_6
REMARK    6  A    between atoms: N_12  and  C_14
REMARK    7  A    between atoms: N_23  and  C_24
REMARK                            x       y       z     vdW  Elec       q    Type
REMARK                         _______ _______ _______ _____ _____    ______ ____
ROOT
ATOM      1  N   UNL     1       3.555   5.769  -0.011  0.00  0.00    -0.274 N 
ATOM      2  C   UNL     1       3.971   6.455   1.072  0.00  0.00    +0.303 C 
ATOM      3  O   UNL     1       4.549   7.516   0.934  0.00  0.00    -0.253 OA
ATOM      4  N   UNL     1       3.747   5.965   2.307  0.00  0.00    -0.294 N 
ATOM      5  H   UNL     1       3.350   5.087   2.416  0.00  0.00    +0.151 HD
ENDROOT
BRANCH   4   6
ATOM      6  C   UNL     1       4.102   6.760   3.486  0.00  0.00    +0.037 C 
ATOM      7  C   UNL     1       5.604   7.051   3.470  0.00  0.00    +0.029 C 
ATOM      8  C   UNL     1       5.975   7.880   4.701  0.00  0.00    -0.008 C 
ATOM      9  C   UNL     1       5.620   7.100   5.968  0.00  0.00    +0.007 C 
ATOM     10  C   UNL     1       4.118   6.809   5.984  0.00  0.00    -0.008 C 
ATOM     11  C   UNL     1       3.747   5.979   4.753  0.00  0.00    +0.029 C 
ATOM     12  C   UNL     1       3.342   8.127   5.963  0.00  0.00    +0.007 C 
ATOM     13  C   UNL     1       3.698   8.908   4.696  0.00  0.00    -0.008 C 
ATOM     14  C   UNL     1       5.200   9.199   4.680  0.00  0.00    +0.007 C 
ATOM     15  C   UNL     1       3.327   8.078   3.465  0.00  0.00    +0.029 C 
ENDBRANCH   4   6
BRANCH   1  17
ATOM     16  C   UNL     1       2.996   7.718  -1.378  0.00  0.00    +0.028 C 
ATOM     17  C   UNL     1       3.691   6.355  -1.347  0.00  0.00    +0.072 C 
ATOM     18  C   UNL     1       5.174   6.531  -1.678  0.00  0.00    +0.028 C 
ENDBRANCH   1  17
BRANCH   1  19
ATOM     19  C   UNL     1       2.967   4.436   0.148  0.00  0.00    +0.205 C 
BRANCH  19  20
ATOM     20  C   UNL     1       1.476   4.564   0.328  0.00  0.00    +0.235 C 
ATOM     21  O   UNL     1       0.956   5.659   0.324  0.00  0.00    -0.274 OA
ATOM     22  N   UNL     1       0.721   3.459   0.493  0.00  0.00    -0.275 N 
ATOM     23  C   UNL     1       1.185   2.065   0.523  0.00  0.00    +0.205 C 
ATOM     24  C   UNL     1      -0.038   1.209   0.732  0.00  0.00    +0.238 C 
ATOM     25  O   UNL     1      -0.044  -0.001   0.809  0.00  0.00    -0.273 OA
ATOM     26  N   UNL     1      -1.121   2.000   0.812  0.00  0.00    -0.254 N 
ATOM     27  C   UNL     1      -0.734   3.404   0.680  0.00  0.00    +0.224 C 
BRANCH  26  28
ATOM     28  C   UNL     1      -2.431   1.545   1.000  0.00  0.00    +0.038 A 
ATOM     29  C   UNL     1      -3.479   2.453   1.074  0.00  0.00    +0.025 A 
ATOM     30  C   UNL     1      -4.771   2.002   1.254  0.00  0.00    +0.022 A 
ATOM     31  C   UNL     1      -5.022   0.646   1.372  0.00  0.00    +0.041 A 
ATOM     32  C   UNL     1      -3.979  -0.261   1.304  0.00  0.00    +0.022 A 
ATOM     33  C   UNL     1      -2.685   0.185   1.118  0.00  0.00    +0.025 A 
ATOM     34 CL   UNL     1      -6.647   0.082   1.605  0.00  0.00    -0.084 Cl
ENDBRANCH  26  28
ENDBRANCH  19  20
ENDBRANCH   1  19
TORSDOF 5
