REMARK  Name = ZINC12563782
REMARK  11 active torsions:
REMARK  status: ('A' for Active; 'I' for Inactive)
REMARK    1  A    between atoms: C_5  and  C_7
REMARK    2  A    between atoms: C_7  and  N_8
REMARK    3  A    between atoms: N_13  and  C_14
REMARK    4  A    between atoms: C_14  and  C_16
REMARK    5  A    between atoms: C_16  and  O_17
REMARK    6  A    between atoms: O_17  and  C_18
REMARK    7  A    between atoms: C_18  and  C_20
REMARK    8  A    between atoms: C_25  and  N_26
REMARK    9  A    between atoms: N_26  and  C_27
REMARK   10  A    between atoms: C_27  and  C_28
REMARK   11  A    between atoms: C_28  and  O_29
REMARK                            x       y       z     vdW  Elec       q    Type
REMARK                         _______ _______ _______ _____ _____    ______ ____
ROOT
ATOM      1  C   UNL     1      -3.990   4.726   5.765  0.00  0.00    +0.276 C 
ATOM      2  O   UNL     1      -3.394   4.403   6.776  0.00  0.00    -0.270 OA
ENDROOT
BRANCH   1   8
ATOM      3  N   UNL     1      -6.387   6.944   7.302  0.00  0.00    -0.324 N 
ATOM      4  C   UNL     1      -6.589   7.320   8.592  0.00  0.00    +0.095 A 
ATOM      5  C   UNL     1      -5.790   6.819   9.540  0.00  0.00    +0.066 A 
ATOM      6  S   UNL     1      -4.707   5.766   8.590  0.00  0.00    -0.061 S 
ATOM      7  C   UNL     1      -5.379   6.071   7.020  0.00  0.00    +0.166 A 
ATOM      8  N   UNL     1      -5.008   5.573   5.838  0.00  0.00    -0.153 NA
BRANCH   3   9
ATOM      9  C   UNL     1      -7.239   7.468   6.232  0.00  0.00    +0.160 C 
BRANCH   9  14
ATOM     10  C   UNL     1     -10.876   7.080   7.168  0.00  0.00    +0.000 A 
ATOM     11  C   UNL     1     -11.134   8.291   7.785  0.00  0.00    +0.001 A 
ATOM     12  C   UNL     1     -10.131   9.235   7.899  0.00  0.00    +0.020 A 
ATOM     13  C   UNL     1      -8.870   8.969   7.397  0.00  0.00    +0.046 A 
ATOM     14  C   UNL     1      -8.613   7.758   6.780  0.00  0.00    -0.009 A 
ATOM     15  C   UNL     1      -9.618   6.816   6.662  0.00  0.00    +0.007 A 
ATOM     16 CL   UNL     1      -7.610  10.156   7.539  0.00  0.00    -0.083 Cl
ENDBRANCH   9  14
ENDBRANCH   3   9
ENDBRANCH   1   8
BRANCH   1  17
ATOM     17  C   UNL     1      -3.571   4.164   4.431  0.00  0.00    +0.330 C 
BRANCH  17  18
ATOM     18  O   UNL     1      -2.442   3.269   4.616  0.00  0.00    -0.452 OA
BRANCH  18  19
ATOM     19  C   UNL     1      -1.943   2.679   3.512  0.00  0.00    +0.341 C 
ATOM     20  O   UNL     1      -2.436   2.906   2.425  0.00  0.00    -0.245 OA
BRANCH  19  21
ATOM     21  C   UNL     1      -0.798   1.758   3.623  0.00  0.00    +0.080 A 
ATOM     22  C   UNL     1      -0.305   1.398   4.881  0.00  0.00    +0.017 A 
ATOM     23  C   UNL     1       0.765   0.536   4.978  0.00  0.00    +0.001 A 
ATOM     24  C   UNL     1       1.357   0.023   3.834  0.00  0.00    +0.002 A 
ATOM     25  C   UNL     1       0.878   0.364   2.586  0.00  0.00    +0.024 A 
ATOM     26  C   UNL     1      -0.197   1.236   2.467  0.00  0.00    +0.041 A 
BRANCH  26  27
ATOM     27  N   UNL     1      -0.676   1.585   1.212  0.00  0.00    -0.341 N 
ATOM     28  H   UNL     1      -1.475   2.130   1.133  0.00  0.00    +0.146 HD
BRANCH  27  29
ATOM     29  C   UNL     1       0.024   1.132   0.008  0.00  0.00    +0.129 C 
BRANCH  29  30
ATOM     30  C   UNL     1      -0.706   1.651  -1.232  0.00  0.00    +0.174 C 
BRANCH  30  31
ATOM     31  O   UNL     1      -0.632   3.077  -1.267  0.00  0.00    -0.393 OA
ATOM     32  H   UNL     1      -1.075   3.476  -2.028  0.00  0.00    +0.209 HD
ENDBRANCH  30  31
ENDBRANCH  29  30
ENDBRANCH  27  29
ENDBRANCH  26  27
ENDBRANCH  19  21
ENDBRANCH  18  19
ENDBRANCH  17  18
ENDBRANCH   1  17
TORSDOF 11
