REMARK  Name = ZINC35784522
REMARK  12 active torsions:
REMARK  status: ('A' for Active; 'I' for Inactive)
REMARK    1  A    between atoms: C_1  and  C_2
REMARK    2  A    between atoms: C_2  and  O_3
REMARK    3  A    between atoms: O_3  and  C_4
REMARK    4  A    between atoms: C_4  and  C_6
REMARK    5  A    between atoms: N_9  and  C_12
REMARK    6  A    between atoms: C_12  and  C_13
REMARK    7  A    between atoms: C_16  and  C_31
REMARK    8  A    between atoms: C_19  and  C_21
REMARK    9  A    between atoms: C_24  and  O_29
REMARK   10  A    between atoms: C_26  and  O_27
REMARK   11  A    between atoms: O_27  and  C_28
REMARK   12  A    between atoms: O_29  and  C_30
REMARK                            x       y       z     vdW  Elec       q    Type
REMARK                         _______ _______ _______ _____ _____    ______ ____
ROOT
ATOM      1  C   UNL     1       4.444  -6.062  -4.549  0.00  0.00    +0.219 C 
ATOM      2  O   UNL     1       3.919  -6.574  -3.583  0.00  0.00    -0.276 OA
ATOM      3  N   UNL     1       5.096  -6.829  -5.446  0.00  0.00    -0.187 N 
ATOM      4  C   UNL     1       5.240  -8.292  -5.377  0.00  0.00    +0.137 C 
ATOM      5  C   UNL     1       6.061  -8.634  -6.636  0.00  0.00    +0.087 C 
ATOM      6  C   UNL     1       6.296  -7.293  -7.294  0.00  0.00    +0.072 C 
ATOM      7  N   UNL     1       5.738  -6.366  -6.593  0.00  0.00    -0.181 NA
ENDROOT
BRANCH   4   8
ATOM      8  C   UNL     1       3.890  -8.960  -5.422  0.00  0.00    -0.021 A 
ATOM      9  C   UNL     1       2.901  -8.462  -6.249  0.00  0.00    +0.009 A 
ATOM     10  C   UNL     1       1.661  -9.072  -6.294  0.00  0.00    +0.050 A 
ATOM     11  C   UNL     1       1.407 -10.185  -5.510  0.00  0.00    +0.166 A 
ATOM     12  C   UNL     1       2.404 -10.687  -4.676  0.00  0.00    +0.167 A 
ATOM     13  C   UNL     1       3.646 -10.074  -4.641  0.00  0.00    +0.055 A 
ATOM     14  O   UNL     1       1.912 -11.775  -4.014  0.00  0.00    -0.453 OA
ATOM     15  C   UNL     1       0.480 -11.688  -4.143  0.00  0.00    +0.466 C 
ATOM     16  O   UNL     1       0.291 -10.958  -5.370  0.00  0.00    -0.453 OA
ENDBRANCH   4   8
BRANCH   6  17
ATOM     17  C   UNL     1       7.041  -7.079  -8.546  0.00  0.00    +0.040 A 
ATOM     18  C   UNL     1       7.594  -8.167  -9.228  0.00  0.00    +0.017 A 
ATOM     19  C   UNL     1       8.290  -7.963 -10.399  0.00  0.00    +0.046 A 
ATOM     20  C   UNL     1       8.445  -6.678 -10.906  0.00  0.00    +0.124 A 
ATOM     21  C   UNL     1       7.901  -5.591 -10.236  0.00  0.00    +0.091 A 
ATOM     22  C   UNL     1       7.194  -5.784  -9.062  0.00  0.00    +0.132 A 
BRANCH  22  23
ATOM     23  O   UNL     1       6.656  -4.723  -8.409  0.00  0.00    -0.494 OA
ATOM     24  C   UNL     1       6.852  -3.433  -8.993  0.00  0.00    +0.277 C 
ENDBRANCH  22  23
BRANCH  20  25
ATOM     25  O   UNL     1       9.133  -6.484 -12.061  0.00  0.00    -0.495 OA
ATOM     26  C   UNL     1       9.668  -7.646 -12.700  0.00  0.00    +0.277 C 
ENDBRANCH  20  25
ENDBRANCH   6  17
BRANCH   1  27
ATOM     27  C   UNL     1       4.369  -4.570  -4.747  0.00  0.00    +0.021 C 
BRANCH  27  31
ATOM     28  C   UNL     1       1.468  -2.353  -2.550  0.00  0.00    +0.094 C 
ATOM     29  C   UNL     1       2.921  -1.871  -2.579  0.00  0.00    -0.004 C 
ATOM     30  C   UNL     1       3.640  -2.506  -3.772  0.00  0.00    -0.077 C 
ATOM     31  N   UNL     1       3.611  -3.968  -3.642  0.00  0.00    +0.385 N 
ATOM     32  C   UNL     1       2.223  -4.444  -3.685  0.00  0.00    -0.077 C 
ATOM     33  C   UNL     1       1.450  -3.884  -2.490  0.00  0.00    -0.004 C 
ATOM     34  H   UNL     1       4.030  -4.235  -2.764  0.00  0.00    -0.081 HD
BRANCH  28  35
ATOM     35  C   UNL     1       0.775  -1.794  -1.334  0.00  0.00    +0.310 C 
ATOM     36  O   UNL     1       0.314  -2.540  -0.504  0.00  0.00    -0.251 OA
BRANCH  35  37
ATOM     37  O   UNL     1       0.671  -0.465  -1.174  0.00  0.00    -0.465 OA
BRANCH  37  39
ATOM     38  C   UNL     1      -0.019   1.526   0.010  0.00  0.00    +0.048 C 
ATOM     39  C   UNL     1       0.002  -0.004   0.002  0.00  0.00    +0.229 C 
ENDBRANCH  37  39
ENDBRANCH  35  37
ENDBRANCH  28  35
ENDBRANCH  27  31
ENDBRANCH   1  27
TORSDOF 9
