REMARK  Name = ZINC02138047
REMARK  4 active torsions:
REMARK  status: ('A' for Active; 'I' for Inactive)
REMARK    1  A    between atoms: C_9  and  C_13
REMARK    2  A    between atoms: C_22  and  O_31
REMARK    3  A    between atoms: C_23  and  C_24
REMARK    4  A    between atoms: C_24  and  N_54
REMARK                            x       y       z     vdW  Elec       q    Type
REMARK                         _______ _______ _______ _____ _____    ______ ____
ROOT
ATOM      1  C   UNL     1      -0.068   5.647   0.031  0.00  0.00    +0.006 A 
ATOM      2  C   UNL     1       0.403   6.385  -1.043  0.00  0.00    +0.101 A 
ATOM      3  C   UNL     1       0.334   7.785  -1.003  0.00  0.00    +0.338 A 
ATOM      4  O   UNL     1       0.747   8.426  -1.954  0.00  0.00    -0.245 OA
ATOM      5  O   UNL     1      -0.169   8.440   0.056  0.00  0.00    -0.422 OA
ATOM      6  C   UNL     1      -0.642   7.788   1.140  0.00  0.00    +0.144 A 
ATOM      7  C   UNL     1      -0.616   6.384   1.183  0.00  0.00    +0.026 A 
ATOM      8  C   UNL     1      -1.103   5.708   2.303  0.00  0.00    +0.016 A 
ATOM      9  C   UNL     1      -1.607   6.415   3.358  0.00  0.00    +0.046 A 
ATOM     10  C   UNL     1      -1.636   7.806   3.323  0.00  0.00    +0.122 A 
ATOM     11  C   UNL     1      -1.156   8.492   2.219  0.00  0.00    +0.020 A 
ENDROOT
BRANCH   1  20
ATOM     12  C   UNL     1       1.204  -0.680  -0.013  0.00  0.00    +0.019 A 
ATOM     13  C   UNL     1       0.002  -0.004   0.002  0.00  0.00    +0.048 A 
ATOM     14  C   UNL     1      -0.017   1.386   0.010  0.00  0.00    +0.139 A 
ATOM     15  C   UNL     1       1.199   2.093   0.002  0.00  0.00    +0.019 A 
ATOM     16  C   UNL     1       2.413   1.390  -0.013  0.00  0.00    +0.026 A 
ATOM     17  C   UNL     1       2.406   0.014  -0.021  0.00  0.00    +0.019 A 
ATOM     18 BR   UNL     1       4.041  -0.935  -0.041  0.00  0.00    -0.050 Br
ATOM     19  C   UNL     1       1.196   3.511   0.009  0.00  0.00    +0.027 A 
ATOM     20  C   UNL     1      -0.017   4.173   0.024  0.00  0.00    +0.068 A 
ATOM     21  C   UNL     1      -1.254   3.383   0.031  0.00  0.00    +0.345 A 
ATOM     22  O   UNL     1      -2.333   3.945   0.044  0.00  0.00    -0.245 OA
ATOM     23  O   UNL     1      -1.198   2.041   0.019  0.00  0.00    -0.422 OA
ENDBRANCH   1  20
BRANCH  10  24
ATOM     24  O   UNL     1      -2.138   8.496   4.379  0.00  0.00    -0.506 OA
ATOM     25  H   UNL     1      -3.087   8.671   4.319  0.00  0.00    +0.292 HD
ENDBRANCH  10  24
BRANCH  11  26
ATOM     26  C   UNL     1      -1.191   9.999   2.191  0.00  0.00    -0.036 C 
BRANCH  26  33
ATOM     27  C   UNL     1      -2.606   9.969   0.215  0.00  0.00    -0.078 C 
ATOM     28  C   UNL     1      -3.751  10.621  -0.511  0.00  0.00    -0.019 C 
ATOM     29  C   UNL     1      -3.209  11.844  -1.282  0.00  0.00    -0.002 C 
ATOM     30  C   UNL     1      -3.000  12.995  -0.411  0.00  0.00    -0.002 C 
ATOM     31  C   UNL     1      -1.967  12.708   0.698  0.00  0.00    -0.019 C 
ATOM     32  C   UNL     1      -2.638  11.907   1.780  0.00  0.00    -0.078 C 
ATOM     33  N   UNL     1      -2.491  10.418   1.645  0.00  0.00    +0.383 N 
ATOM     34  H   UNL     1      -3.239   9.968   2.186  0.00  0.00    -0.081 HD
ENDBRANCH  26  33
ENDBRANCH  11  26
TORSDOF 4
