REMARK  Name = ZINC09477512
REMARK  6 active torsions:
REMARK  status: ('A' for Active; 'I' for Inactive)
REMARK    1  A    between atoms: C_4  and  N_17
REMARK    2  A    between atoms: C_5  and  C_7
REMARK    3  A    between atoms: N_9  and  C_10
REMARK    4  A    between atoms: C_10  and  C_11
REMARK    5  A    between atoms: N_17  and  C_18
REMARK    6  A    between atoms: C_18  and  C_19
REMARK                            x       y       z     vdW  Elec       q    Type
REMARK                         _______ _______ _______ _____ _____    ______ ____
ROOT
ATOM      1  C   UNL     1      -8.431   2.507   0.681  0.00  0.00    +0.001 A 
ATOM      2  C   UNL     1      -9.567   1.976   0.090  0.00  0.00    +0.002 A 
ATOM      3  C   UNL     1      -9.457   1.104  -0.974  0.00  0.00    +0.024 A 
ATOM      4  C   UNL     1      -8.204   0.754  -1.461  0.00  0.00    +0.040 A 
ATOM      5  C   UNL     1      -7.053   1.291  -0.865  0.00  0.00    +0.057 A 
ATOM      6  C   UNL     1      -7.180   2.167   0.216  0.00  0.00    +0.015 A 
ENDROOT
BRANCH   5   7
ATOM      7  C   UNL     1      -5.717   0.927  -1.371  0.00  0.00    +0.246 C 
ATOM      8  O   UNL     1      -5.605   0.084  -2.240  0.00  0.00    -0.270 OA
ATOM      9  N   UNL     1      -4.619   1.530  -0.872  0.00  0.00    -0.309 N 
ATOM     10  H   UNL     1      -4.709   2.203  -0.179  0.00  0.00    +0.149 HD
BRANCH   9  11
ATOM     11  C   UNL     1      -3.292   1.169  -1.375  0.00  0.00    +0.136 C 
BRANCH  11  12
ATOM     12  C   UNL     1      -2.229   1.993  -0.647  0.00  0.00    +0.135 C 
ATOM     13  C   UNL     1      -0.841   1.713  -1.256  0.00  0.00    +0.035 C 
ATOM     14  C   UNL     1      -0.004   1.187  -0.064  0.00  0.00    +0.031 C 
ATOM     15  C   UNL     1      -0.796   1.726   1.154  0.00  0.00    +0.160 C 
ATOM     16  O   UNL     1      -2.174   1.608   0.737  0.00  0.00    -0.375 OA
ENDBRANCH  11  12
ENDBRANCH   9  11
ENDBRANCH   5   7
BRANCH   4  17
ATOM     17  N   UNL     1      -8.091  -0.123  -2.532  0.00  0.00    -0.338 N 
ATOM     18  H   UNL     1      -7.217  -0.429  -2.818  0.00  0.00    +0.146 HD
BRANCH  17  19
ATOM     19  C   UNL     1      -9.294  -0.585  -3.230  0.00  0.00    +0.157 C 
BRANCH  19  20
ATOM     20  C   UNL     1      -8.900  -1.520  -4.344  0.00  0.00    +0.066 A 
ATOM     21  C   UNL     1      -9.273  -2.849  -4.294  0.00  0.00    +0.095 A 
ATOM     22  C   UNL     1      -8.900  -3.697  -5.343  0.00  0.00    +0.259 A 
ATOM     23  O   UNL     1      -9.219  -4.875  -5.331  0.00  0.00    -0.267 OA
ATOM     24  N   UNL     1      -8.178  -3.192  -6.366  0.00  0.00    -0.267 N 
ATOM     25  C   UNL     1      -7.801  -4.007  -7.391  0.00  0.00    +0.111 A 
ATOM     26  C   UNL     1      -7.078  -3.524  -8.427  0.00  0.00    +0.035 A 
ATOM     27  C   UNL     1      -6.704  -2.172  -8.456  0.00  0.00    +0.020 A 
ATOM     28  C   UNL     1      -7.075  -1.351  -7.435  0.00  0.00    +0.048 A 
ATOM     29  C   UNL     1      -7.828  -1.871  -6.366  0.00  0.00    +0.141 A 
ATOM     30  N   UNL     1      -8.191  -1.069  -5.367  0.00  0.00    -0.232 NA
ATOM     31 BR   UNL     1      -6.568  -4.674  -9.839  0.00  0.00    -0.049 Br
ENDBRANCH  19  20
ENDBRANCH  17  19
ENDBRANCH   4  17
TORSDOF 6
