REMARK  Name = ZINC32913983
REMARK  4 active torsions:
REMARK  status: ('A' for Active; 'I' for Inactive)
REMARK    1  A    between atoms: C_1  and  C_2
REMARK    2  A    between atoms: C_12  and  C_16
REMARK    3  A    between atoms: N_18  and  N_19
REMARK    4  A    between atoms: C_20  and  C_22
REMARK                            x       y       z     vdW  Elec       q    Type
REMARK                         _______ _______ _______ _____ _____    ______ ____
ROOT
ATOM      1  C   UNL     1      -0.013   1.086   0.008  0.00  0.00    +0.008 C 
ATOM      2  C   UNL     1      -0.729   1.579   1.267  0.00  0.00    -0.009 C 
ATOM      3  C   UNL     1       0.012   1.074   2.508  0.00  0.00    +0.009 C 
ATOM      4  C   UNL     1      -0.834   1.352   3.755  0.00  0.00    +0.054 C 
ATOM      5  C   UNL     1      -1.263   2.800   3.733  0.00  0.00    +0.020 A 
ATOM      6  C   UNL     1      -1.222   3.578   2.630  0.00  0.00    -0.019 A 
ATOM      7  C   UNL     1      -1.709   4.886   3.016  0.00  0.00    +0.004 A 
ATOM      8  C   UNL     1      -1.889   6.078   2.307  0.00  0.00    +0.010 A 
ATOM      9  C   UNL     1      -2.388   7.162   3.010  0.00  0.00    +0.001 A 
ATOM     10  C   UNL     1      -2.700   7.086   4.353  0.00  0.00    +0.015 A 
ATOM     11  C   UNL     1      -2.531   5.908   5.089  0.00  0.00    +0.062 A 
ATOM     12  C   UNL     1      -2.025   4.794   4.395  0.00  0.00    +0.059 A 
ATOM     13  N   UNL     1      -1.744   3.524   4.793  0.00  0.00    -0.357 N 
ATOM     14  H   UNL     1      -1.849   3.051   5.780  0.00  0.00    +0.166 HD
ATOM     15  C   UNL     1      -0.749   3.112   1.277  0.00  0.00    +0.040 C 
ENDROOT
BRANCH  11  16
ATOM     16  C   UNL     1      -2.867   5.838   6.524  0.00  0.00    +0.262 C 
ATOM     17  O   UNL     1      -2.709   4.799   7.136  0.00  0.00    -0.269 OA
ATOM     18  N   UNL     1      -3.350   6.925   7.157  0.00  0.00    -0.230 N 
ATOM     19  H   UNL     1      -3.494   7.865   6.604  0.00  0.00    +0.173 HD
BRANCH  18  20
ATOM     20  N   UNL     1      -3.670   6.859   8.519  0.00  0.00    -0.230 N 
ATOM     21  C   UNL     1      -4.153   7.946   9.152  0.00  0.00    +0.261 C 
ATOM     22  O   UNL     1      -4.311   8.985   8.541  0.00  0.00    -0.269 OA
ATOM     23  H   UNL     1      -3.526   5.919   9.073  0.00  0.00    +0.173 HD
BRANCH  21  24
ATOM     24  C   UNL     1      -4.489   7.876  10.590  0.00  0.00    +0.052 A 
ATOM     25  C   UNL     1      -4.314   6.683  11.294  0.00  0.00    +0.014 A 
ATOM     26  C   UNL     1      -4.625   6.625  12.636  0.00  0.00    +0.001 A 
ATOM     27  C   UNL     1      -5.121   7.744  13.284  0.00  0.00    +0.001 A 
ATOM     28  C   UNL     1      -5.303   8.927  12.592  0.00  0.00    +0.016 A 
ATOM     29  C   UNL     1      -4.990   9.001  11.249  0.00  0.00    +0.030 A 
ATOM     30 BR   UNL     1      -5.240  10.620  10.304  0.00  0.00    -0.050 Br
ENDBRANCH  21  24
ENDBRANCH  18  20
ENDBRANCH  11  16
TORSDOF 3
