REMARK  Name = ZINC08005260
REMARK  4 active torsions:
REMARK  status: ('A' for Active; 'I' for Inactive)
REMARK    1  A    between atoms: C_8  and  C_10
REMARK    2  A    between atoms: C_16  and  C_17
REMARK    3  A    between atoms: C_16  and  N_56
REMARK    4  A    between atoms: N_22  and  C_25
REMARK                            x       y       z     vdW  Elec       q    Type
REMARK                         _______ _______ _______ _____ _____    ______ ____
ROOT
ATOM      1  C   UNL     1       0.834   7.325   2.340  0.00  0.00    +0.020 C 
ENDROOT
BRANCH   1   2
ATOM      2  C   UNL     1       0.264   8.242   3.391  0.00  0.00    +0.199 C 
ATOM      3  O   UNL     1      -0.287   9.271   3.064  0.00  0.00    -0.278 OA
ATOM      4  N   UNL     1       0.366   7.917   4.696  0.00  0.00    -0.300 N 
ATOM      5  C   UNL     1       1.025   6.671   5.114  0.00  0.00    +0.126 C 
ATOM      6  C   UNL     1       2.073   7.016   6.184  0.00  0.00    +0.125 C 
ATOM      7  N   UNL     1       1.430   7.771   7.267  0.00  0.00    -0.314 N 
ATOM      8  C   UNL     1       0.907   9.056   6.782  0.00  0.00    +0.125 C 
ATOM      9  C   UNL     1      -0.184   8.797   5.738  0.00  0.00    +0.126 C 
BRANCH   7  10
ATOM     10  C   UNL     1       2.305   7.959   8.331  0.00  0.00    +0.099 A 
ATOM     11  C   UNL     1       2.908   6.858   8.930  0.00  0.00    +0.042 A 
ATOM     12  C   UNL     1       3.776   7.060   9.988  0.00  0.00    +0.005 A 
ATOM     13  C   UNL     1       4.013   8.361  10.412  0.00  0.00    +0.018 A 
ATOM     14  C   UNL     1       3.380   9.406   9.771  0.00  0.00    +0.084 A 
ATOM     15  N   UNL     1       2.526   9.246   8.725  0.00  0.00    -0.350 N 
ATOM     16  H   UNL     1       2.076  10.044   8.262  0.00  0.00    +0.166 HD
ENDBRANCH   7  10
ENDBRANCH   1   2
BRANCH   1  22
ATOM     17  C   UNL     1       1.104   9.131   0.750  0.00  0.00    -0.011 C 
ATOM     18  C   UNL     1       0.831   9.554  -0.695  0.00  0.00    -0.009 C 
ATOM     19  C   UNL     1      -0.681   9.641  -0.919  0.00  0.00    -0.003 C 
ATOM     20  C   UNL     1      -1.315   8.284  -0.599  0.00  0.00    -0.019 C 
ATOM     21  C   UNL     1      -0.980   7.898   0.843  0.00  0.00    -0.077 C 
ATOM     22  N   UNL     1       0.489   7.808   0.987  0.00  0.00    +0.391 N 
ATOM     23  H   UNL     1       0.851   7.143   0.293  0.00  0.00    -0.080 HD
BRANCH  17  31
ATOM     24  C   UNL     1       7.023   7.383   0.826  0.00  0.00    +0.002 A 
ATOM     25  C   UNL     1       7.412   8.488   1.570  0.00  0.00    +0.001 A 
ATOM     26  C   UNL     1       6.464   9.420   1.948  0.00  0.00    +0.017 A 
ATOM     27  C   UNL     1       5.152   9.233   1.585  0.00  0.00    +0.039 A 
ATOM     28  C   UNL     1       4.726   8.114   0.833  0.00  0.00    +0.078 A 
ATOM     29  C   UNL     1       5.726   7.185   0.466  0.00  0.00    +0.029 A 
ATOM     30  N   UNL     1       3.404   8.091   0.565  0.00  0.00    -0.246 NA
ATOM     31  C   UNL     1       2.591   9.025   0.971  0.00  0.00    +0.066 A 
ATOM     32  S   UNL     1       3.634  10.119   1.826  0.00  0.00    -0.074 S 
ENDBRANCH  17  31
ENDBRANCH   1  22
TORSDOF 4
