REMARK  Name = ZINC38975651
REMARK  4 active torsions:
REMARK  status: ('A' for Active; 'I' for Inactive)
REMARK    1  A    between atoms: C_4  and  S_7
REMARK    2  A    between atoms: S_7  and  N_10
REMARK    3  A    between atoms: C_12  and  N_22
REMARK    4  A    between atoms: N_22  and  C_23
REMARK                            x       y       z     vdW  Elec       q    Type
REMARK                         _______ _______ _______ _____ _____    ______ ____
ROOT
ATOM      1  N   UNL     1       3.910  -1.235   1.570  0.00  0.00    -0.110 NA
ATOM      2  C   UNL     1       5.129  -1.649   1.753  0.00  0.00    +0.192 C 
ATOM      3  C   UNL     1       5.694  -1.778   3.149  0.00  0.00    +0.237 C 
ATOM      4  N   UNL     1       7.080  -2.252   3.288  0.00  0.00    -0.359 N 
ATOM      5  C   UNL     1       7.752  -2.537   2.208  0.00  0.00    +0.063 A 
ATOM      6  C   UNL     1       9.140  -3.014   2.292  0.00  0.00    +0.027 A 
ATOM      7  C   UNL     1       9.804  -3.299   1.150  0.00  0.00    +0.002 A 
ATOM      8  C   UNL     1       9.202  -3.150  -0.110  0.00  0.00    +0.002 A 
ATOM      9  C   UNL     1       7.932  -2.717  -0.267  0.00  0.00    +0.030 A 
ATOM     10  C   UNL     1       7.142  -2.389   0.863  0.00  0.00    +0.089 A 
ATOM     11  N   UNL     1       5.903  -1.972   0.704  0.00  0.00    -0.226 NA
ATOM     12  H   UNL     1       7.485  -2.351   4.164  0.00  0.00    +0.162 HD
ENDROOT
BRANCH   1  13
ATOM     13  S   UNL     1       3.301  -1.104   0.036  0.00  0.00    +0.100 S 
ATOM     14  O   UNL     1       3.223  -2.424  -0.484  0.00  0.00    -0.146 OA
ATOM     15  O   UNL     1       4.039  -0.074  -0.608  0.00  0.00    -0.146 OA
BRANCH  13  19
ATOM     16  C   UNL     1      -0.955   0.393   0.405  0.00  0.00    +0.000 A 
ATOM     17  C   UNL     1       0.087   1.294   0.290  0.00  0.00    +0.002 A 
ATOM     18  C   UNL     1       1.387   0.837   0.178  0.00  0.00    +0.029 A 
ATOM     19  C   UNL     1       1.645  -0.521   0.180  0.00  0.00    +0.113 A 
ATOM     20  C   UNL     1       0.603  -1.423   0.296  0.00  0.00    +0.029 A 
ATOM     21  C   UNL     1      -0.697  -0.965   0.407  0.00  0.00    +0.002 A 
ENDBRANCH  13  19
ENDBRANCH   1  13
BRANCH   3  22
ATOM     22  N   UNL     1       4.831  -2.696   3.897  0.00  0.00    -0.318 N 
ATOM     23  H   UNL     1       4.519  -3.515   3.482  0.00  0.00    +0.148 HD
BRANCH  22  24
ATOM     24  C   UNL     1       4.459  -2.392   5.209  0.00  0.00    +0.030 A 
ATOM     25  C   UNL     1       5.024  -1.301   5.857  0.00  0.00    +0.023 A 
ATOM     26  C   UNL     1       4.654  -1.002   7.154  0.00  0.00    +0.003 A 
ATOM     27  C   UNL     1       3.723  -1.789   7.808  0.00  0.00    +0.015 A 
ATOM     28  C   UNL     1       3.159  -2.877   7.165  0.00  0.00    +0.020 A 
ATOM     29  C   UNL     1       3.520  -3.177   5.865  0.00  0.00    +0.038 A 
ATOM     30 BR   UNL     1       1.887  -3.949   8.063  0.00  0.00    -0.050 Br
ENDBRANCH  22  24
ENDBRANCH   3  22
TORSDOF 4
