REMARK  Name = ZINC60355149
REMARK  11 active torsions:
REMARK  status: ('A' for Active; 'I' for Inactive)
REMARK    1  A    between atoms: C_1  and  C_2
REMARK    2  A    between atoms: C_2  and  C_3
REMARK    3  A    between atoms: C_3  and  C_4
REMARK    4  A    between atoms: C_4  and  C_5
REMARK    5  A    between atoms: C_5  and  C_7
REMARK    6  A    between atoms: C_5  and  N_24
REMARK    7  A    between atoms: N_9  and  C_10
REMARK    8  A    between atoms: C_10  and  C_11
REMARK    9  A    between atoms: C_11  and  C_13
REMARK   10  A    between atoms: C_11  and  N_19
REMARK   11  A    between atoms: C_16  and  C_18
REMARK                            x       y       z     vdW  Elec       q    Type
REMARK                         _______ _______ _______ _____ _____    ______ ____
ROOT
ATOM      1  C   UNL     1       1.479  -2.479  -2.470  0.00  0.00    +0.158 C 
ENDROOT
BRANCH   1   2
ATOM      2  N   UNL     1       0.804  -2.059  -3.701  0.00  0.00    -0.316 N 
ATOM      3  C   UNL     1       0.950  -0.769  -4.162  0.00  0.00    +0.150 C 
ATOM      4  N   UNL     1       1.687   0.077  -3.515  0.00  0.00    -0.113 NA
ATOM      5  S   UNL     1       1.609   1.507  -4.382  0.00  0.00    +0.101 S 
ATOM      6  O   UNL     1       2.896   1.748  -4.936  0.00  0.00    -0.146 OA
ATOM      7  O   UNL     1       0.906   2.455  -3.591  0.00  0.00    -0.146 OA
ATOM      8  C   UNL     1       0.539   1.004  -5.702  0.00  0.00    +0.123 A 
ATOM      9  C   UNL     1       0.276  -0.339  -5.396  0.00  0.00    +0.043 A 
ATOM     10  C   UNL     1      -0.559  -1.049  -6.272  0.00  0.00    +0.013 A 
ATOM     11  C   UNL     1      -1.085  -0.430  -7.385  0.00  0.00    +0.001 A 
ATOM     12  C   UNL     1      -0.804   0.895  -7.663  0.00  0.00    +0.002 A 
ATOM     13  C   UNL     1       0.014   1.615  -6.802  0.00  0.00    +0.030 A 
ATOM     14  H   UNL     1       0.254  -2.690  -4.191  0.00  0.00    +0.148 HD
ENDBRANCH   1   2
BRANCH   1  15
ATOM     15  C   UNL     1       1.689  -3.971  -2.496  0.00  0.00    +0.233 C 
ATOM     16  O   UNL     1       1.312  -4.620  -3.448  0.00  0.00    -0.274 OA
ATOM     17  N   UNL     1       2.296  -4.584  -1.460  0.00  0.00    -0.315 N 
ATOM     18  H   UNL     1       2.597  -4.065  -0.699  0.00  0.00    +0.149 HD
BRANCH  17  19
ATOM     19  C   UNL     1       2.500  -6.034  -1.485  0.00  0.00    +0.096 C 
BRANCH  19  20
ATOM     20  C   UNL     1       3.296  -6.459  -0.249  0.00  0.00    +0.016 C 
BRANCH  20  21
ATOM     21  C   UNL     1       2.475  -6.205   0.989  0.00  0.00    +0.093 A 
ATOM     22  C   UNL     1       2.599  -5.148   1.811  0.00  0.00    +0.043 A 
ATOM     23  C   UNL     1       1.638  -5.312   2.836  0.00  0.00    +0.044 A 
ATOM     24  C   UNL     1       0.985  -6.459   2.577  0.00  0.00    +0.102 A 
ATOM     25  O   UNL     1       1.492  -6.992   1.454  0.00  0.00    -0.466 OA
ATOM     26  C   UNL     1      -0.131  -7.043   3.405  0.00  0.00    +0.086 C 
ENDBRANCH  20  21
BRANCH  20  27
ATOM     27  N   UNL     1       3.615  -7.890  -0.340  0.00  0.00    +0.387 N 
ATOM     28  C   UNL     1       4.488  -8.146  -1.515  0.00  0.00    -0.078 C 
ATOM     29  C   UNL     1       5.170  -9.492  -1.163  0.00  0.00    -0.020 C 
ATOM     30  C   UNL     1       5.407  -9.371   0.360  0.00  0.00    -0.020 C 
ATOM     31  C   UNL     1       4.396  -8.314   0.842  0.00  0.00    -0.078 C 
ATOM     32  H   UNL     1       2.768  -8.432  -0.411  0.00  0.00    -0.081 HD
ENDBRANCH  20  27
ENDBRANCH  19  20
ENDBRANCH  17  19
ENDBRANCH   1  15
BRANCH   1  33
ATOM     33  C   UNL     1       0.616  -2.106  -1.263  0.00  0.00    +0.032 C 
BRANCH  33  34
ATOM     34  C   UNL     1       0.506  -0.583  -1.165  0.00  0.00    +0.002 C 
BRANCH  34  36
ATOM     35  C   UNL     1      -0.466   1.313   0.139  0.00  0.00    +0.004 C 
ATOM     36  C   UNL     1      -0.356  -0.210   0.042  0.00  0.00    -0.003 C 
ENDBRANCH  34  36
ENDBRANCH  33  34
ENDBRANCH   1  33
TORSDOF 9
