REMARK  Name = ZINC16259339
REMARK  9 active torsions:
REMARK  status: ('A' for Active; 'I' for Inactive)
REMARK    1  A    between atoms: C_4  and  C_7
REMARK    2  A    between atoms: C_7  and  C_9
REMARK    3  A    between atoms: C_7  and  N_55
REMARK    4  A    between atoms: C_9  and  N_10
REMARK    5  A    between atoms: C_11  and  C_13
REMARK    6  A    between atoms: C_13  and  C_14
REMARK    7  A    between atoms: C_14  and  N_15
REMARK    8  A    between atoms: N_15  and  S_16
REMARK    9  A    between atoms: S_16  and  C_19
REMARK                            x       y       z     vdW  Elec       q    Type
REMARK                         _______ _______ _______ _____ _____    ______ ____
ROOT
ATOM      1  N   UNL     1      -2.232   5.150  -4.733  0.00  0.00    -0.317 N 
ATOM      2  C   UNL     1      -2.073   4.527  -3.549  0.00  0.00    +0.214 C 
ATOM      3  O   UNL     1      -2.262   5.131  -2.514  0.00  0.00    -0.276 OA
ATOM      4  H   UNL     1      -2.081   4.667  -5.560  0.00  0.00    +0.149 HD
ENDROOT
BRANCH   1   5
ATOM      5  C   UNL     1      -2.632   6.559  -4.771  0.00  0.00    +0.093 C 
BRANCH   5   6
ATOM      6  C   UNL     1      -2.902   6.974  -6.218  0.00  0.00    -0.020 C 
BRANCH   6  10
ATOM      7  C   UNL     1      -3.846  11.137  -6.355  0.00  0.00    +0.000 A 
ATOM      8  C   UNL     1      -2.615  10.693  -6.799  0.00  0.00    +0.000 A 
ATOM      9  C   UNL     1      -2.309   9.346  -6.755  0.00  0.00    +0.002 A 
ATOM     10  C   UNL     1      -3.235   8.443  -6.266  0.00  0.00    -0.059 A 
ATOM     11  C   UNL     1      -4.468   8.886  -5.828  0.00  0.00    +0.002 A 
ATOM     12  C   UNL     1      -4.772  10.234  -5.868  0.00  0.00    +0.000 A 
ENDBRANCH   6  10
BRANCH   6  17
ATOM     13  C   UNL     1      -4.508   6.763  -8.036  0.00  0.00    -0.078 C 
ATOM     14  C   UNL     1      -5.280   5.582  -8.677  0.00  0.00    -0.020 C 
ATOM     15  C   UNL     1      -4.428   4.355  -8.277  0.00  0.00    -0.020 C 
ATOM     16  C   UNL     1      -3.627   4.806  -7.042  0.00  0.00    -0.078 C 
ATOM     17  N   UNL     1      -4.044   6.182  -6.766  0.00  0.00    +0.385 N 
ATOM     18  H   UNL     1      -4.811   6.181  -6.084  0.00  0.00    -0.081 HD
ENDBRANCH   6  17
ENDBRANCH   5   6
ENDBRANCH   1   5
BRANCH   2  19
ATOM     19  C   UNL     1      -1.661   3.077  -3.510  0.00  0.00    +0.112 C 
BRANCH  19  20
ATOM     20  C   UNL     1      -1.553   2.617  -2.054  0.00  0.00    +0.115 C 
BRANCH  20  21
ATOM     21  N   UNL     1      -1.153   1.208  -2.017  0.00  0.00    -0.189 NA
ATOM     22  H   UNL     1      -1.212   0.665  -2.818  0.00  0.00    +0.148 HD
BRANCH  21  23
ATOM     23  S   UNL     1      -0.600   0.542  -0.605  0.00  0.00    +0.058 S 
ATOM     24  O   UNL     1      -0.323  -0.824  -0.881  0.00  0.00    -0.153 OA
ATOM     25  O   UNL     1       0.384   1.431  -0.094  0.00  0.00    -0.153 OA
BRANCH  23  26
ATOM     26  C   UNL     1      -1.939   0.562   0.540  0.00  0.00    +0.105 A 
ATOM     27  C   UNL     1      -2.121   1.652   1.372  0.00  0.00    +0.029 A 
ATOM     28  C   UNL     1      -3.175   1.670   2.267  0.00  0.00    +0.017 A 
ATOM     29  C   UNL     1      -4.040   0.593   2.338  0.00  0.00    +0.018 A 
ATOM     30  C   UNL     1      -3.854  -0.499   1.509  0.00  0.00    +0.017 A 
ATOM     31  C   UNL     1      -2.804  -0.514   0.611  0.00  0.00    +0.029 A 
ATOM     32 BR   UNL     1      -5.477   0.615   3.566  0.00  0.00    -0.050 Br
ENDBRANCH  23  26
ENDBRANCH  21  23
ENDBRANCH  20  21
ENDBRANCH  19  20
ENDBRANCH   2  19
TORSDOF 9
