REMARK  Name = ZINC13096592
REMARK  11 active torsions:
REMARK  status: ('A' for Active; 'I' for Inactive)
REMARK    1  A    between atoms: C_1  and  C_2
REMARK    2  A    between atoms: C_2  and  C_3
REMARK    3  A    between atoms: C_2  and  C_4
REMARK    4  A    between atoms: C_2  and  N_5
REMARK    5  A    between atoms: N_5  and  C_6
REMARK    6  A    between atoms: C_6  and  C_7
REMARK    7  A    between atoms: C_13  and  C_15
REMARK    8  A    between atoms: C_15  and  S_16
REMARK    9  A    between atoms: S_16  and  C_17
REMARK   10  A    between atoms: C_21  and  C_24
REMARK   11  A    between atoms: N_32  and  N_33
REMARK                            x       y       z     vdW  Elec       q    Type
REMARK                         _______ _______ _______ _____ _____    ______ ____
ROOT
ATOM      1  C   UNL     1       2.510  -0.855   5.508  0.00  0.00    +0.190 A 
ATOM      2  N   UNL     1       1.350  -0.717   6.118  0.00  0.00    -0.215 NA
ATOM      3  C   UNL     1       1.286  -0.573   7.436  0.00  0.00    +0.117 A 
ATOM      4  C   UNL     1       2.438  -0.560   8.242  0.00  0.00    +0.081 A 
ATOM      5  C   UNL     1       2.191  -0.394   9.670  0.00  0.00    +0.004 A 
ATOM      6  C   UNL     1       0.913  -0.268  10.100  0.00  0.00    +0.056 A 
ATOM      7  S   UNL     1      -0.040  -0.366   8.597  0.00  0.00    -0.076 S 
ATOM      8  C   UNL     1       3.681  -0.712   7.553  0.00  0.00    +0.280 A 
ATOM      9  O   UNL     1       4.732  -0.713   8.170  0.00  0.00    -0.265 OA
ATOM     10  N   UNL     1       3.676  -0.859   6.215  0.00  0.00    -0.209 N 
ENDROOT
BRANCH   5  11
ATOM     11  C   UNL     1       3.317  -0.363  10.633  0.00  0.00    -0.017 A 
ATOM     12  C   UNL     1       4.290  -1.362  10.604  0.00  0.00    +0.008 A 
ATOM     13  C   UNL     1       5.339  -1.325  11.500  0.00  0.00    +0.001 A 
ATOM     14  C   UNL     1       5.421  -0.306  12.432  0.00  0.00    +0.000 A 
ATOM     15  C   UNL     1       4.457   0.685  12.469  0.00  0.00    +0.001 A 
ATOM     16  C   UNL     1       3.406   0.662  11.575  0.00  0.00    +0.008 A 
ENDBRANCH   5  11
BRANCH  10  17
ATOM     17  N   UNL     1       4.862  -1.010   5.553  0.00  0.00    -0.293 N 
ATOM     18  H   UNL     1       4.711  -1.106   4.560  0.00  0.00    +0.163 HD
ATOM     19  H   UNL     1       5.487  -0.244   5.753  0.00  0.00    +0.163 HD
ENDBRANCH  10  17
BRANCH   1  20
ATOM     20  S   UNL     1       2.554  -1.044   3.756  0.00  0.00    -0.077 S 
BRANCH  20  21
ATOM     21  C   UNL     1       0.783  -0.971   3.388  0.00  0.00    +0.173 C 
BRANCH  21  23
ATOM     22  N   UNL     1      -0.650  -0.916   1.372  0.00  0.00    -0.291 N 
ATOM     23  C   UNL     1       0.573  -1.116   1.902  0.00  0.00    +0.227 C 
ATOM     24  O   UNL     1       1.504  -1.412   1.184  0.00  0.00    -0.275 OA
BRANCH  22  26
ATOM     25  C   UNL     1      -3.091  -0.802   1.457  0.00  0.00    +0.031 C 
ATOM     26  C   UNL     1      -1.792  -0.641   2.248  0.00  0.00    +0.029 C 
ATOM     27  C   UNL     1      -1.783  -1.623   3.421  0.00  0.00    +0.031 C 
ATOM     28  C   UNL     1      -1.693   0.790   2.780  0.00  0.00    +0.031 C 
ENDBRANCH  22  26
BRANCH  22  29
ATOM     29  C   UNL     1      -0.837  -0.974  -0.080  0.00  0.00    +0.143 C 
BRANCH  29  30
ATOM     30  C   UNL     1      -0.524   0.372  -0.681  0.00  0.00    -0.030 A 
ATOM     31  C   UNL     1      -1.542   1.276  -0.921  0.00  0.00    +0.005 A 
ATOM     32  C   UNL     1      -1.253   2.512  -1.468  0.00  0.00    +0.000 A 
ATOM     33  C   UNL     1       0.051   2.841  -1.784  0.00  0.00    +0.000 A 
ATOM     34  C   UNL     1       1.069   1.935  -1.550  0.00  0.00    +0.000 A 
ATOM     35  C   UNL     1       0.781   0.700  -0.998  0.00  0.00    +0.005 A 
ENDBRANCH  29  30
ENDBRANCH  22  29
ENDBRANCH  21  23
ENDBRANCH  20  21
ENDBRANCH   1  20
TORSDOF 8
