REMARK  Name = ZINC05628795
REMARK  5 active torsions:
REMARK  status: ('A' for Active; 'I' for Inactive)
REMARK    1  A    between atoms: C_1  and  C_2
REMARK    2  A    between atoms: C_2  and  C_4
REMARK    3  A    between atoms: C_2  and  S_17
REMARK    4  A    between atoms: N_6  and  C_7
REMARK    5  A    between atoms: S_17  and  C_18
REMARK                            x       y       z     vdW  Elec       q    Type
REMARK                         _______ _______ _______ _____ _____    ______ ____
ROOT
ATOM      1  C   UNL     1      -2.112   5.752  -0.958  0.00  0.00    +0.227 C 
ATOM      2  O   UNL     1      -2.637   5.143  -1.866  0.00  0.00    -0.275 OA
ATOM      3  N   UNL     1      -1.510   5.081   0.044  0.00  0.00    -0.309 N 
ATOM      4  H   UNL     1      -1.089   5.567   0.770  0.00  0.00    +0.149 HD
ENDROOT
BRANCH   3   5
ATOM      5  C   UNL     1      -1.490   3.616   0.036  0.00  0.00    +0.035 C 
ATOM      6  C   UNL     1      -0.773   3.123  -1.223  0.00  0.00    +0.029 C 
ATOM      7  C   UNL     1      -0.753   1.593  -1.232  0.00  0.00    -0.008 C 
ATOM      8  C   UNL     1      -0.013   1.086   0.008  0.00  0.00    +0.007 C 
ATOM      9  C   UNL     1      -0.729   1.579   1.267  0.00  0.00    -0.008 C 
ATOM     10  C   UNL     1      -0.750   3.109   1.275  0.00  0.00    +0.029 C 
ATOM     11  C   UNL     1      -2.164   1.050   1.278  0.00  0.00    +0.007 C 
ATOM     12  C   UNL     1      -2.904   1.556   0.038  0.00  0.00    -0.008 C 
ATOM     13  C   UNL     1      -2.188   1.063  -1.221  0.00  0.00    +0.007 C 
ATOM     14  C   UNL     1      -2.925   3.086   0.047  0.00  0.00    +0.029 C 
ENDBRANCH   3   5
BRANCH   1  16
ATOM     15  C   UNL     1      -0.838   7.790  -1.569  0.00  0.00    +0.029 C 
ATOM     16  C   UNL     1      -2.132   7.259  -0.950  0.00  0.00    +0.138 C 
BRANCH  16  17
ATOM     17  S   UNL     1      -3.547   7.848  -1.912  0.00  0.00    -0.055 S 
BRANCH  17  18
ATOM     18  C   UNL     1      -3.419   9.580  -1.615  0.00  0.00    +0.259 A 
ATOM     19  N   UNL     1      -2.502  10.149  -0.873  0.00  0.00    -0.203 NA
ATOM     20  C   UNL     1      -2.712  11.494  -0.873  0.00  0.00    +0.110 A 
ATOM     21  C   UNL     1      -2.060  12.571  -0.271  0.00  0.00    +0.031 A 
ATOM     22  C   UNL     1      -2.533  13.850  -0.464  0.00  0.00    +0.002 A 
ATOM     23  C   UNL     1      -3.651  14.073  -1.253  0.00  0.00    +0.004 A 
ATOM     24  C   UNL     1      -4.305  13.017  -1.855  0.00  0.00    +0.048 A 
ATOM     25  C   UNL     1      -3.843  11.724  -1.671  0.00  0.00    +0.156 A 
ATOM     26  O   UNL     1      -4.252  10.512  -2.112  0.00  0.00    -0.431 OA
ENDBRANCH  17  18
ENDBRANCH  16  17
ENDBRANCH   1  16
TORSDOF 4
