REMARK  Name = ZINC19220537
REMARK  8 active torsions:
REMARK  status: ('A' for Active; 'I' for Inactive)
REMARK    1  A    between atoms: C_1  and  C_2
REMARK    2  A    between atoms: C_8  and  C_12
REMARK    3  A    between atoms: C_12  and  C_14
REMARK    4  A    between atoms: C_12  and  O_34
REMARK    5  A    between atoms: C_14  and  N_15
REMARK    6  A    between atoms: C_22  and  O_33
REMARK    7  A    between atoms: C_26  and  C_32
REMARK    8  A    between atoms: C_27  and  C_31
REMARK                            x       y       z     vdW  Elec       q    Type
REMARK                         _______ _______ _______ _____ _____    ______ ____
ROOT
ATOM      1  N   UNL     1      -3.223  -2.071   2.335  0.00  0.00    +0.382 N 
ATOM      2  C   UNL     1      -2.054  -1.284   2.749  0.00  0.00    -0.075 C 
ATOM      3  C   UNL     1      -0.811  -1.786   2.010  0.00  0.00    +0.029 C 
ATOM      4  C   UNL     1      -1.033  -1.658   0.502  0.00  0.00    +0.110 C 
ATOM      5  C   UNL     1      -2.285  -2.442   0.103  0.00  0.00    +0.029 C 
ATOM      6  C   UNL     1      -3.483  -1.919   0.898  0.00  0.00    -0.075 C 
ATOM      7  C   UNL     1       0.182  -2.220  -0.244  0.00  0.00    +0.084 C 
ATOM      8  C   UNL     1       1.433  -1.489   0.252  0.00  0.00    +0.152 C 
ATOM      9  C   UNL     1       1.187  -0.002   0.246  0.00  0.00    +0.023 A 
ATOM     10  C   UNL     1       2.276   0.854   0.288  0.00  0.00    +0.013 A 
ATOM     11  C   UNL     1       2.087   2.222   0.288  0.00  0.00    -0.047 A 
ATOM     12  C   UNL     1       0.807   2.743   0.245  0.00  0.00    -0.044 A 
ATOM     13  C   UNL     1      -0.281   1.896   0.202  0.00  0.00    +0.049 A 
ATOM     14  C   UNL     1      -0.095   0.517   0.201  0.00  0.00    +0.127 A 
ATOM     15  O   UNL     1      -1.191  -0.285   0.150  0.00  0.00    -0.485 OA
ATOM     16  C   UNL     1       0.600   4.236   0.246  0.00  0.00    +0.044 C 
ATOM     17  C   UNL     1       3.276   3.147   0.334  0.00  0.00    +0.044 C 
ATOM     18  H   UNL     1      -2.997  -3.131   2.524  0.00  0.00    -0.082 HD
ENDROOT
BRANCH   8  19
ATOM     19  O   UNL     1       2.533  -1.792  -0.608  0.00  0.00    -0.387 OA
ATOM     20  H   UNL     1       3.523  -1.355  -0.409  0.00  0.00    +0.210 HD
ENDBRANCH   8  19
BRANCH   1  21
ATOM     21  C   UNL     1      -4.407  -1.711   3.126  0.00  0.00    -0.042 C 
BRANCH  21  22
ATOM     22  C   UNL     1      -4.297  -2.331   4.520  0.00  0.00    +0.130 C 
BRANCH  22  30
ATOM     23  C   UNL     1      -4.341   2.637   7.372  0.00  0.00    +0.044 C 
ATOM     24  C   UNL     1      -5.232   1.444   7.137  0.00  0.00    -0.050 A 
ATOM     25  C   UNL     1      -6.485   1.393   7.733  0.00  0.00    +0.005 A 
ATOM     26  C   UNL     1      -7.315   0.312   7.531  0.00  0.00    +0.026 A 
ATOM     27  C   UNL     1      -6.895  -0.740   6.723  0.00  0.00    +0.047 A 
ATOM     28  C   UNL     1      -5.625  -0.683   6.122  0.00  0.00    +0.005 A 
ATOM     29  C   UNL     1      -4.800   0.422   6.340  0.00  0.00    +0.013 A 
ATOM     30  C   UNL     1      -5.487  -1.919   5.348  0.00  0.00    +0.004 A 
ATOM     31  C   UNL     1      -6.624  -2.614   5.513  0.00  0.00    +0.089 A 
ATOM     32  N   UNL     1      -7.475  -1.927   6.336  0.00  0.00    -0.360 N 
ATOM     33  H   UNL     1      -8.481  -2.191   6.693  0.00  0.00    +0.165 HD
ENDBRANCH  22  30
BRANCH  22  34
ATOM     34  O   UNL     1      -4.265  -3.755   4.407  0.00  0.00    -0.389 OA
ATOM     35  H   UNL     1      -3.462  -4.244   3.835  0.00  0.00    +0.210 HD
ENDBRANCH  22  34
ENDBRANCH  21  22
ENDBRANCH   1  21
TORSDOF 5
