REMARK  Name = ZINC20355261
REMARK  8 active torsions:
REMARK  status: ('A' for Active; 'I' for Inactive)
REMARK    1  A    between atoms: C_1  and  C_2
REMARK    2  A    between atoms: C_5  and  C_8
REMARK    3  A    between atoms: C_15  and  C_20
REMARK    4  A    between atoms: N_22  and  C_23
REMARK    5  A    between atoms: C_23  and  C_25
REMARK    6  A    between atoms: C_23  and  C_26
REMARK    7  A    between atoms: C_26  and  C_27
REMARK    8  A    between atoms: C_27  and  C_28
REMARK                            x       y       z     vdW  Elec       q    Type
REMARK                         _______ _______ _______ _____ _____    ______ ____
ROOT
ATOM      1  C   UNL     1       8.425  -0.445  -1.696  0.00  0.00    +0.028 C 
ATOM      2  C   UNL     1       7.608  -0.103  -0.670  0.00  0.00    +0.075 C 
ATOM      3  C   UNL     1       7.615   1.255  -0.083  0.00  0.00    +0.255 C 
ATOM      4  O   UNL     1       8.629   1.927  -0.130  0.00  0.00    -0.269 OA
ATOM      5  N   UNL     1       6.519   1.750   0.497  0.00  0.00    -0.280 N 
ATOM      6  C   UNL     1       5.266   1.152   0.548  0.00  0.00    +0.048 A 
ATOM      7  C   UNL     1       4.159   1.957   0.791  0.00  0.00    +0.037 A 
ATOM      8  C   UNL     1       2.882   1.400   0.851  0.00  0.00    +0.039 A 
ATOM      9  C   UNL     1       2.704   0.027   0.655  0.00  0.00    +0.014 A 
ATOM     10  C   UNL     1       3.796  -0.773   0.410  0.00  0.00    +0.017 A 
ATOM     11  C   UNL     1       5.069  -0.220   0.357  0.00  0.00    +0.034 A 
ATOM     12  S   UNL     1       6.467  -1.258   0.045  0.00  0.00    -0.082 S 
ATOM     13  H   UNL     1       6.557   2.727   1.002  0.00  0.00    +0.155 HD
ENDROOT
BRANCH   1  18
ATOM     14  C   UNL     1      11.502   3.595  -4.388  0.00  0.00    +0.044 C 
ATOM     15  C   UNL     1      10.695   2.535  -3.682  0.00  0.00    -0.050 A 
ATOM     16  C   UNL     1      11.228   1.271  -3.501  0.00  0.00    +0.004 A 
ATOM     17  C   UNL     1      10.496   0.296  -2.856  0.00  0.00    +0.008 A 
ATOM     18  C   UNL     1       9.212   0.588  -2.385  0.00  0.00    -0.024 A 
ATOM     19  C   UNL     1       8.679   1.867  -2.577  0.00  0.00    +0.008 A 
ATOM     20  C   UNL     1       9.426   2.832  -3.218  0.00  0.00    +0.004 A 
ENDBRANCH   1  18
BRANCH   8  21
ATOM     21  C   UNL     1       1.715   2.263   1.115  0.00  0.00    +0.244 C 
ATOM     22  O   UNL     1       1.868   3.458   1.285  0.00  0.00    -0.270 OA
ATOM     23  N   UNL     1       0.479   1.728   1.168  0.00  0.00    -0.309 N 
ATOM     24  H   UNL     1       0.341   0.647   1.018  0.00  0.00    +0.149 HD
BRANCH  23  25
ATOM     25  C   UNL     1      -0.680   2.586   1.424  0.00  0.00    +0.070 C 
ATOM     26  C   UNL     1      -1.158   3.205   0.109  0.00  0.00    +0.028 C 
BRANCH  25  27
ATOM     27  C   UNL     1      -1.808   1.750   2.033  0.00  0.00    +0.026 C 
BRANCH  27  28
ATOM     28  C   UNL     1      -1.375   1.234   3.407  0.00  0.00    +0.037 C 
BRANCH  28  29
ATOM     29  C   UNL     1      -2.486   0.411   4.007  0.00  0.00    -0.047 A 
ATOM     30  C   UNL     1      -3.444   1.016   4.799  0.00  0.00    +0.003 A 
ATOM     31  C   UNL     1      -4.466   0.262   5.345  0.00  0.00    +0.000 A 
ATOM     32  C   UNL     1      -4.524  -1.099   5.109  0.00  0.00    +0.000 A 
ATOM     33  C   UNL     1      -3.562  -1.705   4.321  0.00  0.00    +0.000 A 
ATOM     34  C   UNL     1      -2.544  -0.950   3.770  0.00  0.00    +0.003 A 
ENDBRANCH  28  29
ENDBRANCH  27  28
ENDBRANCH  25  27
ENDBRANCH  23  25
ENDBRANCH   8  21
TORSDOF 6
