REMARK  Name = ZINC44603148
REMARK  7 active torsions:
REMARK  status: ('A' for Active; 'I' for Inactive)
REMARK    1  A    between atoms: C_4  and  S_7
REMARK    2  A    between atoms: S_7  and  C_8
REMARK    3  A    between atoms: C_8  and  C_10
REMARK    4  A    between atoms: C_8  and  C_18
REMARK    5  A    between atoms: C_10  and  C_11
REMARK    6  A    between atoms: C_18  and  C_20
REMARK    7  A    between atoms: C_25  and  O_26
REMARK                            x       y       z     vdW  Elec       q    Type
REMARK                         _______ _______ _______ _____ _____    ______ ____
ROOT
ATOM      1  C   UNL     1       3.512  -2.625  -0.062  0.00  0.00    +0.127 C 
ENDROOT
BRANCH   1   2
ATOM      2  C   UNL     1       2.741  -2.899  -1.328  0.00  0.00    +0.180 C 
ATOM      3  O   UNL     1       1.857  -3.729  -1.332  0.00  0.00    -0.291 OA
BRANCH   2   4
ATOM      4  C   UNL     1       3.060  -2.160  -2.556  0.00  0.00    +0.060 A 
ATOM      5  C   UNL     1       2.236  -1.111  -2.981  0.00  0.00    +0.015 A 
ATOM      6  C   UNL     1       2.541  -0.423  -4.133  0.00  0.00    +0.001 A 
ATOM      7  C   UNL     1       3.661  -0.763  -4.876  0.00  0.00    +0.004 A 
ATOM      8  C   UNL     1       4.483  -1.795  -4.470  0.00  0.00    +0.046 A 
ATOM      9  C   UNL     1       4.197  -2.497  -3.308  0.00  0.00    +0.127 A 
BRANCH   9  10
ATOM     10  O   UNL     1       5.006  -3.507  -2.905  0.00  0.00    -0.506 OA
ATOM     11  H   UNL     1       4.761  -4.373  -3.258  0.00  0.00    +0.292 HD
ENDBRANCH   9  10
ENDBRANCH   2   4
ENDBRANCH   1   2
BRANCH   1  12
ATOM     12  S   UNL     1       3.926  -0.861   0.024  0.00  0.00    -0.114 S 
BRANCH  12  16
ATOM     13  C   UNL     1      -0.095   1.192   0.379  0.00  0.00    +0.000 A 
ATOM     14  C   UNL     1       1.065   1.945   0.361  0.00  0.00    +0.001 A 
ATOM     15  C   UNL     1       2.292   1.323   0.253  0.00  0.00    +0.015 A 
ATOM     16  C   UNL     1       2.362  -0.062   0.163  0.00  0.00    +0.009 A 
ATOM     17  C   UNL     1       1.194  -0.816   0.181  0.00  0.00    +0.015 A 
ATOM     18  C   UNL     1      -0.030  -0.187   0.289  0.00  0.00    +0.001 A 
ENDBRANCH  12  16
ENDBRANCH   1  12
BRANCH   1  19
ATOM     19  C   UNL     1       4.800  -3.452  -0.061  0.00  0.00    +0.057 C 
BRANCH  19  20
ATOM     20  C   UNL     1       5.510  -3.273   1.256  0.00  0.00    -0.046 A 
ATOM     21  C   UNL     1       6.431  -2.255   1.412  0.00  0.00    +0.005 A 
ATOM     22  C   UNL     1       7.082  -2.090   2.620  0.00  0.00    +0.015 A 
ATOM     23  C   UNL     1       6.812  -2.945   3.673  0.00  0.00    +0.018 A 
ATOM     24  C   UNL     1       5.890  -3.964   3.517  0.00  0.00    +0.015 A 
ATOM     25  C   UNL     1       5.236  -4.125   2.310  0.00  0.00    +0.005 A 
ATOM     26 BR   UNL     1       7.703  -2.721   5.326  0.00  0.00    -0.050 Br
ENDBRANCH  19  20
ENDBRANCH   1  19
TORSDOF 7
