REMARK  Name = ZINC52499157
REMARK  9 active torsions:
REMARK  status: ('A' for Active; 'I' for Inactive)
REMARK    1  A    between atoms: C_1  and  C_2
REMARK    2  A    between atoms: C_2  and  C_4
REMARK    3  A    between atoms: C_2  and  N_11
REMARK    4  A    between atoms: N_14  and  C_15
REMARK    5  A    between atoms: N_14  and  C_16
REMARK    6  A    between atoms: C_16  and  C_17
REMARK    7  A    between atoms: C_20  and  O_24
REMARK    8  A    between atoms: C_21  and  O_23
REMARK    9  A    between atoms: O_24  and  C_25
REMARK                            x       y       z     vdW  Elec       q    Type
REMARK                         _______ _______ _______ _____ _____    ______ ____
ROOT
ATOM      1  N   UNL     1      -1.372  -0.511   0.012  0.00  0.00    -0.293 N 
ATOM      2  C   UNL     1      -2.051  -0.643  -1.145  0.00  0.00    +0.303 C 
ATOM      3  O   UNL     1      -1.522  -0.341  -2.197  0.00  0.00    -0.253 OA
ATOM      4  N   UNL     1      -3.315  -1.109  -1.135  0.00  0.00    -0.284 N 
ATOM      5  C   UNL     1      -3.952  -1.473   0.133  0.00  0.00    +0.134 C 
ATOM      6  H   UNL     1      -1.794  -0.752   0.852  0.00  0.00    +0.151 HD
ENDROOT
BRANCH   1   8
ATOM      7  C   UNL     1      -0.019   1.526   0.010  0.00  0.00    +0.033 C 
ATOM      8  C   UNL     1       0.002  -0.004   0.002  0.00  0.00    +0.102 C 
BRANCH   8   9
ATOM      9  C   UNL     1       0.731  -0.503   1.223  0.00  0.00    -0.027 A 
ATOM     10  C   UNL     1       0.081  -0.558   2.442  0.00  0.00    +0.006 A 
ATOM     11  C   UNL     1       0.749  -1.017   3.562  0.00  0.00    +0.015 A 
ATOM     12  C   UNL     1       2.068  -1.420   3.463  0.00  0.00    +0.018 A 
ATOM     13  C   UNL     1       2.718  -1.365   2.243  0.00  0.00    +0.015 A 
ATOM     14  C   UNL     1       2.048  -0.911   1.123  0.00  0.00    +0.006 A 
ATOM     15 BR   UNL     1       2.983  -2.046   4.995  0.00  0.00    -0.050 Br
ENDBRANCH   8   9
ENDBRANCH   1   8
BRANCH   4  16
ATOM     16  C   UNL     1      -4.053  -1.252  -2.393  0.00  0.00    +0.144 C 
BRANCH  16  17
ATOM     17  C   UNL     1      -3.817  -2.628  -2.960  0.00  0.00    -0.026 A 
ATOM     18  C   UNL     1      -2.756  -2.848  -3.818  0.00  0.00    +0.009 A 
ATOM     19  C   UNL     1      -2.535  -4.109  -4.341  0.00  0.00    +0.050 A 
ATOM     20  C   UNL     1      -3.379  -5.156  -4.004  0.00  0.00    +0.161 A 
ATOM     21  C   UNL     1      -4.446  -4.935  -3.140  0.00  0.00    +0.159 A 
ATOM     22  C   UNL     1      -4.659  -3.670  -2.615  0.00  0.00    +0.054 A 
BRANCH  21  23
ATOM     23  O   UNL     1      -5.277  -5.959  -2.806  0.00  0.00    -0.503 OA
ATOM     24  H   UNL     1      -4.999  -6.450  -2.021  0.00  0.00    +0.292 HD
ENDBRANCH  21  23
BRANCH  20  25
ATOM     25  O   UNL     1      -3.163  -6.396  -4.518  0.00  0.00    -0.491 OA
ATOM     26  C   UNL     1      -2.049  -6.549  -5.399  0.00  0.00    +0.277 C 
ENDBRANCH  20  25
ENDBRANCH  16  17
ENDBRANCH   4  16
TORSDOF 6
