REMARK  Name = ZINC54714271
REMARK  5 active torsions:
REMARK  status: ('A' for Active; 'I' for Inactive)
REMARK    1  A    between atoms: C_1  and  C_2
REMARK    2  A    between atoms: C_2  and  C_4
REMARK    3  A    between atoms: C_2  and  C_6
REMARK    4  A    between atoms: C_14  and  C_16
REMARK    5  A    between atoms: N_20  and  C_21
REMARK                            x       y       z     vdW  Elec       q    Type
REMARK                         _______ _______ _______ _____ _____    ______ ____
ROOT
ATOM      1  C   UNL     1       0.038  -0.824   1.535  0.00  0.00    +0.220 C 
ATOM      2  O   UNL     1      -0.081  -1.607   2.453  0.00  0.00    -0.275 OA
ATOM      3  N   UNL     1       1.218  -0.206   1.325  0.00  0.00    -0.293 N 
ATOM      4  C   UNL     1       1.292   0.844   0.291  0.00  0.00    +0.108 C 
ATOM      5  C   UNL     1       2.118   2.058   0.756  0.00  0.00    +0.019 C 
ATOM      6  C   UNL     1       1.809   2.373   2.198  0.00  0.00    +0.002 C 
ATOM      7  C   UNL     1       2.794   1.635   3.100  0.00  0.00    +0.002 C 
ATOM      8  C   UNL     1       2.408   0.252   3.414  0.00  0.00    +0.029 C 
ATOM      9  C   UNL     1       2.357  -0.597   2.126  0.00  0.00    +0.123 C 
ENDROOT
BRANCH   9  10
ATOM     10  C   UNL     1       2.235  -2.053   2.495  0.00  0.00    +0.039 A 
ATOM     11  C   UNL     1       2.508  -3.098   1.689  0.00  0.00    +0.024 A 
ATOM     12  C   UNL     1       2.263  -4.274   2.425  0.00  0.00    +0.019 A 
ATOM     13  C   UNL     1       1.849  -3.902   3.653  0.00  0.00    +0.085 A 
ATOM     14  N   UNL     1       1.836  -2.540   3.704  0.00  0.00    -0.352 N 
ATOM     15  C   UNL     1       1.452  -1.733   4.865  0.00  0.00    +0.148 C 
ENDBRANCH   9  10
BRANCH   1  17
ATOM     16  C   UNL     1      -1.692   0.849   0.939  0.00  0.00    +0.018 C 
ATOM     17  C   UNL     1      -1.132  -0.540   0.629  0.00  0.00    +0.087 C 
BRANCH  17  18
ATOM     18  C   UNL     1      -2.220  -1.591   0.858  0.00  0.00    +0.121 C 
ATOM     19 CL   UNL     1      -3.557  -1.340  -0.326  0.00  0.00    -0.125 Cl
ENDBRANCH  17  18
ENDBRANCH   1  17
TORSDOF 3
