REMARK  Name = ZINC06028828
REMARK  6 active torsions:
REMARK  status: ('A' for Active; 'I' for Inactive)
REMARK    1  A    between atoms: C_1  and  O_2
REMARK    2  A    between atoms: O_2  and  C_3
REMARK    3  A    between atoms: C_7  and  C_14
REMARK    4  A    between atoms: C_14  and  S_15
REMARK    5  A    between atoms: S_15  and  C_16
REMARK    6  A    between atoms: C_19  and  C_21
REMARK                            x       y       z     vdW  Elec       q    Type
REMARK                         _______ _______ _______ _____ _____    ______ ____
ROOT
ATOM      1  S   UNL     1      -6.519  -1.142   1.702  0.00  0.00    -0.061 S 
ENDROOT
BRANCH   1   2
ATOM      2  C   UNL     1      -8.049  -0.280   1.553  0.00  0.00    +0.278 A 
ATOM      3  N   UNL     1      -8.786  -0.189   0.472  0.00  0.00    -0.101 NA
ATOM      4  N   UNL     1      -9.834   0.514   0.725  0.00  0.00    -0.106 NA
ATOM      5  C   UNL     1      -9.807   0.900   1.978  0.00  0.00    +0.251 A 
ATOM      6  O   UNL     1      -8.679   0.401   2.531  0.00  0.00    -0.411 OA
BRANCH   5   7
ATOM      7  C   UNL     1     -10.824   1.723   2.661  0.00  0.00    +0.063 A 
ATOM      8  C   UNL     1     -10.801   2.133   3.956  0.00  0.00    +0.097 A 
ATOM      9  N   UNL     1     -11.913   2.877   4.223  0.00  0.00    -0.360 N 
ATOM     10  H   UNL     1     -12.119   3.279   5.081  0.00  0.00    +0.165 HD
ATOM     11  C   UNL     1     -12.703   2.975   3.097  0.00  0.00    +0.047 A 
ATOM     12  C   UNL     1     -12.059   2.267   2.069  0.00  0.00    +0.012 A 
ATOM     13  C   UNL     1     -12.633   2.200   0.801  0.00  0.00    +0.011 A 
ATOM     14  C   UNL     1     -13.832   2.836   0.562  0.00  0.00    +0.001 A 
ATOM     15  C   UNL     1     -14.467   3.539   1.575  0.00  0.00    +0.002 A 
ATOM     16  C   UNL     1     -13.915   3.605   2.836  0.00  0.00    +0.026 A 
ENDBRANCH   5   7
ENDBRANCH   1   2
BRANCH   1  17
ATOM     17  C   UNL     1      -6.240  -1.829   0.047  0.00  0.00    +0.115 C 
BRANCH  17  22
ATOM     18  C   UNL     1      -1.199  -0.637   0.010  0.00  0.00    +0.124 A 
ATOM     19  C   UNL     1      -2.374   0.112   0.020  0.00  0.00    +0.046 A 
ATOM     20  C   UNL     1      -3.590  -0.509   0.028  0.00  0.00    +0.015 A 
ATOM     21  C   UNL     1      -3.656  -1.907   0.027  0.00  0.00    +0.022 A 
ATOM     22  C   UNL     1      -4.946  -2.601   0.035  0.00  0.00    -0.020 A 
ATOM     23  C   UNL     1      -4.944  -3.959   0.033  0.00  0.00    +0.097 A 
ATOM     24  C   UNL     1      -3.719  -4.659   0.023  0.00  0.00    +0.338 A 
ATOM     25  O   UNL     1      -3.732  -5.877   0.021  0.00  0.00    -0.245 OA
ATOM     26  O   UNL     1      -2.541  -4.017   0.015  0.00  0.00    -0.422 OA
ATOM     27  C   UNL     1      -2.472  -2.669   0.017  0.00  0.00    +0.143 A 
ATOM     28  C   UNL     1      -1.246  -2.021   0.003  0.00  0.00    +0.092 A 
BRANCH  18  30
ATOM     29  C   UNL     1      -0.017   1.425   0.010  0.00  0.00    +0.277 C 
ATOM     30  O   UNL     1       0.002  -0.004   0.002  0.00  0.00    -0.495 OA
ENDBRANCH  18  30
ENDBRANCH  17  22
ENDBRANCH   1  17
TORSDOF 5
