REMARK  Name = ZINC44727290
REMARK  3 active torsions:
REMARK  status: ('A' for Active; 'I' for Inactive)
REMARK    1  A    between atoms: C_9  and  C_20
REMARK    2  A    between atoms: N_10  and  C_11
REMARK    3  A    between atoms: N_15  and  C_17
REMARK                            x       y       z     vdW  Elec       q    Type
REMARK                         _______ _______ _______ _____ _____    ______ ____
ROOT
ATOM      1  C   UNL     1       3.196   0.200  -3.386  0.00  0.00    +0.022 A 
ATOM      2  C   UNL     1       3.521   1.249  -2.553  0.00  0.00    +0.029 A 
ATOM      3  C   UNL     1       3.478   1.076  -1.176  0.00  0.00    +0.069 A 
ATOM      4  C   UNL     1       3.104  -0.167  -0.637  0.00  0.00    +0.091 A 
ATOM      5  C   UNL     1       2.777  -1.219  -1.496  0.00  0.00    +0.050 A 
ATOM      6  C   UNL     1       2.826  -1.030  -2.859  0.00  0.00    +0.043 A 
ATOM      7 CL   UNL     1       2.420  -2.337  -3.926  0.00  0.00    -0.083 Cl
ATOM      8  N   UNL     1       3.151  -0.042   0.714  0.00  0.00    -0.231 NA
ATOM      9  C   UNL     1       3.520   1.165   1.030  0.00  0.00    +0.126 A 
ATOM     10  N   UNL     1       3.735   1.897  -0.096  0.00  0.00    -0.325 N 
ENDROOT
BRANCH  10  11
ATOM     11  C   UNL     1       4.160   3.298  -0.153  0.00  0.00    +0.071 C 
ATOM     12  C   UNL     1       5.191   3.591   0.962  0.00  0.00    +0.005 C 
ATOM     13  C   UNL     1       6.547   3.455   0.225  0.00  0.00    -0.076 C 
ATOM     14  N   UNL     1       6.266   4.033  -1.115  0.00  0.00    +0.383 N 
ATOM     15  C   UNL     1       4.902   3.579  -1.473  0.00  0.00    -0.053 C 
ATOM     16  H   UNL     1       6.296   5.040  -1.072  0.00  0.00    -0.081 HD
BRANCH  14  17
ATOM     17  C   UNL     1       7.239   3.536  -2.096  0.00  0.00    -0.069 C 
ATOM     18  C   UNL     1       8.303   4.516  -2.594  0.00  0.00    -0.017 C 
ATOM     19  C   UNL     1       7.158   4.095  -3.517  0.00  0.00    -0.017 C 
ENDBRANCH  14  17
ENDBRANCH  10  11
BRANCH   9  20
ATOM     20  C   UNL     1       3.686   1.677   2.437  0.00  0.00    +0.183 C 
ATOM     21 CL   UNL     1       5.303   1.190   3.068  0.00  0.00    -0.117 Cl
ENDBRANCH   9  20
TORSDOF 3
