REMARK  Name = ZINC45971600
REMARK  9 active torsions:
REMARK  status: ('A' for Active; 'I' for Inactive)
REMARK    1  A    between atoms: C_1  and  C_2
REMARK    2  A    between atoms: C_5  and  N_9
REMARK    3  A    between atoms: C_6  and  C_8
REMARK    4  A    between atoms: C_10  and  C_12
REMARK    5  A    between atoms: C_12  and  S_13
REMARK    6  A    between atoms: S_13  and  C_14
REMARK    7  A    between atoms: C_24  and  C_26
REMARK    8  A    between atoms: C_28  and  C_33
REMARK    9  A    between atoms: C_31  and  C_32
REMARK                            x       y       z     vdW  Elec       q    Type
REMARK                         _______ _______ _______ _____ _____    ______ ____
ROOT
ATOM      1  C   UNL     1      -0.655  -8.700  -2.651  0.00  0.00    +0.196 A 
ATOM      2  N   UNL     1      -0.804  -9.379  -1.534  0.00  0.00    -0.122 NA
ATOM      3  N   UNL     1      -0.869 -10.639  -1.786  0.00  0.00    -0.126 NA
ATOM      4  C   UNL     1      -0.765 -10.840  -3.077  0.00  0.00    +0.187 A 
ATOM      5  N   UNL     1      -0.630  -9.601  -3.671  0.00  0.00    -0.274 N 
ATOM      6  C   UNL     1      -0.504  -9.506  -5.045  0.00  0.00    +0.115 A 
ATOM      7  C   UNL     1      -0.512 -10.583  -5.819  0.00  0.00    +0.131 A 
ATOM      8  N   UNL     1      -0.647 -11.858  -5.294  0.00  0.00    -0.234 N 
ATOM      9  C   UNL     1      -0.769 -12.027  -3.938  0.00  0.00    +0.112 A 
ATOM     10  C   UNL     1      -0.885 -13.377  -3.696  0.00  0.00    +0.061 A 
ATOM     11  C   UNL     1      -0.818 -14.034  -4.934  0.00  0.00    +0.094 A 
ATOM     12  N   UNL     1      -0.685 -13.127  -5.883  0.00  0.00    -0.166 NA
ENDROOT
BRANCH  11  13
ATOM     13  C   UNL     1      -0.901 -15.501  -5.141  0.00  0.00    +0.005 A 
ATOM     14  C   UNL     1      -0.147 -16.363  -4.348  0.00  0.00    +0.013 A 
ATOM     15  C   UNL     1      -0.229 -17.727  -4.545  0.00  0.00    -0.050 A 
ATOM     16  C   UNL     1      -1.056 -18.238  -5.529  0.00  0.00    +0.003 A 
ATOM     17  C   UNL     1      -1.807 -17.386  -6.319  0.00  0.00    +0.004 A 
ATOM     18  C   UNL     1      -1.737 -16.021  -6.127  0.00  0.00    -0.041 A 
ATOM     19  C   UNL     1      -2.560 -15.095  -6.985  0.00  0.00    +0.044 C 
ATOM     20  C   UNL     1       0.586 -18.661  -3.688  0.00  0.00    +0.044 C 
ENDBRANCH  11  13
BRANCH   1  21
ATOM     21  S   UNL     1      -0.520  -6.949  -2.800  0.00  0.00    -0.076 S 
BRANCH  21  22
ATOM     22  C   UNL     1      -0.625  -6.354  -1.089  0.00  0.00    +0.173 C 
BRANCH  22  24
ATOM     23  N   UNL     1      -0.576  -4.184   0.097  0.00  0.00    -0.285 N 
ATOM     24  C   UNL     1      -0.522  -4.850  -1.073  0.00  0.00    +0.227 C 
ATOM     25  O   UNL     1      -0.390  -4.240  -2.113  0.00  0.00    -0.275 OA
ATOM     26  H   UNL     1      -0.612  -4.674   0.933  0.00  0.00    +0.155 HD
BRANCH  23  31
ATOM     27  C   UNL     1      -0.596   1.490   0.129  0.00  0.00    +0.044 C 
ATOM     28  C   UNL     1      -0.591  -0.018   0.120  0.00  0.00    -0.050 A 
ATOM     29  C   UNL     1       0.038  -0.700  -0.905  0.00  0.00    +0.005 A 
ATOM     30  C   UNL     1       0.044  -2.080  -0.916  0.00  0.00    +0.024 A 
ATOM     31  C   UNL     1      -0.581  -2.784   0.105  0.00  0.00    +0.036 A 
ATOM     32  C   UNL     1      -1.210  -2.097   1.134  0.00  0.00    -0.029 A 
ATOM     33  C   UNL     1      -1.209  -0.715   1.141  0.00  0.00    +0.008 A 
ATOM     34  C   UNL     1      -1.890  -2.856   2.244  0.00  0.00    +0.045 C 
ENDBRANCH  23  31
ENDBRANCH  22  24
ENDBRANCH  21  22
ENDBRANCH   1  21
TORSDOF 5
