REMARK  Name = ZINC64637708
REMARK  12 active torsions:
REMARK  status: ('A' for Active; 'I' for Inactive)
REMARK    1  A    between atoms: C_1  and  O_2
REMARK    2  A    between atoms: O_2  and  C_3
REMARK    3  A    between atoms: C_8  and  O_9
REMARK    4  A    between atoms: O_9  and  C_10
REMARK    5  A    between atoms: N_16  and  C_19
REMARK    6  A    between atoms: C_19  and  C_20
REMARK    7  A    between atoms: C_20  and  C_21
REMARK    8  A    between atoms: N_23  and  C_24
REMARK    9  A    between atoms: C_24  and  C_25
REMARK   10  A    between atoms: C_25  and  C_26
REMARK   11  A    between atoms: C_29  and  S_32
REMARK   12  A    between atoms: S_32  and  N_35
REMARK                            x       y       z     vdW  Elec       q    Type
REMARK                         _______ _______ _______ _____ _____    ______ ____
ROOT
ATOM      1  C   UNL     1       4.611   0.274  -8.111  0.00  0.00    +0.119 C 
ENDROOT
BRANCH   1  13
ATOM      2  C   UNL     1       0.605  -0.607  -1.055  0.00  0.00    +0.162 A 
ATOM      3  C   UNL     1       1.174   0.165  -2.064  0.00  0.00    +0.061 A 
ATOM      4  C   UNL     1       1.788  -0.450  -3.138  0.00  0.00    +0.031 A 
ATOM      5  C   UNL     1       1.844  -1.860  -3.224  0.00  0.00    +0.078 A 
ATOM      6  C   UNL     1       1.267  -2.624  -2.200  0.00  0.00    +0.077 A 
ATOM      7  C   UNL     1       0.660  -1.997  -1.126  0.00  0.00    +0.164 A 
ATOM      8  N   UNL     1       2.491  -2.220  -4.358  0.00  0.00    -0.240 NA
ATOM      9  C   UNL     1       2.888  -1.198  -5.067  0.00  0.00    +0.152 C 
ATOM     10  C   UNL     1       2.476   0.041  -4.355  0.00  0.00    +0.100 C 
ATOM     11  N   UNL     1       2.746   1.205  -4.841  0.00  0.00    -0.262 NA
ATOM     12  C   UNL     1       3.466   1.335  -6.109  0.00  0.00    +0.252 C 
ATOM     13  N   UNL     1       3.890   0.140  -6.843  0.00  0.00    -0.276 N 
ATOM     14  C   UNL     1       3.614  -1.085  -6.348  0.00  0.00    +0.268 C 
ATOM     15  O   UNL     1       3.961  -2.083  -6.948  0.00  0.00    -0.268 OA
BRANCH   2  17
ATOM     16  C   UNL     1      -0.017   1.425   0.010  0.00  0.00    +0.277 C 
ATOM     17  O   UNL     1       0.002  -0.004   0.002  0.00  0.00    -0.491 OA
ENDBRANCH   2  17
BRANCH   7  18
ATOM     18  O   UNL     1       0.107  -2.745  -0.134  0.00  0.00    -0.491 OA
ATOM     19  C   UNL     1       0.196  -4.165  -0.266  0.00  0.00    +0.277 C 
ENDBRANCH   7  18
ENDBRANCH   1  13
BRANCH   1  20
ATOM     20  C   UNL     1       6.116   0.327  -7.839  0.00  0.00    +0.115 C 
BRANCH  20  21
ATOM     21  C   UNL     1       6.857   0.464  -9.144  0.00  0.00    +0.215 C 
ATOM     22  O   UNL     1       6.243   0.515 -10.188  0.00  0.00    -0.276 OA
ATOM     23  N   UNL     1       8.203   0.531  -9.150  0.00  0.00    -0.315 N 
ATOM     24  H   UNL     1       8.695   0.490  -8.315  0.00  0.00    +0.149 HD
BRANCH  23  25
ATOM     25  C   UNL     1       8.924   0.664 -10.419  0.00  0.00    +0.109 C 
BRANCH  25  26
ATOM     26  C   UNL     1      10.429   0.718 -10.147  0.00  0.00    +0.054 C 
BRANCH  26  27
ATOM     27  C   UNL     1      11.171   0.855 -11.451  0.00  0.00    -0.046 A 
ATOM     28  C   UNL     1      11.565  -0.274 -12.145  0.00  0.00    +0.005 A 
ATOM     29  C   UNL     1      12.245  -0.148 -13.342  0.00  0.00    +0.029 A 
ATOM     30  C   UNL     1      12.531   1.107 -13.845  0.00  0.00    +0.105 A 
ATOM     31  C   UNL     1      12.136   2.236 -13.152  0.00  0.00    +0.029 A 
ATOM     32  C   UNL     1      11.452   2.110 -11.958  0.00  0.00    +0.005 A 
BRANCH  30  33
ATOM     33  S   UNL     1      13.399   1.268 -15.370  0.00  0.00    +0.056 S 
ATOM     34  O   UNL     1      14.021   2.545 -15.351  0.00  0.00    -0.153 OA
ATOM     35  O   UNL     1      14.134   0.065 -15.547  0.00  0.00    -0.153 OA
BRANCH  33  36
ATOM     36  N   UNL     1      12.265   1.312 -16.577  0.00  0.00    -0.204 NA
ATOM     37  H   UNL     1      12.443   1.806 -17.392  0.00  0.00    +0.144 HD
ATOM     38  H   UNL     1      11.423   0.843 -16.468  0.00  0.00    +0.144 HD
ENDBRANCH  33  36
ENDBRANCH  30  33
ENDBRANCH  26  27
ENDBRANCH  25  26
ENDBRANCH  23  25
ENDBRANCH  20  21
ENDBRANCH   1  20
TORSDOF 10
