REMARK  Name = ZINC64773002
REMARK  6 active torsions:
REMARK  status: ('A' for Active; 'I' for Inactive)
REMARK    1  A    between atoms: C_5  and  C_7
REMARK    2  A    between atoms: C_7  and  S_8
REMARK    3  A    between atoms: S_8  and  C_9
REMARK    4  A    between atoms: C_15  and  C_23
REMARK    5  A    between atoms: C_26  and  O_30
REMARK    6  A    between atoms: C_27  and  O_29
REMARK                            x       y       z     vdW  Elec       q    Type
REMARK                         _______ _______ _______ _____ _____    ______ ____
ROOT
ATOM      1  C   UNL     1       1.254  -4.666   2.116  0.00  0.00    +0.182 C 
ATOM      2  N   UNL     1       1.163  -4.973   0.833  0.00  0.00    -0.154 NA
ATOM      3  C   UNL     1       1.112  -6.237   0.407  0.00  0.00    +0.249 C 
ATOM      4  O   UNL     1       1.055  -6.510  -0.776  0.00  0.00    -0.273 OA
ATOM      5  C   UNL     1       1.129  -7.315   1.472  0.00  0.00    +0.148 C 
ATOM      6  C   UNL     1       2.283  -8.272   1.166  0.00  0.00    +0.047 C 
ATOM      7  C   UNL     1       2.204  -9.457   2.132  0.00  0.00    +0.105 C 
ATOM      8  C   UNL     1       2.042  -8.987   3.549  0.00  0.00    +0.219 C 
ATOM      9  O   UNL     1       2.310  -9.754   4.448  0.00  0.00    -0.275 OA
ATOM     10  N   UNL     1       1.613  -7.753   3.864  0.00  0.00    -0.273 N 
ATOM     11  C   UNL     1       1.343  -6.835   2.896  0.00  0.00    +0.117 C 
ATOM     12  N   UNL     1       1.375  -5.551   3.113  0.00  0.00    -0.212 NA
ATOM     13  H   UNL     1       1.480  -7.515   4.795  0.00  0.00    +0.156 HD
ENDROOT
BRANCH   6  14
ATOM     14  C   UNL     1       3.596  -7.555   1.346  0.00  0.00    -0.039 A 
ATOM     15  C   UNL     1       4.079  -7.307   2.617  0.00  0.00    +0.008 A 
ATOM     16  C   UNL     1       5.283  -6.649   2.787  0.00  0.00    +0.049 A 
ATOM     17  C   UNL     1       6.009  -6.238   1.682  0.00  0.00    +0.158 A 
ATOM     18  C   UNL     1       5.524  -6.487   0.402  0.00  0.00    +0.158 A 
ATOM     19  C   UNL     1       4.319  -7.151   0.238  0.00  0.00    +0.053 A 
BRANCH  18  20
ATOM     20  O   UNL     1       6.233  -6.085  -0.687  0.00  0.00    -0.503 OA
ATOM     21  H   UNL     1       6.863  -6.744  -1.011  0.00  0.00    +0.292 HD
ENDBRANCH  18  20
BRANCH  17  22
ATOM     22  O   UNL     1       7.194  -5.590   1.847  0.00  0.00    -0.503 OA
ATOM     23  H   UNL     1       7.961  -6.178   1.885  0.00  0.00    +0.292 HD
ENDBRANCH  17  22
ENDBRANCH   6  14
BRANCH   1  24
ATOM     24  S   UNL     1       1.222  -2.958   2.546  0.00  0.00    -0.084 S 
BRANCH  24  25
ATOM     25  C   UNL     1       1.052  -2.107   0.953  0.00  0.00    +0.113 C 
BRANCH  25  30
ATOM     26  C   UNL     1      -0.236   1.383   1.594  0.00  0.00    +0.000 A 
ATOM     27  C   UNL     1       0.937   2.115   1.597  0.00  0.00    +0.001 A 
ATOM     28  C   UNL     1       2.148   1.481   1.392  0.00  0.00    +0.020 A 
ATOM     29  C   UNL     1       2.186   0.113   1.183  0.00  0.00    +0.045 A 
ATOM     30  C   UNL     1       1.012  -0.618   1.180  0.00  0.00    -0.019 A 
ATOM     31  C   UNL     1      -0.199   0.017   1.385  0.00  0.00    +0.006 A 
ATOM     32 CL   UNL     1       3.706  -0.684   0.925  0.00  0.00    -0.083 Cl
ENDBRANCH  25  30
ENDBRANCH  24  25
ENDBRANCH   1  24
TORSDOF 6
