REMARK  Name = ZINC43528151
REMARK  10 active torsions:
REMARK  status: ('A' for Active; 'I' for Inactive)
REMARK    1  A    between atoms: C_1  and  C_2
REMARK    2  A    between atoms: C_4  and  C_31
REMARK    3  A    between atoms: C_6  and  C_8
REMARK    4  A    between atoms: C_17  and  C_19
REMARK    5  A    between atoms: C_19  and  N_20
REMARK    6  A    between atoms: N_20  and  C_21
REMARK    7  A    between atoms: C_21  and  C_22
REMARK    8  A    between atoms: C_25  and  N_28
REMARK    9  A    between atoms: N_28  and  C_29
REMARK   10  A    between atoms: N_28  and  C_30
REMARK                            x       y       z     vdW  Elec       q    Type
REMARK                         _______ _______ _______ _____ _____    ______ ____
ROOT
ATOM      1  C   UNL     1       0.051  -2.698   2.511  0.00  0.00    +0.024 C 
ATOM      2  C   UNL     1      -0.753  -3.995   2.396  0.00  0.00    -0.069 C 
ATOM      3  N   UNL     1       0.107  -5.146   2.682  0.00  0.00    +0.381 N 
ATOM      4  C   UNL     1       1.204  -5.223   1.714  0.00  0.00    -0.078 C 
ATOM      5  C   UNL     1       2.074  -3.967   1.807  0.00  0.00    -0.015 C 
ATOM      6  C   UNL     1       1.498  -3.042   2.892  0.00  0.00    -0.007 C 
ATOM      7  C   UNL     1       1.479  -3.809   4.220  0.00  0.00    -0.013 C 
ATOM      8  C   UNL     1       0.628  -5.073   4.048  0.00  0.00    -0.086 C 
ATOM      9  H   UNL     1      -0.445  -5.986   2.595  0.00  0.00    -0.082 HD
ENDROOT
BRANCH   1  15
ATOM     10  C   UNL     1      -0.018   1.503   0.010  0.00  0.00    +0.088 C 
ATOM     11  C   UNL     1       0.002  -0.004   0.002  0.00  0.00    +0.127 A 
ATOM     12  N   UNL     1       0.005  -0.637  -1.153  0.00  0.00    -0.232 NA
ATOM     13  C   UNL     1       0.024  -1.968  -1.198  0.00  0.00    +0.076 A 
ATOM     14  C   UNL     1       0.039  -2.684   0.003  0.00  0.00    +0.052 A 
ATOM     15  C   UNL     1       0.035  -1.974   1.190  0.00  0.00    +0.047 A 
ATOM     16  N   UNL     1       0.022  -0.650   1.151  0.00  0.00    -0.237 NA
BRANCH  13  17
ATOM     17  C   UNL     1       0.026  -2.678  -2.499  0.00  0.00    +0.014 A 
ATOM     18  C   UNL     1       0.040  -4.072  -2.536  0.00  0.00    +0.011 A 
ATOM     19  C   UNL     1       0.042  -4.727  -3.750  0.00  0.00    +0.001 A 
ATOM     20  C   UNL     1       0.032  -4.005  -4.930  0.00  0.00    +0.001 A 
ATOM     21  C   UNL     1       0.018  -2.622  -4.901  0.00  0.00    +0.016 A 
ATOM     22  C   UNL     1       0.010  -1.955  -3.691  0.00  0.00    +0.027 A 
ATOM     23 BR   UNL     1      -0.016  -0.064  -3.652  0.00  0.00    -0.050 Br
ENDBRANCH  13  17
ENDBRANCH   1  15
BRANCH   8  24
ATOM     24  C   UNL     1       1.487  -6.307   4.330  0.00  0.00    -0.098 C 
BRANCH  24  25
ATOM     25  N   UNL     1       0.703  -7.521   4.065  0.00  0.00    +0.381 N 
ATOM     26  H   UNL     1      -0.110  -7.533   4.663  0.00  0.00    -0.086 HD
ATOM     27  H   UNL     1       0.411  -7.528   3.099  0.00  0.00    -0.086 HD
BRANCH  25  28
ATOM     28  C   UNL     1       1.528  -8.706   4.336  0.00  0.00    -0.047 C 
BRANCH  28  29
ATOM     29  C   UNL     1       0.724  -9.951   4.064  0.00  0.00    -0.064 A 
ATOM     30  C   UNL     1      -0.028 -10.521   5.075  0.00  0.00    +0.003 A 
ATOM     31  C   UNL     1      -0.766 -11.662   4.829  0.00  0.00    +0.023 A 
ATOM     32  C   UNL     1      -0.753 -12.236   3.564  0.00  0.00    +0.029 A 
ATOM     33  C   UNL     1       0.003 -11.661   2.551  0.00  0.00    +0.023 A 
ATOM     34  C   UNL     1       0.734 -10.517   2.802  0.00  0.00    +0.003 A 
BRANCH  32  35
ATOM     35  N   UNL     1      -1.498 -13.391   3.312  0.00  0.00    -0.336 N 
ATOM     36  C   UNL     1      -2.294 -13.997   4.382  0.00  0.00    +0.129 C 
ATOM     37  C   UNL     1      -1.484 -13.995   1.977  0.00  0.00    +0.129 C 
ENDBRANCH  32  35
ENDBRANCH  28  29
ENDBRANCH  25  28
ENDBRANCH  24  25
ENDBRANCH   8  24
TORSDOF 7
