REMARK  Name = ZINC01103959
REMARK  6 active torsions:
REMARK  status: ('A' for Active; 'I' for Inactive)
REMARK    1  A    between atoms: C_4  and  C_7
REMARK    2  A    between atoms: C_7  and  C_9
REMARK    3  A    between atoms: C_7  and  O_27
REMARK    4  A    between atoms: N_11  and  N_12
REMARK    5  A    between atoms: C_13  and  C_14
REMARK    6  A    between atoms: C_17  and  C_19
REMARK                            x       y       z     vdW  Elec       q    Type
REMARK                         _______ _______ _______ _____ _____    ______ ____
ROOT
ATOM      1  N   UNL     1       0.748   4.297   3.689  0.00  0.00    -0.185 NA
ATOM      2  C   UNL     1      -0.112   4.048   4.634  0.00  0.00    +0.176 C 
ENDROOT
BRANCH   2   3
ATOM      3  C   UNL     1       0.134   4.532   5.994  0.00  0.00    +0.148 A 
ATOM      4  C   UNL     1      -0.692   4.345   7.080  0.00  0.00    +0.051 A 
ATOM      5  C   UNL     1      -0.071   4.968   8.171  0.00  0.00    +0.050 A 
ATOM      6  C   UNL     1       1.092   5.513   7.713  0.00  0.00    +0.136 A 
ATOM      7  O   UNL     1       1.206   5.244   6.399  0.00  0.00    -0.454 OA
BRANCH   6   8
ATOM      8  C   UNL     1       2.065   6.271   8.524  0.00  0.00    +0.019 A 
ATOM      9  C   UNL     1       3.225   6.780   7.934  0.00  0.00    +0.013 A 
ATOM     10  C   UNL     1       4.130   7.487   8.696  0.00  0.00    +0.022 A 
ATOM     11  C   UNL     1       3.893   7.693  10.045  0.00  0.00    +0.059 A 
ATOM     12  C   UNL     1       2.746   7.191  10.637  0.00  0.00    +0.060 A 
ATOM     13  C   UNL     1       1.828   6.487   9.883  0.00  0.00    +0.033 A 
ATOM     14 CL   UNL     1       2.457   7.454  12.329  0.00  0.00    -0.082 Cl
ATOM     15 CL   UNL     1       5.039   8.584  10.997  0.00  0.00    -0.082 Cl
ENDBRANCH   6   8
ENDBRANCH   2   3
BRANCH   1  18
ATOM     16  C   UNL     1       1.403   4.091   1.409  0.00  0.00    +0.265 C 
ATOM     17  O   UNL     1       2.409   4.724   1.655  0.00  0.00    -0.271 OA
ATOM     18  N   UNL     1       0.513   3.833   2.388  0.00  0.00    -0.204 N 
ATOM     19  H   UNL     1      -0.291   3.327   2.191  0.00  0.00    +0.177 HD
BRANCH  16  20
ATOM     20  C   UNL     1       1.151   3.592   0.010  0.00  0.00    +0.232 C 
BRANCH  20  24
ATOM     21  C   UNL     1       1.208  -0.679  -0.014  0.00  0.00    +0.000 A 
ATOM     22  C   UNL     1       0.002  -0.004   0.002  0.00  0.00    +0.000 A 
ATOM     23  C   UNL     1      -0.017   1.378   0.010  0.00  0.00    +0.006 A 
ATOM     24  C   UNL     1       1.171   2.086   0.002  0.00  0.00    -0.010 A 
ATOM     25  C   UNL     1       2.377   1.411  -0.014  0.00  0.00    +0.006 A 
ATOM     26  C   UNL     1       2.396   0.029  -0.021  0.00  0.00    +0.000 A 
ENDBRANCH  20  24
BRANCH  20  27
ATOM     27  O   UNL     1       2.168   4.087  -0.863  0.00  0.00    -0.378 OA
ATOM     28  H   UNL     1       3.063   3.813  -0.620  0.00  0.00    +0.211 HD
ENDBRANCH  20  27
ENDBRANCH  16  20
ENDBRANCH   1  18
TORSDOF 6
