REMARK  Name = ZINC40985957
REMARK  8 active torsions:
REMARK  status: ('A' for Active; 'I' for Inactive)
REMARK    1  A    between atoms: C_3  and  C_6
REMARK    2  A    between atoms: C_6  and  C_8
REMARK    3  A    between atoms: C_6  and  N_28
REMARK    4  A    between atoms: C_8  and  N_9
REMARK    5  A    between atoms: C_10  and  C_12
REMARK    6  A    between atoms: C_15  and  S_19
REMARK    7  A    between atoms: S_19  and  C_20
REMARK    8  A    between atoms: C_20  and  C_21
REMARK                            x       y       z     vdW  Elec       q    Type
REMARK                         _______ _______ _______ _____ _____    ______ ____
ROOT
ATOM      1  N   UNL     1       5.734   2.244   1.341  0.00  0.00    -0.312 N 
ATOM      2  C   UNL     1       6.442   2.297   2.487  0.00  0.00    +0.248 C 
ATOM      3  O   UNL     1       5.885   2.128   3.554  0.00  0.00    -0.270 OA
ATOM      4  H   UNL     1       6.179   2.378   0.490  0.00  0.00    +0.149 HD
ENDROOT
BRANCH   2   5
ATOM      5  C   UNL     1       7.892   2.561   2.446  0.00  0.00    +0.092 A 
ATOM      6  C   UNL     1       8.552   2.764   1.227  0.00  0.00    +0.129 A 
ATOM      7  N   UNL     1       9.850   2.998   1.233  0.00  0.00    -0.229 NA
ATOM      8  C   UNL     1      10.531   3.042   2.372  0.00  0.00    +0.190 A 
ATOM      9  N   UNL     1       9.944   2.855   3.547  0.00  0.00    -0.209 NA
ATOM     10  C   UNL     1       8.647   2.621   3.628  0.00  0.00    +0.146 A 
ATOM     11 CL   UNL     1       7.888   2.384   5.171  0.00  0.00    -0.061 Cl
BRANCH   8  12
ATOM     12  S   UNL     1      12.264   3.357   2.322  0.00  0.00    -0.081 S 
BRANCH  12  13
ATOM     13  C   UNL     1      12.766   3.327   4.064  0.00  0.00    +0.112 C 
BRANCH  13  14
ATOM     14  C   UNL     1      14.247   3.587   4.165  0.00  0.00    -0.037 A 
ATOM     15  C   UNL     1      15.138   2.531   4.124  0.00  0.00    +0.006 A 
ATOM     16  C   UNL     1      16.497   2.768   4.216  0.00  0.00    +0.020 A 
ATOM     17  C   UNL     1      16.965   4.063   4.349  0.00  0.00    +0.041 A 
ATOM     18  C   UNL     1      16.073   5.120   4.390  0.00  0.00    +0.020 A 
ATOM     19  C   UNL     1      14.715   4.882   4.292  0.00  0.00    +0.006 A 
ATOM     20 CL   UNL     1      18.671   4.362   4.465  0.00  0.00    -0.084 Cl
ENDBRANCH  13  14
ENDBRANCH  12  13
ENDBRANCH   8  12
ENDBRANCH   2   5
BRANCH   1  21
ATOM     21  C   UNL     1       4.294   1.981   1.381  0.00  0.00    +0.094 C 
BRANCH  21  22
ATOM     22  C   UNL     1       3.714   2.102  -0.029  0.00  0.00    -0.013 C 
BRANCH  22  23
ATOM     23  N   UNL     1       2.285   1.760  -0.002  0.00  0.00    +0.386 N 
ATOM     24  C   UNL     1       2.126   0.359   0.408  0.00  0.00    -0.078 C 
ATOM     25  C   UNL     1       0.638   0.021   0.516  0.00  0.00    -0.019 C 
ATOM     26  C   UNL     1      -0.029   0.235  -0.846  0.00  0.00    -0.004 C 
ATOM     27  C   UNL     1       0.207   1.679  -1.298  0.00  0.00    -0.019 C 
ATOM     28  C   UNL     1       1.711   1.956  -1.339  0.00  0.00    -0.078 C 
ATOM     29  H   UNL     1       1.810   2.357   0.658  0.00  0.00    -0.081 HD
ENDBRANCH  22  23
BRANCH  22  32
ATOM     30  C   UNL     1       4.781   5.364  -1.680  0.00  0.00    +0.008 A 
ATOM     31  C   UNL     1       4.821   4.020  -1.361  0.00  0.00    +0.009 A 
ATOM     32  C   UNL     1       3.883   3.515  -0.523  0.00  0.00    -0.022 A 
ATOM     33  S   UNL     1       2.899   4.959  -0.157  0.00  0.00    -0.103 S 
ATOM     34  C   UNL     1       3.805   6.138  -1.145  0.00  0.00    +0.045 A 
ENDBRANCH  22  32
ENDBRANCH  21  22
ENDBRANCH   1  21
TORSDOF 8
