REMARK  Name = ZINC06230531
REMARK  3 active torsions:
REMARK  status: ('A' for Active; 'I' for Inactive)
REMARK    1  A    between atoms: C_1  and  O_2
REMARK    2  A    between atoms: O_2  and  C_3
REMARK    3  A    between atoms: C_6  and  C_9
REMARK                            x       y       z     vdW  Elec       q    Type
REMARK                         _______ _______ _______ _____ _____    ______ ____
ROOT
ATOM      1  C   UNL     1      -1.764   5.109  -0.041  0.00  0.00    +0.142 C 
ATOM      2  C   UNL     1      -1.239   3.691  -0.020  0.00  0.00    -0.019 C 
ATOM      3  C   UNL     1      -1.256   2.989  -1.171  0.00  0.00    +0.073 C 
ATOM      4  C   UNL     1      -0.766   1.598  -1.201  0.00  0.00    -0.002 C 
ATOM      5  C   UNL     1      -0.984   0.804  -2.275  0.00  0.00    +0.046 C 
ATOM      6  S   UNL     1      -1.843   1.217  -3.767  0.00  0.00    -0.117 S 
ATOM      7  C   UNL     1      -1.797  -0.252  -4.820  0.00  0.00    +0.086 C 
ATOM      8  C   UNL     1      -1.061  -1.389  -4.130  0.00  0.00    +0.086 C 
ATOM      9  S   UNL     1      -0.479  -0.877  -2.496  0.00  0.00    -0.117 S 
ATOM     10  C   UNL     1      -0.013   1.086   0.008  0.00  0.00    +0.039 C 
ATOM     11  C   UNL     1      -0.753   1.592   1.254  0.00  0.00    +0.009 C 
ATOM     12  C   UNL     1      -0.719   3.118   1.268  0.00  0.00    +0.035 C 
ATOM     13  N   UNL     1      -1.726   3.557  -2.319  0.00  0.00    -0.225 NA
ATOM     14  C   UNL     1      -2.184   4.768  -2.408  0.00  0.00    +0.165 C 
ATOM     15  N   UNL     1      -2.258   5.646  -1.341  0.00  0.00    -0.238 N 
ATOM     16  C   UNL     1      -2.748   6.881  -1.525  0.00  0.00    +0.232 C 
ATOM     17  O   UNL     1      -2.826   7.673  -0.610  0.00  0.00    -0.274 OA
ATOM     18  C   UNL     1      -3.199   7.243  -2.924  0.00  0.00    +0.173 C 
ATOM     19  S   UNL     1      -2.831   5.674  -3.801  0.00  0.00    -0.081 S 
ENDROOT
BRANCH   1  23
ATOM     20  C   UNL     1       1.363   7.680   1.328  0.00  0.00    +0.120 A 
ATOM     21  C   UNL     1       0.347   7.301   2.193  0.00  0.00    +0.046 A 
ATOM     22  C   UNL     1      -0.663   6.471   1.748  0.00  0.00    +0.009 A 
ATOM     23  C   UNL     1      -0.661   6.016   0.442  0.00  0.00    -0.022 A 
ATOM     24  C   UNL     1       0.354   6.387  -0.420  0.00  0.00    +0.009 A 
ATOM     25  C   UNL     1       1.363   7.223   0.018  0.00  0.00    +0.046 A 
BRANCH  20  27
ATOM     26  C   UNL     1       3.372   8.845   0.819  0.00  0.00    +0.277 C 
ATOM     27  O   UNL     1       2.358   8.497   1.764  0.00  0.00    -0.495 OA
ENDBRANCH  20  27
ENDBRANCH   1  23
TORSDOF 2
