REMARK  Name = ZINC20706010
REMARK  5 active torsions:
REMARK  status: ('A' for Active; 'I' for Inactive)
REMARK    1  A    between atoms: C_2  and  C_3
REMARK    2  A    between atoms: C_3  and  N_4
REMARK    3  A    between atoms: C_5  and  C_7
REMARK    4  A    between atoms: C_14  and  C_23
REMARK    5  A    between atoms: C_25  and  N_30
REMARK                            x       y       z     vdW  Elec       q    Type
REMARK                         _______ _______ _______ _____ _____    ______ ____
ROOT
ATOM      1  C   UNL     1      -1.265  -0.758   0.010  0.00  0.00    +0.058 A 
ATOM      2  C   UNL     1      -2.478  -0.074   0.025  0.00  0.00    +0.015 A 
ATOM      3  C   UNL     1      -3.665  -0.772   0.033  0.00  0.00    +0.001 A 
ATOM      4  C   UNL     1      -3.650  -2.157   0.018  0.00  0.00    +0.006 A 
ATOM      5  C   UNL     1      -2.460  -2.851  -0.005  0.00  0.00    -0.019 A 
ATOM      6  C   UNL     1      -1.240  -2.168  -0.004  0.00  0.00    +0.044 A 
ATOM      7  N   UNL     1      -0.002  -2.788   0.012  0.00  0.00    -0.336 N 
ATOM      8  C   UNL     1       0.010  -4.255  -0.104  0.00  0.00    +0.106 C 
ATOM      9  C   UNL     1      -1.152  -4.776   0.717  0.00  0.00    +0.029 C 
ATOM     10  C   UNL     1      -2.422  -4.329  -0.059  0.00  0.00    +0.049 C 
ATOM     11  C   UNL     1      -3.491  -5.182   0.503  0.00  0.00    -0.023 C 
ATOM     12  C   UNL     1      -2.943  -6.316   0.927  0.00  0.00    -0.030 C 
ATOM     13  C   UNL     1      -1.431  -6.283   0.695  0.00  0.00    +0.033 C 
ATOM     14  H   UNL     1       0.945  -2.236   0.106  0.00  0.00    +0.147 HD
ENDROOT
BRANCH   8  15
ATOM     15  C   UNL     1       1.307  -4.802   0.434  0.00  0.00    -0.007 A 
ATOM     16  C   UNL     1       2.025  -4.084   1.372  0.00  0.00    +0.039 A 
ATOM     17  C   UNL     1       3.214  -4.586   1.865  0.00  0.00    +0.127 A 
ATOM     18  C   UNL     1       3.687  -5.807   1.421  0.00  0.00    +0.034 A 
ATOM     19  C   UNL     1       2.970  -6.527   0.484  0.00  0.00    +0.022 A 
ATOM     20  C   UNL     1       1.776  -6.027  -0.007  0.00  0.00    +0.046 A 
ATOM     21 CL   UNL     1       0.872  -6.933  -1.179  0.00  0.00    -0.083 Cl
BRANCH  17  22
ATOM     22  N   UNL     1       3.982  -3.816   2.869  0.00  0.00    +0.056 N 
ATOM     23  O   UNL     1       3.567  -2.740   3.260  0.00  0.00    -0.126 OA
ATOM     24  O   UNL     1       5.031  -4.258   3.304  0.00  0.00    -0.126 OA
ENDBRANCH  17  22
ENDBRANCH   8  15
BRANCH   1  26
ATOM     25  N   UNL     1      -0.016   1.344   0.009  0.00  0.00    -0.308 N 
ATOM     26  C   UNL     1       0.002  -0.004   0.002  0.00  0.00    +0.246 C 
ATOM     27  O   UNL     1       1.063  -0.598  -0.011  0.00  0.00    -0.270 OA
ATOM     28  H   UNL     1      -0.976   1.881   0.021  0.00  0.00    +0.149 HD
BRANCH  25  29
ATOM     29  C   UNL     1       1.242   2.093   0.001  0.00  0.00    +0.131 C 
BRANCH  29  31
ATOM     30  C   UNL     1       1.466   4.336   0.941  0.00  0.00    +0.005 C 
ATOM     31  C   UNL     1       0.947   3.571   0.012  0.00  0.00    -0.016 C 
ENDBRANCH  29  31
ENDBRANCH  25  29
ENDBRANCH   1  26
TORSDOF 5
