REMARK  Name = ZINC35157506
REMARK  14 active torsions:
REMARK  status: ('A' for Active; 'I' for Inactive)
REMARK    1  A    between atoms: C_1  and  C_2
REMARK    2  A    between atoms: C_2  and  C_3
REMARK    3  A    between atoms: C_3  and  C_5
REMARK    4  A    between atoms: C_3  and  S_23
REMARK    5  A    between atoms: N_7  and  C_8
REMARK    6  A    between atoms: C_8  and  C_9
REMARK    7  A    between atoms: C_9  and  C_10
REMARK    8  A    between atoms: C_10  and  C_11
REMARK    9  A    between atoms: C_10  and  C_17
REMARK   10  A    between atoms: S_23  and  C_24
REMARK   11  A    between atoms: C_26  and  C_39
REMARK   12  A    between atoms: C_27  and  C_32
REMARK   13  A    between atoms: N_30  and  C_31
REMARK   14  A    between atoms: C_32  and  C_33
REMARK                            x       y       z     vdW  Elec       q    Type
REMARK                         _______ _______ _______ _____ _____    ______ ____
ROOT
ATOM      1  C   UNL     1      -1.476  -1.660   0.651  0.00  0.00    +0.140 C 
ENDROOT
BRANCH   1   2
ATOM      2  C   UNL     1      -1.359  -2.943  -0.129  0.00  0.00    +0.226 C 
ATOM      3  O   UNL     1      -0.336  -3.593  -0.080  0.00  0.00    -0.275 OA
ATOM      4  N   UNL     1      -2.392  -3.370  -0.883  0.00  0.00    -0.314 N 
ATOM      5  H   UNL     1      -3.210  -2.850  -0.923  0.00  0.00    +0.149 HD
BRANCH   4   6
ATOM      6  C   UNL     1      -2.279  -4.618  -1.642  0.00  0.00    +0.105 C 
BRANCH   6   7
ATOM      7  C   UNL     1      -3.580  -4.870  -2.406  0.00  0.00    +0.031 C 
BRANCH   7   8
ATOM      8  C   UNL     1      -3.462  -6.173  -3.199  0.00  0.00    +0.050 C 
BRANCH   8   9
ATOM      9  C   UNL     1      -4.783  -6.485  -3.853  0.00  0.00    -0.040 A 
ATOM     10  C   UNL     1      -5.383  -7.713  -3.647  0.00  0.00    +0.004 A 
ATOM     11  C   UNL     1      -6.596  -7.999  -4.247  0.00  0.00    +0.000 A 
ATOM     12  C   UNL     1      -7.207  -7.057  -5.053  0.00  0.00    +0.000 A 
ATOM     13  C   UNL     1      -6.607  -5.829  -5.258  0.00  0.00    +0.000 A 
ATOM     14  C   UNL     1      -5.397  -5.541  -4.655  0.00  0.00    +0.004 A 
ENDBRANCH   8   9
BRANCH   8  15
ATOM     15  C   UNL     1      -2.400  -6.022  -4.258  0.00  0.00    -0.040 A 
ATOM     16  C   UNL     1      -2.446  -4.955  -5.136  0.00  0.00    +0.004 A 
ATOM     17  C   UNL     1      -1.472  -4.817  -6.107  0.00  0.00    +0.000 A 
ATOM     18  C   UNL     1      -0.452  -5.745  -6.201  0.00  0.00    +0.000 A 
ATOM     19  C   UNL     1      -0.406  -6.812  -5.322  0.00  0.00    +0.000 A 
ATOM     20  C   UNL     1      -1.377  -6.948  -4.348  0.00  0.00    +0.004 A 
ENDBRANCH   8  15
ENDBRANCH   7   8
ENDBRANCH   6   7
ENDBRANCH   4   6
ENDBRANCH   1   2
BRANCH   1  22
ATOM     21  C   UNL     1      -2.370  -0.622   2.741  0.00  0.00    +0.005 C 
ATOM     22  C   UNL     1      -2.151  -1.940   1.996  0.00  0.00    +0.020 C 
ENDBRANCH   1  22
BRANCH   1  23
ATOM     23  S   UNL     1       0.179  -0.973   0.937  0.00  0.00    -0.075 S 
BRANCH  23  24
ATOM     24  C   UNL     1       0.744  -0.538  -0.675  0.00  0.00    +0.172 A 
ATOM     25  N   UNL     1      -0.072  -0.664  -1.704  0.00  0.00    -0.228 NA
ATOM     26  C   UNL     1       0.314  -0.346  -2.936  0.00  0.00    +0.050 A 
ATOM     27  C   UNL     1       1.577   0.122  -3.159  0.00  0.00    +0.042 A 
ATOM     28  C   UNL     1       2.454   0.260  -2.068  0.00  0.00    +0.258 A 
ATOM     29  O   UNL     1       3.589   0.675  -2.232  0.00  0.00    -0.267 OA
ATOM     30  N   UNL     1       2.013  -0.071  -0.836  0.00  0.00    -0.291 N 
ATOM     31  C   UNL     1       2.898   0.066   0.323  0.00  0.00    +0.154 C 
ATOM     32  C   UNL     1      -0.644  -0.503  -4.089  0.00  0.00    +0.066 C 
BRANCH  27  33
ATOM     33  C   UNL     1       2.025   0.484  -4.552  0.00  0.00    +0.077 C 
BRANCH  33  34
ATOM     34  C   UNL     1       1.830   1.961  -4.774  0.00  0.00    -0.043 A 
ATOM     35  C   UNL     1       0.633   2.432  -5.280  0.00  0.00    +0.004 A 
ATOM     36  C   UNL     1       0.454   3.787  -5.484  0.00  0.00    +0.000 A 
ATOM     37  C   UNL     1       1.472   4.672  -5.181  0.00  0.00    +0.000 A 
ATOM     38  C   UNL     1       2.669   4.202  -4.674  0.00  0.00    +0.000 A 
ATOM     39  C   UNL     1       2.846   2.847  -4.466  0.00  0.00    +0.004 A 
ENDBRANCH  33  34
ENDBRANCH  27  33
ENDBRANCH  23  24
ENDBRANCH   1  23
TORSDOF 11
