REMARK  Name = ZINC05679201
REMARK  3 active torsions:
REMARK  status: ('A' for Active; 'I' for Inactive)
REMARK    1  A    between atoms: C_3  and  N_8
REMARK    2  A    between atoms: C_9  and  C_11
REMARK    3  A    between atoms: C_11  and  N_12
REMARK                            x       y       z     vdW  Elec       q    Type
REMARK                         _______ _______ _______ _____ _____    ______ ____
ROOT
ATOM      1  N   UNL     1       0.093   3.200   2.635  0.00  0.00    -0.215 N 
ATOM      2  C   UNL     1      -0.527   3.063   1.443  0.00  0.00    +0.251 C 
ATOM      3  O   UNL     1      -0.860   3.946   0.682  0.00  0.00    -0.272 OA
ATOM      4  C   UNL     1      -0.716   1.577   1.260  0.00  0.00    +0.139 C 
ATOM      5  C   UNL     1      -0.003   1.087   0.008  0.00  0.00    +0.040 C 
ATOM      6  C   UNL     1      -0.729   1.595  -1.242  0.00  0.00    +0.008 C 
ATOM      7  C   UNL     1      -2.089   0.890  -1.348  0.00  0.00    +0.043 C 
ATOM      8  C   UNL     1      -2.763   0.949  -0.016  0.00  0.00    -0.005 A 
ATOM      9  C   UNL     1      -2.195   1.251   1.185  0.00  0.00    -0.005 A 
ATOM     10  C   UNL     1      -3.042   1.237   2.293  0.00  0.00    +0.014 A 
ATOM     11  C   UNL     1      -4.352   0.936   2.142  0.00  0.00    +0.046 A 
ATOM     12  S   UNL     1      -4.463   0.648   0.383  0.00  0.00    -0.101 S 
ATOM     13  N   UNL     1      -0.135   0.986   2.468  0.00  0.00    -0.281 N 
ATOM     14  C   UNL     1       0.314   2.014   3.215  0.00  0.00    +0.310 C 
ATOM     15  O   UNL     1       0.858   1.880   4.293  0.00  0.00    -0.252 OA
ATOM     16  H   UNL     1      -0.084   0.042   2.687  0.00  0.00    +0.152 HD
ENDROOT
BRANCH   1  17
ATOM     17  C   UNL     1       0.477   4.487   3.220  0.00  0.00    +0.214 C 
BRANCH  17  19
ATOM     18  N   UNL     1      -0.526   6.189   4.710  0.00  0.00    -0.284 N 
ATOM     19  C   UNL     1      -0.654   5.010   4.068  0.00  0.00    +0.235 C 
ATOM     20  O   UNL     1      -1.679   4.371   4.173  0.00  0.00    -0.274 OA
ATOM     21  H   UNL     1       0.317   6.668   4.680  0.00  0.00    +0.155 HD
BRANCH  18  24
ATOM     22  C   UNL     1      -3.555   6.403   6.785  0.00  0.00    +0.005 A 
ATOM     23  C   UNL     1      -2.486   5.876   6.085  0.00  0.00    +0.023 A 
ATOM     24  C   UNL     1      -1.609   6.721   5.418  0.00  0.00    +0.036 A 
ATOM     25  C   UNL     1      -1.806   8.095   5.459  0.00  0.00    +0.061 A 
ATOM     26  C   UNL     1      -2.880   8.617   6.157  0.00  0.00    +0.125 A 
ATOM     27  C   UNL     1      -3.752   7.771   6.821  0.00  0.00    +0.038 A 
ATOM     28  F   UNL     1      -3.075   9.953   6.194  0.00  0.00    -0.205 F 
ENDBRANCH  18  24
ENDBRANCH  17  19
ENDBRANCH   1  17
TORSDOF 3
