REMARK  Name = ZINC37649023
REMARK  4 active torsions:
REMARK  status: ('A' for Active; 'I' for Inactive)
REMARK    1  A    between atoms: C_8  and  N_13
REMARK    2  A    between atoms: N_13  and  C_14
REMARK    3  A    between atoms: C_14  and  C_15
REMARK    4  A    between atoms: N_19  and  C_21
REMARK                            x       y       z     vdW  Elec       q    Type
REMARK                         _______ _______ _______ _____ _____    ______ ____
ROOT
ATOM      1  C   UNL     1      -0.017   1.379   0.010  0.00  0.00    +0.017 A 
ATOM      2  C   UNL     1       1.164   2.093   0.002  0.00  0.00    +0.025 A 
ATOM      3  C   UNL     1       2.386   1.423  -0.013  0.00  0.00    +0.039 A 
ATOM      4  C   UNL     1       2.392   0.034  -0.021  0.00  0.00    +0.001 A 
ATOM      5  C   UNL     1       1.213  -0.676  -0.012  0.00  0.00    +0.022 A 
ATOM      6  C   UNL     1       0.002  -0.004   0.002  0.00  0.00    +0.018 A 
ATOM      7 BR   UNL     1      -1.621  -0.975   0.012  0.00  0.00    -0.050 Br
ATOM      8  C   UNL     1       3.844  -0.385  -0.038  0.00  0.00    +0.173 C 
ATOM      9  C   UNL     1       4.605   0.924  -0.038  0.00  0.00    +0.239 C 
ATOM     10  O   UNL     1       5.810   1.057  -0.049  0.00  0.00    -0.273 OA
ATOM     11  N   UNL     1       3.694   1.911  -0.024  0.00  0.00    -0.284 N 
ATOM     12  H   UNL     1       3.919   2.855  -0.022  0.00  0.00    +0.155 HD
ENDROOT
BRANCH   8  13
ATOM     13  N   UNL     1       4.167  -1.170   1.161  0.00  0.00    -0.302 NA
ATOM     14  H   UNL     1       4.338  -0.569   1.952  0.00  0.00    +0.123 HD
BRANCH  13  15
ATOM     15  C   UNL     1       5.312  -2.058   0.916  0.00  0.00    +0.083 C 
BRANCH  15  16
ATOM     16  C   UNL     1       5.617  -2.857   2.184  0.00  0.00    -0.016 C 
ATOM     17  C   UNL     1       6.147  -1.921   3.295  0.00  0.00    -0.016 C 
ATOM     18  C   UNL     1       7.258  -2.770   3.963  0.00  0.00    -0.078 C 
ATOM     19  N   UNL     1       7.877  -3.482   2.816  0.00  0.00    +0.382 N 
ATOM     20  C   UNL     1       6.757  -3.859   1.923  0.00  0.00    -0.074 C 
ATOM     21  H   UNL     1       8.518  -2.872   2.332  0.00  0.00    -0.081 HD
BRANCH  19  22
ATOM     22  C   UNL     1       8.576  -4.686   3.285  0.00  0.00    -0.069 C 
ATOM     23  C   UNL     1      10.101  -4.708   3.168  0.00  0.00    -0.017 C 
ATOM     24  C   UNL     1       9.249  -5.568   2.232  0.00  0.00    -0.017 C 
ENDBRANCH  19  22
ENDBRANCH  15  16
ENDBRANCH  13  15
ENDBRANCH   8  13
TORSDOF 4
