REMARK  Name = ZINC28464151
REMARK  16 active torsions:
REMARK  status: ('A' for Active; 'I' for Inactive)
REMARK    1  A    between atoms: C_1  and  C_2
REMARK    2  A    between atoms: C_2  and  C_3
REMARK    3  A    between atoms: C_5  and  C_35
REMARK    4  A    between atoms: C_6  and  O_34
REMARK    5  A    between atoms: C_8  and  O_9
REMARK    6  A    between atoms: O_9  and  C_10
REMARK    7  A    between atoms: C_10  and  C_11
REMARK    8  A    between atoms: CA_15  and  C_17
REMARK    9  A    between atoms: N_19  and  CA_20
REMARK   10  A    between atoms: CA_20  and  C_22
REMARK   11  A    between atoms: CA_20  and  C_24
REMARK   12  A    between atoms: C_22  and  O_23
REMARK   13  A    between atoms: C_24  and  O_26
REMARK   14  A    between atoms: O_26  and  C_27
REMARK   15  A    between atoms: C_27  and  C_28
REMARK   16  A    between atoms: C_35  and  C_37
REMARK                            x       y       z     vdW  Elec       q    Type
REMARK                         _______ _______ _______ _____ _____    ______ ____
ROOT
ATOM      1  C   UNL     1      -2.018   8.967   3.411  0.00  0.00    +0.079 A 
ATOM      2  C   UNL     1      -1.446   9.716   2.396  0.00  0.00    +0.027 A 
ATOM      3  C   UNL     1      -1.501  11.100   2.458  0.00  0.00    +0.004 A 
ATOM      4  C   UNL     1      -2.123  11.688   3.549  0.00  0.00    +0.033 A 
ATOM      5  CA  UNL     1      -2.673  10.872   4.535  0.00  0.00    +0.126 A 
ATOM      6  N   UNL     1      -2.602   9.551   4.434  0.00  0.00    -0.244 NA
ENDROOT
BRANCH   5   7
ATOM      7  C   UNL     1      -3.341  11.485   5.707  0.00  0.00    +0.263 C 
ATOM      8  O   UNL     1      -3.408  12.695   5.804  0.00  0.00    -0.269 OA
ATOM      9  N   UNL     1      -3.874  10.702   6.665  0.00  0.00    -0.295 N 
ATOM     10  H   UNL     1      -3.813   9.607   6.577  0.00  0.00    +0.150 HD
BRANCH   9  11
ATOM     11  CA  UNL     1      -4.535  11.308   7.824  0.00  0.00    +0.208 C 
BRANCH  11  12
ATOM     12  C   UNL     1      -4.491  10.349   8.985  0.00  0.00    +0.330 C 
ATOM     13  O   UNL     1      -3.962   9.270   8.858  0.00  0.00    -0.249 OA
BRANCH  12  14
ATOM     14  O   UNL     1      -5.040  10.693  10.161  0.00  0.00    -0.459 OA
BRANCH  14  15
ATOM     15  C   UNL     1      -4.961   9.720  11.236  0.00  0.00    +0.267 C 
BRANCH  15  16
ATOM     16  C   UNL     1      -5.624  10.278  12.468  0.00  0.00    -0.010 A 
ATOM     17  C   UNL     1      -4.884  10.999  13.386  0.00  0.00    +0.007 A 
ATOM     18  C   UNL     1      -5.494  11.516  14.514  0.00  0.00    +0.000 A 
ATOM     19  C   UNL     1      -6.842  11.301  14.730  0.00  0.00    +0.000 A 
ATOM     20  C   UNL     1      -7.582  10.575  13.815  0.00  0.00    +0.000 A 
ATOM     21  C   UNL     1      -6.973  10.063  12.684  0.00  0.00    +0.007 A 
ENDBRANCH  15  16
ENDBRANCH  14  15
ENDBRANCH  12  14
ENDBRANCH  11  12
BRANCH  11  22
ATOM     22  C   UNL     1      -5.991  11.620   7.474  0.00  0.00    +0.189 C 
BRANCH  22  23
ATOM     23  O   UNL     1      -6.695  10.400   7.233  0.00  0.00    -0.393 OA
ATOM     24  H   UNL     1      -7.762  10.425   6.966  0.00  0.00    +0.209 HD
ENDBRANCH  22  23
ENDBRANCH  11  22
ENDBRANCH   9  11
ENDBRANCH   5   7
BRANCH   1  25
ATOM     25  C   UNL     1      -1.965   7.462   3.345  0.00  0.00    +0.284 C 
BRANCH  25  26
ATOM     26  O   UNL     1      -1.287   7.062   2.152  0.00  0.00    -0.485 OA
BRANCH  26  32
ATOM     27  C   UNL     1      -0.502   5.273   0.795  0.00  0.00    -0.005 A 
ATOM     28  C   UNL     1      -0.359   3.935   0.569  0.00  0.00    +0.022 A 
ATOM     29  C   UNL     1      -0.869   3.009   1.489  0.00  0.00    +0.059 A 
ATOM     30  C   UNL     1      -1.532   3.466   2.642  0.00  0.00    +0.131 A 
ATOM     31  C   UNL     1      -1.664   4.827   2.861  0.00  0.00    +0.092 A 
ATOM     32  C   UNL     1      -1.152   5.729   1.939  0.00  0.00    +0.128 A 
BRANCH  29  33
ATOM     33  C   UNL     1      -0.718   1.572   1.248  0.00  0.00    +0.164 C 
ATOM     34  O   UNL     1      -1.161   0.773   2.047  0.00  0.00    -0.292 OA
ATOM     35  C   UNL     1      -0.013   1.086   0.008  0.00  0.00    +0.092 C 
ENDBRANCH  29  33
BRANCH  27  37
ATOM     36  C   UNL     1       1.445   6.707   0.244  0.00  0.00    +0.009 C 
ATOM     37  C   UNL     1       0.049   6.263  -0.198  0.00  0.00    +0.035 C 
ENDBRANCH  27  37
BRANCH  30  38
ATOM     38  O   UNL     1      -2.034   2.580   3.537  0.00  0.00    -0.506 OA
ATOM     39  H   UNL     1      -2.552   2.941   4.438  0.00  0.00    +0.292 HD
ENDBRANCH  30  38
ENDBRANCH  26  32
ENDBRANCH  25  26
ENDBRANCH   1  25
TORSDOF 14
