REMARK  Name = ZINC37365717
REMARK  3 active torsions:
REMARK  status: ('A' for Active; 'I' for Inactive)
REMARK    1  A    between atoms: C_6  and  C_7
REMARK    2  A    between atoms: C_7  and  C_9
REMARK    3  A    between atoms: C_7  and  N_17
REMARK                            x       y       z     vdW  Elec       q    Type
REMARK                         _______ _______ _______ _____ _____    ______ ____
ROOT
ATOM      1  C   UNL     1      -1.293  -0.774   0.009  0.00  0.00    -0.012 C 
ENDROOT
BRANCH   1   7
ATOM      2  C   UNL     1      -0.017   1.378   0.010  0.00  0.00    +0.006 A 
ATOM      3  C   UNL     1       1.170   2.088   0.002  0.00  0.00    +0.049 A 
ATOM      4  C   UNL     1       2.382   1.415  -0.013  0.00  0.00    +0.162 A 
ATOM      5  C   UNL     1       2.401   0.025  -0.018  0.00  0.00    +0.162 A 
ATOM      6  C   UNL     1       1.207  -0.681  -0.011  0.00  0.00    +0.051 A 
ATOM      7  C   UNL     1       0.002  -0.004   0.002  0.00  0.00    -0.054 A 
ATOM      8  O   UNL     1       3.579  -0.656  -0.024  0.00  0.00    -0.485 OA
ATOM      9  C   UNL     1       4.746   0.081  -0.406  0.00  0.00    +0.270 C 
ATOM     10  C   UNL     1       4.733   1.422   0.340  0.00  0.00    +0.270 C 
ATOM     11  O   UNL     1       3.542   2.127  -0.024  0.00  0.00    -0.485 OA
ENDBRANCH   1   7
BRANCH   1  12
ATOM     12  C   UNL     1      -1.840  -0.826   1.412  0.00  0.00    -0.039 A 
ATOM     13  C   UNL     1      -2.852   0.035   1.792  0.00  0.00    +0.005 A 
ATOM     14  C   UNL     1      -3.353  -0.012   3.079  0.00  0.00    +0.015 A 
ATOM     15  C   UNL     1      -2.842  -0.921   3.988  0.00  0.00    +0.019 A 
ATOM     16  C   UNL     1      -1.830  -1.784   3.608  0.00  0.00    +0.035 A 
ATOM     17  C   UNL     1      -1.332  -1.740   2.318  0.00  0.00    +0.044 A 
ATOM     18 CL   UNL     1      -0.065  -2.826   1.839  0.00  0.00    -0.083 Cl
ATOM     19 BR   UNL     1      -3.528  -0.985   5.749  0.00  0.00    -0.050 Br
ENDBRANCH   1  12
BRANCH   1  20
ATOM     20  N   UNL     1      -2.264  -0.107  -0.870  0.00  0.00    +0.385 N 
ATOM     21  H   UNL     1      -2.429   0.831  -0.538  0.00  0.00    -0.089 HD
ATOM     22  H   UNL     1      -1.898  -0.072  -1.810  0.00  0.00    -0.089 HD
ATOM     23  H   UNL     1      -3.131  -0.623  -0.866  0.00  0.00    -0.089 HD
ENDBRANCH   1  20
TORSDOF 3
