REMARK  Name = ZINC59346890
REMARK  10 active torsions:
REMARK  status: ('A' for Active; 'I' for Inactive)
REMARK    1  A    between atoms: C_1  and  C_2
REMARK    2  A    between atoms: C_2  and  O_3
REMARK    3  A    between atoms: O_3  and  C_4
REMARK    4  A    between atoms: C_4  and  C_6
REMARK    5  A    between atoms: C_4  and  O_37
REMARK    6  A    between atoms: C_7  and  C_31
REMARK    7  A    between atoms: C_14  and  C_16
REMARK    8  A    between atoms: C_20  and  O_22
REMARK    9  A    between atoms: O_22  and  C_23
REMARK   10  A    between atoms: C_23  and  C_24
REMARK                            x       y       z     vdW  Elec       q    Type
REMARK                         _______ _______ _______ _____ _____    ______ ____
ROOT
ATOM      1  C   UNL     1      -2.998  -2.346  -0.142  0.00  0.00    +0.123 C 
ATOM      2  C   UNL     1      -3.487  -1.663  -1.387  0.00  0.00    +0.063 C 
ATOM      3  N   UNL     1      -3.240  -2.119  -2.585  0.00  0.00    -0.215 NA
ATOM      4  C   UNL     1      -2.587  -3.305  -2.711  0.00  0.00    +0.249 A 
ATOM      5  N   UNL     1      -2.015  -3.860  -3.751  0.00  0.00    -0.198 NA
ATOM      6  C   UNL     1      -1.484  -5.032  -3.398  0.00  0.00    +0.247 A 
ATOM      7  N   UNL     1      -1.710  -5.249  -2.124  0.00  0.00    -0.156 NA
ATOM      8  N   UNL     1      -2.428  -4.155  -1.651  0.00  0.00    -0.221 N 
ATOM      9  C   UNL     1      -2.964  -3.868  -0.321  0.00  0.00    +0.155 C 
ENDROOT
BRANCH   9  10
ATOM     10  C   UNL     1      -2.076  -4.484   0.730  0.00  0.00    -0.019 A 
ATOM     11  C   UNL     1      -0.730  -4.669   0.475  0.00  0.00    +0.006 A 
ATOM     12  C   UNL     1       0.087  -5.234   1.437  0.00  0.00    +0.004 A 
ATOM     13  C   UNL     1      -0.441  -5.616   2.655  0.00  0.00    +0.045 A 
ATOM     14  C   UNL     1      -1.792  -5.432   2.913  0.00  0.00    +0.121 A 
ATOM     15  C   UNL     1      -2.608  -4.859   1.948  0.00  0.00    +0.051 A 
BRANCH  14  16
ATOM     16  O   UNL     1      -2.313  -5.807   4.110  0.00  0.00    -0.487 OA
BRANCH  16  17
ATOM     17  C   UNL     1      -1.413  -6.385   5.058  0.00  0.00    +0.264 C 
BRANCH  17  18
ATOM     18  C   UNL     1      -2.165  -6.735   6.316  0.00  0.00    -0.010 A 
ATOM     19  C   UNL     1      -2.282  -5.806   7.333  0.00  0.00    +0.008 A 
ATOM     20  C   UNL     1      -2.971  -6.127   8.487  0.00  0.00    +0.020 A 
ATOM     21  C   UNL     1      -3.544  -7.379   8.625  0.00  0.00    +0.041 A 
ATOM     22  C   UNL     1      -3.427  -8.308   7.607  0.00  0.00    +0.020 A 
ATOM     23  C   UNL     1      -2.742  -7.984   6.451  0.00  0.00    +0.008 A 
ATOM     24 CL   UNL     1      -4.410  -7.783  10.074  0.00  0.00    -0.084 Cl
ENDBRANCH  17  18
ENDBRANCH  16  17
ENDBRANCH  14  16
ENDBRANCH   9  10
BRANCH   2  25
ATOM     25  C   UNL     1      -4.277  -0.428  -1.251  0.00  0.00    -0.003 A 
ATOM     26  C   UNL     1      -4.555   0.092   0.017  0.00  0.00    +0.010 A 
ATOM     27  C   UNL     1      -5.295   1.250   0.136  0.00  0.00    +0.001 A 
ATOM     28  C   UNL     1      -5.763   1.895  -0.996  0.00  0.00    +0.000 A 
ATOM     29  C   UNL     1      -5.492   1.386  -2.254  0.00  0.00    +0.001 A 
ATOM     30  C   UNL     1      -4.748   0.234  -2.390  0.00  0.00    +0.010 A 
ENDBRANCH   2  25
BRANCH   1  31
ATOM     31  C   UNL     1      -1.589  -1.847   0.184  0.00  0.00    +0.258 C 
BRANCH  31  32
ATOM     32  O   UNL     1      -1.181  -2.365   1.452  0.00  0.00    -0.366 OA
ATOM     33  H   UNL     1      -1.754  -2.103   2.186  0.00  0.00    +0.212 HD
ENDBRANCH  31  32
BRANCH  31  34
ATOM     34  O   UNL     1      -1.588  -0.419   0.230  0.00  0.00    -0.351 OA
BRANCH  34  36
ATOM     35  C   UNL     1      -0.403   1.685   0.347  0.00  0.00    +0.034 C 
ATOM     36  C   UNL     1      -0.284   0.160   0.303  0.00  0.00    +0.159 C 
ENDBRANCH  34  36
ENDBRANCH  31  34
ENDBRANCH   1  31
TORSDOF 9
