REMARK  Name = ZINC44325748
REMARK  12 active torsions:
REMARK  status: ('A' for Active; 'I' for Inactive)
REMARK    1  A    between atoms: C_1  and  N_2
REMARK    2  A    between atoms: N_2  and  C_3
REMARK    3  A    between atoms: N_2  and  C_4
REMARK    4  A    between atoms: C_4  and  C_5
REMARK    5  A    between atoms: C_5  and  N_6
REMARK    6  A    between atoms: C_8  and  C_15
REMARK    7  A    between atoms: C_15  and  CA_16
REMARK    8  A    between atoms: CA_16  and  C_18
REMARK    9  A    between atoms: CA_16  and  N_21
REMARK   10  A    between atoms: C_22  and  O_24
REMARK   11  A    between atoms: O_24  and  C_25
REMARK   12  A    between atoms: C_25  and  C_26
REMARK                            x       y       z     vdW  Elec       q    Type
REMARK                         _______ _______ _______ _____ _____    ______ ____
ROOT
ATOM      1  CA  UNL     1      -5.624  -5.481   1.554  0.00  0.00    +0.193 C 
ENDROOT
BRANCH   1   2
ATOM      2  N   UNL     1      -4.340  -5.936   2.094  0.00  0.00    -0.267 N 
ATOM      3  C   UNL     1      -3.841  -7.133   1.726  0.00  0.00    +0.401 C 
ATOM      4  O   UNL     1      -4.455  -7.834   0.947  0.00  0.00    -0.226 OA
ATOM      5  H   UNL     1      -3.850  -5.376   2.716  0.00  0.00    +0.153 HD
BRANCH   3   6
ATOM      6  O   UNL     1      -2.661  -7.551   2.222  0.00  0.00    -0.449 OA
BRANCH   6   7
ATOM      7  C   UNL     1      -2.192  -8.829   1.788  0.00  0.00    +0.246 C 
BRANCH   7   8
ATOM      8  C   UNL     1      -0.847  -9.131   2.453  0.00  0.00    +0.088 C 
ATOM      9  C   UNL     1      -1.037  -9.347   3.934  0.00  0.00    -0.029 A 
ATOM     10  C   UNL     1      -1.516  -8.528   4.935  0.00  0.00    +0.005 A 
ATOM     11  C   UNL     1      -1.582  -8.992   6.237  0.00  0.00    +0.000 A 
ATOM     12  C   UNL     1      -1.168 -10.277   6.537  0.00  0.00    +0.001 A 
ATOM     13  C   UNL     1      -0.687 -11.102   5.543  0.00  0.00    +0.009 A 
ATOM     14  C   UNL     1      -0.617 -10.642   4.227  0.00  0.00    -0.014 A 
ATOM     15  C   UNL     1      -0.151 -11.303   2.983  0.00  0.00    -0.014 A 
ATOM     16  C   UNL     1      -0.279 -10.421   1.913  0.00  0.00    -0.029 A 
ATOM     17  C   UNL     1       0.092 -10.809   0.643  0.00  0.00    +0.005 A 
ATOM     18  C   UNL     1       0.595 -12.080   0.427  0.00  0.00    +0.000 A 
ATOM     19  C   UNL     1       0.726 -12.963   1.484  0.00  0.00    +0.001 A 
ATOM     20  C   UNL     1       0.357 -12.583   2.757  0.00  0.00    +0.009 A 
ENDBRANCH   7   8
ENDBRANCH   6   7
ENDBRANCH   3   6
ENDBRANCH   1   2
BRANCH   1  21
ATOM     21  C   UNL     1      -6.747  -6.043   2.387  0.00  0.00    +0.376 C 
ATOM     22  O   UNL     1      -7.829  -6.274   1.875  0.00  0.00    -0.244 OA
ATOM     23  OXT UNL     1      -6.573  -6.268   3.573  0.00  0.00    -0.244 OA
ENDBRANCH   1  21
BRANCH   1  24
ATOM     24  C   UNL     1      -5.679  -3.952   1.590  0.00  0.00    +0.071 C 
BRANCH  24  27
ATOM     25  N   UNL     1      -2.733  -2.544  -0.111  0.00  0.00    -0.348 N 
ATOM     26  C   UNL     1      -3.394  -2.999   0.997  0.00  0.00    +0.090 A 
ATOM     27  C   UNL     1      -4.634  -3.390   0.661  0.00  0.00    -0.020 A 
ATOM     28  C   UNL     1      -4.778  -3.167  -0.779  0.00  0.00    +0.003 A 
ATOM     29  C   UNL     1      -3.553  -2.628  -1.214  0.00  0.00    +0.049 A 
ATOM     30  C   UNL     1      -3.389  -2.304  -2.556  0.00  0.00    +0.026 A 
ATOM     31  C   UNL     1      -4.425  -2.510  -3.442  0.00  0.00    +0.002 A 
ATOM     32  C   UNL     1      -5.632  -3.039  -3.007  0.00  0.00    +0.001 A 
ATOM     33  C   UNL     1      -5.812  -3.373  -1.694  0.00  0.00    +0.010 A 
BRANCH  25  34
ATOM     34  C   UNL     1      -1.358  -2.037  -0.122  0.00  0.00    +0.103 C 
BRANCH  34  35
ATOM     35  C   UNL     1      -1.376  -0.512   0.012  0.00  0.00    -0.058 C 
BRANCH  35  37
ATOM     36  C   UNL     1      -0.018   1.465   0.010  0.00  0.00    -0.097 C 
ATOM     37  N   UNL     1       0.002  -0.004   0.002  0.00  0.00    +0.377 N 
ATOM     38  C   UNL     1       0.713  -0.491   1.192  0.00  0.00    -0.097 C 
ATOM     39  H   UNL     1       0.474  -0.330  -0.828  0.00  0.00    -0.083 HD
ENDBRANCH  35  37
ENDBRANCH  34  35
ENDBRANCH  25  34
ENDBRANCH  24  27
ENDBRANCH   1  24
TORSDOF 10
