REMARK  Name = ZINC39580220
REMARK  11 active torsions:
REMARK  status: ('A' for Active; 'I' for Inactive)
REMARK    1  A    between atoms: C_1  and  C_2
REMARK    2  A    between atoms: C_7  and  N_8
REMARK    3  A    between atoms: C_9  and  C_11
REMARK    4  A    between atoms: C_11  and  C_13
REMARK    5  A    between atoms: C_11  and  O_14
REMARK    6  A    between atoms: O_14  and  C_15
REMARK    7  A    between atoms: C_15  and  C_17
REMARK    8  A    between atoms: C_17  and  N_18
REMARK    9  A    between atoms: C_23  and  C_30
REMARK   10  A    between atoms: C_26  and  C_28
REMARK   11  A    between atoms: C_26  and  C_29
REMARK                            x       y       z     vdW  Elec       q    Type
REMARK                         _______ _______ _______ _____ _____    ______ ____
ROOT
ATOM      1  C   UNL     1       0.450  -1.524   8.387  0.00  0.00    +0.238 C 
ENDROOT
BRANCH   1   2
ATOM      2  N   UNL     1       1.057  -0.776   9.490  0.00  0.00    -0.213 N 
ATOM      3  C   UNL     1       2.384  -0.720   9.729  0.00  0.00    +0.247 C 
ATOM      4  O   UNL     1       3.267  -1.259   9.097  0.00  0.00    -0.273 OA
ATOM      5  C   UNL     1       2.538   0.156  10.952  0.00  0.00    +0.113 C 
ATOM      6  C   UNL     1       3.361   1.395  10.618  0.00  0.00    +0.038 C 
ATOM      7  C   UNL     1       3.478   2.282  11.860  0.00  0.00    -0.011 C 
ATOM      8  C   UNL     1       4.147   1.493  12.987  0.00  0.00    +0.009 C 
ATOM      9  C   UNL     1       3.298   0.266  13.327  0.00  0.00    -0.032 C 
ATOM     10  C   UNL     1       3.180  -0.629  12.090  0.00  0.00    +0.041 C 
ATOM     11  C   UNL     1       3.963  -0.516  14.461  0.00  0.00    +0.011 C 
ATOM     12  C   UNL     1       1.904   0.717  13.766  0.00  0.00    +0.011 C 
ATOM     13  C   UNL     1       4.322   3.514  11.529  0.00  0.00    +0.007 C 
ATOM     14  N   UNL     1       1.160   0.530  11.297  0.00  0.00    -0.285 N 
ATOM     15  C   UNL     1       0.365  -0.058  10.383  0.00  0.00    +0.310 C 
ATOM     16  O   UNL     1      -0.846   0.049  10.372  0.00  0.00    -0.252 OA
ATOM     17  H   UNL     1       0.879   1.093  12.036  0.00  0.00    +0.151 HD
ENDBRANCH   1   2
BRANCH   1  18
ATOM     18  C   UNL     1       0.350  -0.637   7.173  0.00  0.00    +0.326 C 
ATOM     19  O   UNL     1       0.746   0.504   7.224  0.00  0.00    -0.249 OA
BRANCH  18  20
ATOM     20  O   UNL     1      -0.178  -1.113   6.035  0.00  0.00    -0.451 OA
BRANCH  20  21
ATOM     21  C   UNL     1      -0.241  -0.217   4.924  0.00  0.00    +0.259 C 
ATOM     22  C   UNL     1      -1.572   0.537   4.953  0.00  0.00    +0.062 C 
BRANCH  21  24
ATOM     23  N   UNL     1      -0.070  -0.352   2.460  0.00  0.00    -0.282 N 
ATOM     24  C   UNL     1      -0.135  -0.999   3.640  0.00  0.00    +0.258 C 
ATOM     25  O   UNL     1      -0.108  -2.211   3.670  0.00  0.00    -0.271 OA
ATOM     26  H   UNL     1      -0.030   0.617   2.440  0.00  0.00    +0.155 HD
BRANCH  23  33
ATOM     27  C   UNL     1      -1.383   0.769   0.198  0.00  0.00    +0.045 C 
ATOM     28  C   UNL     1      -0.690  -0.568   0.136  0.00  0.00    -0.029 A 
ATOM     29  C   UNL     1      -0.674  -1.284  -1.045  0.00  0.00    +0.005 A 
ATOM     30  C   UNL     1      -0.037  -2.510  -1.103  0.00  0.00    +0.000 A 
ATOM     31  C   UNL     1       0.585  -3.023   0.020  0.00  0.00    +0.002 A 
ATOM     32  C   UNL     1       0.573  -2.312   1.203  0.00  0.00    +0.023 A 
ATOM     33  C   UNL     1      -0.061  -1.077   1.264  0.00  0.00    +0.036 A 
ENDBRANCH  23  33
ENDBRANCH  21  24
ENDBRANCH  20  21
ENDBRANCH  18  20
ENDBRANCH   1  18
TORSDOF 6
