REMARK  Name = ZINC39426081
REMARK  4 active torsions:
REMARK  status: ('A' for Active; 'I' for Inactive)
REMARK    1  A    between atoms: C_6  and  N_7
REMARK    2  A    between atoms: C_8  and  C_10
REMARK    3  A    between atoms: C_10  and  S_11
REMARK    4  A    between atoms: S_11  and  C_12
REMARK                            x       y       z     vdW  Elec       q    Type
REMARK                         _______ _______ _______ _____ _____    ______ ____
ROOT
ATOM      1  N   UNL     1      -1.199  -0.722   0.010  0.00  0.00    -0.285 N 
ATOM      2  C   UNL     1      -1.183  -2.065  -0.100  0.00  0.00    +0.227 C 
ATOM      3  O   UNL     1      -0.126  -2.659  -0.113  0.00  0.00    -0.275 OA
ATOM      4  H   UNL     1      -2.044  -0.253   0.097  0.00  0.00    +0.155 HD
ENDROOT
BRANCH   1  10
ATOM      5  C   UNL     1       1.072  -0.453  -0.766  0.00  0.00    +0.024 A 
ATOM      6  C   UNL     1       2.256   0.258  -0.777  0.00  0.00    +0.016 A 
ATOM      7  C   UNL     1       2.377   1.416  -0.030  0.00  0.00    +0.013 A 
ATOM      8  C   UNL     1       1.312   1.866   0.730  0.00  0.00    +0.016 A 
ATOM      9  C   UNL     1       0.126   1.159   0.745  0.00  0.00    +0.024 A 
ATOM     10  C   UNL     1       0.002  -0.004  -0.004  0.00  0.00    +0.033 A 
ATOM     11  I   UNL     1       4.175   2.490  -0.050  0.00  0.00    -0.044 I 
ENDBRANCH   1  10
BRANCH   2  12
ATOM     12  C   UNL     1      -2.478  -2.828  -0.205  0.00  0.00    +0.173 C 
BRANCH  12  13
ATOM     13  S   UNL     1      -2.125  -4.603  -0.338  0.00  0.00    -0.077 S 
BRANCH  13  14
ATOM     14  C   UNL     1      -3.718  -5.347  -0.452  0.00  0.00    +0.193 A 
ATOM     15  N   UNL     1      -4.812  -4.587  -0.431  0.00  0.00    -0.210 NA
ATOM     16  C   UNL     1      -6.006  -5.145  -0.517  0.00  0.00    +0.227 A 
ATOM     17  N   UNL     1      -6.122  -6.457  -0.622  0.00  0.00    -0.203 NA
ATOM     18  C   UNL     1      -5.033  -7.223  -0.643  0.00  0.00    +0.216 A 
ATOM     19  N   UNL     1      -3.829  -6.667  -0.563  0.00  0.00    -0.189 NA
ATOM     20  N   UNL     1      -5.154  -8.594  -0.753  0.00  0.00    -0.327 N 
ATOM     21  H   UNL     1      -6.033  -8.999  -0.815  0.00  0.00    +0.145 HD
ATOM     22  H   UNL     1      -4.361  -9.151  -0.768  0.00  0.00    +0.145 HD
ENDBRANCH  13  14
ENDBRANCH  12  13
ENDBRANCH   2  12
TORSDOF 4
