REMARK  Name = ZINC23629744
REMARK  8 active torsions:
REMARK  status: ('A' for Active; 'I' for Inactive)
REMARK    1  A    between atoms: C_1  and  C_2
REMARK    2  A    between atoms: C_8  and  N_10
REMARK    3  A    between atoms: C_14  and  C_16
REMARK    4  A    between atoms: C_16  and  O_17
REMARK    5  A    between atoms: O_17  and  C_18
REMARK    6  A    between atoms: C_18  and  C_20
REMARK    7  A    between atoms: C_20  and  C_21
REMARK    8  A    between atoms: C_26  and  N_27
REMARK                            x       y       z     vdW  Elec       q    Type
REMARK                         _______ _______ _______ _____ _____    ______ ____
ROOT
ATOM      1  N   UNL     1       1.893   1.935  -2.706  0.00  0.00    -0.296 N 
ATOM      2  C   UNL     1       2.066   3.200  -3.139  0.00  0.00    +0.306 C 
ATOM      3  O   UNL     1       2.820   3.947  -2.548  0.00  0.00    -0.252 OA
ATOM      4  N   UNL     1       1.401   3.637  -4.227  0.00  0.00    -0.237 N 
ATOM      5  C   UNL     1       1.573   4.902  -4.659  0.00  0.00    +0.258 C 
ATOM      6  O   UNL     1       2.326   5.647  -4.069  0.00  0.00    -0.272 OA
ATOM      7  H   UNL     1       1.210   1.259  -3.241  0.00  0.00    +0.151 HD
ATOM      8  H   UNL     1       0.718   2.961  -4.762  0.00  0.00    +0.159 HD
ENDROOT
BRANCH   1  15
ATOM      9  C   UNL     1       3.542  -0.442  -2.853  0.00  0.00    +0.009 C 
ATOM     10  C   UNL     1       2.763  -0.061  -1.592  0.00  0.00    +0.006 C 
ATOM     11  C   UNL     1       1.376  -0.705  -1.635  0.00  0.00    +0.005 C 
ATOM     12  C   UNL     1       0.597  -0.324  -0.374  0.00  0.00    +0.000 C 
ATOM     13  C   UNL     1       0.451   1.197  -0.306  0.00  0.00    +0.002 C 
ATOM     14  C   UNL     1       1.838   1.842  -0.263  0.00  0.00    +0.022 C 
ATOM     15  C   UNL     1       2.616   1.461  -1.524  0.00  0.00    +0.077 C 
ENDBRANCH   1  15
BRANCH   5  16
ATOM     16  C   UNL     1       0.829   5.390  -5.876  0.00  0.00    +0.328 C 
BRANCH  16  17
ATOM     17  O   UNL     1       1.182   6.774  -6.136  0.00  0.00    -0.455 OA
BRANCH  17  18
ATOM     18  C   UNL     1       0.602   7.363  -7.193  0.00  0.00    +0.312 C 
ATOM     19  O   UNL     1      -0.176   6.742  -7.879  0.00  0.00    -0.250 OA
BRANCH  18  20
ATOM     20  C   UNL     1       0.919   8.798  -7.525  0.00  0.00    +0.158 C 
BRANCH  20  21
ATOM     21  C   UNL     1       0.143   9.214  -8.747  0.00  0.00    -0.007 A 
ATOM     22  C   UNL     1      -1.011   9.963  -8.611  0.00  0.00    +0.006 A 
ATOM     23  C   UNL     1      -1.724  10.346  -9.732  0.00  0.00    +0.000 A 
ATOM     24  C   UNL     1      -1.282   9.980 -10.990  0.00  0.00    +0.002 A 
ATOM     25  C   UNL     1      -0.128   9.232 -11.126  0.00  0.00    +0.033 A 
ATOM     26  C   UNL     1       0.587   8.853 -10.005  0.00  0.00    +0.130 A 
BRANCH  26  27
ATOM     27  N   UNL     1       1.826   8.056 -10.151  0.00  0.00    +0.057 N 
ATOM     28  O   UNL     1       2.275   7.826 -11.260  0.00  0.00    -0.126 OA
ATOM     29  O   UNL     1       2.397   7.630  -9.163  0.00  0.00    -0.126 OA
ENDBRANCH  26  27
ENDBRANCH  20  21
ENDBRANCH  18  20
ENDBRANCH  17  18
ENDBRANCH  16  17
ENDBRANCH   5  16
TORSDOF 7
