REMARK  Name = ZINC12659348
REMARK  8 active torsions:
REMARK  status: ('A' for Active; 'I' for Inactive)
REMARK    1  A    between atoms: C_1  and  C_2
REMARK    2  A    between atoms: C_2  and  C_8
REMARK    3  A    between atoms: N_3  and  N_4
REMARK    4  A    between atoms: N_4  and  C_5
REMARK    5  A    between atoms: C_5  and  N_7
REMARK    6  A    between atoms: C_13  and  C_32
REMARK    7  A    between atoms: C_24  and  C_31
REMARK    8  A    between atoms: C_27  and  O_30
REMARK                            x       y       z     vdW  Elec       q    Type
REMARK                         _______ _______ _______ _____ _____    ______ ____
ROOT
ATOM      1  C   UNL     1       5.739   1.850  -0.720  0.00  0.00    -0.023 C 
ATOM      2  C   UNL     1       5.303   2.569   0.332  0.00  0.00    -0.021 C 
ATOM      3  C   UNL     1       3.804   2.339   0.531  0.00  0.00    +0.032 C 
ATOM      4  C   UNL     1       3.644   0.955  -0.119  0.00  0.00    +0.006 C 
ATOM      5  C   UNL     1       4.542   1.179  -1.355  0.00  0.00    -0.002 C 
ATOM      6  C   UNL     1       4.789  -0.113  -2.085  0.00  0.00    +0.012 C 
ATOM      7  C   UNL     1       3.558  -1.034  -1.998  0.00  0.00    +0.005 C 
ATOM      8  C   UNL     1       2.284  -0.221  -1.837  0.00  0.00    -0.001 C 
ATOM      9  C   UNL     1       2.277   0.474  -0.471  0.00  0.00    -0.003 C 
ATOM     10  C   UNL     1       1.166   1.513  -0.440  0.00  0.00    +0.004 C 
ATOM     11  C   UNL     1      -0.169   0.789  -0.693  0.00  0.00    +0.004 C 
ATOM     12  C   UNL     1       0.072  -0.712  -0.810  0.00  0.00    -0.002 C 
ATOM     13  C   UNL     1       1.005  -1.048  -1.973  0.00  0.00    -0.026 C 
ATOM     14  C   UNL     1       1.312  -2.543  -1.953  0.00  0.00    +0.010 C 
ATOM     15  C   UNL     1       0.018  -3.349  -2.057  0.00  0.00    +0.032 C 
ATOM     16  C   UNL     1      -0.946  -2.977  -0.931  0.00  0.00    +0.115 C 
ATOM     17  C   UNL     1      -1.243  -1.476  -0.956  0.00  0.00    +0.035 C 
ATOM     18  C   UNL     1       0.348  -0.679  -3.308  0.00  0.00    +0.012 C 
ATOM     19  C   UNL     1       3.957   2.221  -2.314  0.00  0.00    +0.016 C 
ENDROOT
BRANCH   1  21
ATOM     20  C   UNL     1       8.223   2.460  -0.452  0.00  0.00    +0.067 C 
ATOM     21  C   UNL     1       7.122   1.734  -1.181  0.00  0.00    +0.060 C 
ATOM     22  N   UNL     1       7.401   1.006  -2.221  0.00  0.00    -0.186 NA
BRANCH  22  23
ATOM     23  N   UNL     1       8.726   0.895  -2.663  0.00  0.00    -0.218 N 
ATOM     24  H   UNL     1       9.435   1.362  -2.193  0.00  0.00    +0.176 HD
BRANCH  23  25
ATOM     25  C   UNL     1       9.016   0.140  -3.741  0.00  0.00    +0.147 C 
ATOM     26  S   UNL     1      10.635   0.004  -4.281  0.00  0.00    -0.017 S 
BRANCH  25  27
ATOM     27  N   UNL     1       8.031  -0.509  -4.394  0.00  0.00    -0.339 N 
ATOM     28  H   UNL     1       7.114  -0.432  -4.088  0.00  0.00    +0.144 HD
ATOM     29  H   UNL     1       8.240  -1.053  -5.169  0.00  0.00    +0.144 HD
ENDBRANCH  25  27
ENDBRANCH  23  25
ENDBRANCH  22  23
ENDBRANCH   1  21
BRANCH  16  30
ATOM     30  O   UNL     1      -2.168  -3.703  -1.091  0.00  0.00    -0.392 OA
ATOM     31  H   UNL     1      -2.060  -4.663  -1.070  0.00  0.00    +0.210 HD
ENDBRANCH  16  30
TORSDOF 5
