REMARK  Name = ZINC49380395
REMARK  6 active torsions:
REMARK  status: ('A' for Active; 'I' for Inactive)
REMARK    1  A    between atoms: C_1  and  C_2
REMARK    2  A    between atoms: C_4  and  C_8
REMARK    3  A    between atoms: C_5  and  C_7
REMARK    4  A    between atoms: C_8  and  C_10
REMARK    5  A    between atoms: C_8  and  N_11
REMARK    6  A    between atoms: C_12  and  C_14
REMARK                            x       y       z     vdW  Elec       q    Type
REMARK                         _______ _______ _______ _____ _____    ______ ____
ROOT
ATOM      1  N   UNL     1      -2.786  -3.079   0.471  0.00  0.00    -0.305 N 
ATOM      2  C   UNL     1      -3.542  -4.045   1.030  0.00  0.00    +0.245 C 
ATOM      3  O   UNL     1      -3.105  -5.174   1.135  0.00  0.00    -0.270 OA
ATOM      4  H   UNL     1      -3.135  -2.178   0.387  0.00  0.00    +0.150 HD
ENDROOT
BRANCH   2   5
ATOM      5  C   UNL     1      -4.903  -3.730   1.514  0.00  0.00    +0.039 A 
ATOM      6  C   UNL     1      -5.410  -2.436   1.389  0.00  0.00    +0.033 A 
ATOM      7  C   UNL     1      -6.681  -2.149   1.844  0.00  0.00    +0.043 A 
ATOM      8  C   UNL     1      -7.453  -3.142   2.423  0.00  0.00    +0.040 A 
ATOM      9  C   UNL     1      -6.956  -4.427   2.550  0.00  0.00    +0.043 A 
ATOM     10  C   UNL     1      -5.688  -4.728   2.094  0.00  0.00    +0.033 A 
ATOM     11 CL   UNL     1      -7.931  -5.665   3.278  0.00  0.00    -0.083 Cl
ATOM     12 CL   UNL     1      -7.313  -0.539   1.690  0.00  0.00    -0.083 Cl
ENDBRANCH   2   5
BRANCH   1  13
ATOM     13  C   UNL     1      -1.437  -3.390  -0.009  0.00  0.00    +0.104 C 
ATOM     14  C   UNL     1      -1.518  -3.946  -1.432  0.00  0.00    +0.033 C 
BRANCH  13  18
ATOM     15  C   UNL     1      -0.018   1.503   0.010  0.00  0.00    +0.086 C 
ATOM     16  C   UNL     1       0.002  -0.004   0.002  0.00  0.00    +0.103 A 
ATOM     17  C   UNL     1      -1.078  -0.805   0.003  0.00  0.00    +0.050 A 
ATOM     18  C   UNL     1      -0.601  -2.136  -0.007  0.00  0.00    +0.013 A 
ATOM     19  C   UNL     1       0.742  -2.069  -0.013  0.00  0.00    +0.107 A 
ATOM     20  O   UNL     1       1.102  -0.775  -0.013  0.00  0.00    -0.465 OA
ATOM     21  C   UNL     1       1.684  -3.245  -0.023  0.00  0.00    +0.086 C 
ENDBRANCH  13  18
ENDBRANCH   1  13
TORSDOF 3
