REMARK  Name = ZINC02746253
REMARK  8 active torsions:
REMARK  status: ('A' for Active; 'I' for Inactive)
REMARK    1  A    between atoms: C_1  and  C_2
REMARK    2  A    between atoms: C_2  and  C_3
REMARK    3  A    between atoms: C_3  and  C_5
REMARK    4  A    between atoms: C_3  and  S_19
REMARK    5  A    between atoms: C_10  and  C_13
REMARK    6  A    between atoms: S_19  and  C_20
REMARK    7  A    between atoms: N_30  and  C_31
REMARK    8  A    between atoms: C_31  and  C_32
REMARK                            x       y       z     vdW  Elec       q    Type
REMARK                         _______ _______ _______ _____ _____    ______ ____
ROOT
ATOM      1  C   UNL     1       0.747  10.401   0.099  0.00  0.00    +0.140 C 
ENDROOT
BRANCH   1   2
ATOM      2  C   UNL     1       1.105  11.839  -0.172  0.00  0.00    +0.232 C 
ATOM      3  O   UNL     1       2.243  12.224  -0.003  0.00  0.00    -0.274 OA
ATOM      4  N   UNL     1       0.160  12.699  -0.602  0.00  0.00    -0.264 N 
ATOM      5  C   UNL     1       0.490  14.025  -0.852  0.00  0.00    +0.165 A 
ATOM      6  N   UNL     1      -0.279  15.012  -1.273  0.00  0.00    -0.225 NA
ATOM      7  C   UNL     1       0.206  16.231  -1.460  0.00  0.00    +0.080 A 
ATOM      8  C   UNL     1       1.528  16.471  -1.212  0.00  0.00    +0.076 A 
ATOM      9  S   UNL     1       2.066  14.851  -0.681  0.00  0.00    -0.060 S 
ATOM     10  H   UNL     1      -0.750  12.392  -0.738  0.00  0.00    +0.157 HD
BRANCH   7  11
ATOM     11  C   UNL     1      -0.678  17.323  -1.934  0.00  0.00    +0.001 A 
ATOM     12  C   UNL     1      -0.165  18.605  -2.125  0.00  0.00    +0.010 A 
ATOM     13  C   UNL     1      -0.991  19.617  -2.571  0.00  0.00    +0.001 A 
ATOM     14  C   UNL     1      -2.328  19.363  -2.818  0.00  0.00    +0.000 A 
ATOM     15  C   UNL     1      -2.844  18.094  -2.626  0.00  0.00    +0.001 A 
ATOM     16  C   UNL     1      -2.026  17.074  -2.185  0.00  0.00    +0.010 A 
ENDBRANCH   7  11
ENDBRANCH   1   2
BRANCH   1  18
ATOM     17  C   UNL     1      -0.416   8.859   1.684  0.00  0.00    +0.005 C 
ATOM     18  C   UNL     1       0.077  10.291   1.470  0.00  0.00    +0.020 C 
ENDBRANCH   1  18
BRANCH   1  19
ATOM     19  S   UNL     1       2.250   9.392   0.080  0.00  0.00    -0.072 S 
BRANCH  19  20
ATOM     20  C   UNL     1       2.669   9.501  -1.628  0.00  0.00    +0.212 A 
ATOM     21  N   UNL     1       3.804   8.962  -2.055  0.00  0.00    -0.201 NA
ATOM     22  C   UNL     1       4.119   9.045  -3.344  0.00  0.00    +0.165 A 
ATOM     23  C   UNL     1       3.225   9.709  -4.210  0.00  0.00    +0.138 A 
ATOM     24  C   UNL     1       3.827   9.646  -5.553  0.00  0.00    +0.029 A 
ATOM     25  C   UNL     1       3.432  10.114  -6.804  0.00  0.00    +0.012 A 
ATOM     26  C   UNL     1       4.237   9.897  -7.902  0.00  0.00    +0.001 A 
ATOM     27  C   UNL     1       5.432   9.207  -7.765  0.00  0.00    +0.002 A 
ATOM     28  C   UNL     1       5.835   8.739  -6.533  0.00  0.00    +0.026 A 
ATOM     29  C   UNL     1       5.039   8.953  -5.412  0.00  0.00    +0.053 A 
ATOM     30  N   UNL     1       5.191   8.604  -4.080  0.00  0.00    -0.320 N 
ATOM     31  N   UNL     1       2.108  10.226  -3.721  0.00  0.00    -0.143 NA
ATOM     32  N   UNL     1       1.843  10.121  -2.464  0.00  0.00    -0.122 NA
BRANCH  30  33
ATOM     33  C   UNL     1       6.333   7.867  -3.534  0.00  0.00    +0.150 C 
BRANCH  33  34
ATOM     34  C   UNL     1       7.399   8.840  -3.102  0.00  0.00    -0.013 C 
ATOM     35  C   UNL     1       7.858   8.807  -1.876  0.00  0.00    +0.005 C 
ENDBRANCH  33  34
ENDBRANCH  30  33
ENDBRANCH  19  20
ENDBRANCH   1  19
TORSDOF 7
