REMARK  Name = ZINC09409184
REMARK  13 active torsions:
REMARK  status: ('A' for Active; 'I' for Inactive)
REMARK    1  A    between atoms: C_1  and  C_2
REMARK    2  A    between atoms: C_2  and  C_3
REMARK    3  A    between atoms: C_3  and  C_4
REMARK    4  A    between atoms: C_4  and  O_5
REMARK    5  A    between atoms: O_5  and  C_6
REMARK    6  A    between atoms: C_10  and  C_12
REMARK    7  A    between atoms: C_15  and  C_33
REMARK    8  A    between atoms: N_22  and  C_23
REMARK    9  A    between atoms: C_23  and  C_24
REMARK   10  A    between atoms: C_24  and  C_25
REMARK   11  A    between atoms: C_28  and  O_31
REMARK   12  A    between atoms: O_31  and  C_32
REMARK   13  A    between atoms: C_38  and  O_39
REMARK                            x       y       z     vdW  Elec       q    Type
REMARK                         _______ _______ _______ _____ _____    ______ ____
ROOT
ATOM      1  C   UNL     1      -5.263  -6.517  -0.154  0.00  0.00    +0.141 C 
ATOM      2  C   UNL     1      -5.940  -6.830  -1.460  0.00  0.00    +0.035 A 
ATOM      3  C   UNL     1      -6.399  -6.355  -2.694  0.00  0.00    +0.102 A 
ATOM      4  N   UNL     1      -6.935  -7.376  -3.334  0.00  0.00    -0.173 NA
ATOM      5  N   UNL     1      -6.859  -8.447  -2.628  0.00  0.00    -0.272 N 
ATOM      6  H   UNL     1      -7.189  -9.318  -2.900  0.00  0.00    +0.189 HD
ATOM      7  C   UNL     1      -6.246  -8.177  -1.438  0.00  0.00    +0.126 A 
ATOM      8  C   UNL     1      -5.788  -8.738  -0.162  0.00  0.00    +0.265 C 
ATOM      9  O   UNL     1      -5.909  -9.902   0.168  0.00  0.00    -0.268 OA
ATOM     10  N   UNL     1      -5.215  -7.780   0.593  0.00  0.00    -0.285 N 
ENDROOT
BRANCH   1  15
ATOM     11  C   UNL     1      -2.272  -4.219  -0.372  0.00  0.00    +0.121 A 
ATOM     12  C   UNL     1      -1.300  -5.079  -0.861  0.00  0.00    +0.045 A 
ATOM     13  C   UNL     1      -1.614  -6.399  -1.119  0.00  0.00    +0.004 A 
ATOM     14  C   UNL     1      -2.896  -6.864  -0.890  0.00  0.00    +0.006 A 
ATOM     15  C   UNL     1      -3.867  -6.008  -0.403  0.00  0.00    -0.019 A 
ATOM     16  C   UNL     1      -3.556  -4.688  -0.137  0.00  0.00    +0.051 A 
BRANCH  11  17
ATOM     17  O   UNL     1      -1.965  -2.920  -0.117  0.00  0.00    -0.492 OA
BRANCH  17  18
ATOM     18  C   UNL     1      -0.623  -2.506  -0.382  0.00  0.00    +0.229 C 
BRANCH  18  19
ATOM     19  C   UNL     1      -0.468  -1.024  -0.036  0.00  0.00    +0.041 C 
BRANCH  19  21
ATOM     20  C   UNL     1       1.123   0.901   0.026  0.00  0.00    +0.004 C 
ATOM     21  C   UNL     1       0.969  -0.581  -0.320  0.00  0.00    -0.000 C 
ENDBRANCH  19  21
ENDBRANCH  18  19
ENDBRANCH  17  18
ENDBRANCH  11  17
ENDBRANCH   1  15
BRANCH   3  22
ATOM     22  C   UNL     1      -6.302  -4.960  -3.190  0.00  0.00    +0.044 A 
ATOM     23  C   UNL     1      -5.817  -3.954  -2.358  0.00  0.00    +0.014 A 
ATOM     24  C   UNL     1      -5.728  -2.658  -2.824  0.00  0.00    +0.001 A 
ATOM     25  C   UNL     1      -6.119  -2.354  -4.116  0.00  0.00    +0.004 A 
ATOM     26  C   UNL     1      -6.602  -3.344  -4.950  0.00  0.00    +0.046 A 
ATOM     27  C   UNL     1      -6.691  -4.651  -4.497  0.00  0.00    +0.126 A 
BRANCH  27  28
ATOM     28  O   UNL     1      -7.159  -5.627  -5.317  0.00  0.00    -0.506 OA
ATOM     29  H   UNL     1      -8.117  -5.752  -5.273  0.00  0.00    +0.292 HD
ENDBRANCH  27  28
ENDBRANCH   3  22
BRANCH  10  30
ATOM     30  C   UNL     1      -4.642  -7.967   1.929  0.00  0.00    +0.114 C 
BRANCH  30  31
ATOM     31  C   UNL     1      -5.724  -7.730   2.985  0.00  0.00    +0.054 C 
BRANCH  31  32
ATOM     32  C   UNL     1      -5.134  -7.922   4.359  0.00  0.00    -0.046 A 
ATOM     33  C   UNL     1      -5.150  -9.172   4.948  0.00  0.00    +0.007 A 
ATOM     34  C   UNL     1      -4.610  -9.350   6.207  0.00  0.00    +0.046 A 
ATOM     35  C   UNL     1      -4.053  -8.273   6.880  0.00  0.00    +0.120 A 
ATOM     36  C   UNL     1      -4.038  -7.019   6.287  0.00  0.00    +0.046 A 
ATOM     37  C   UNL     1      -4.574  -6.848   5.025  0.00  0.00    +0.007 A 
BRANCH  35  38
ATOM     38  O   UNL     1      -3.522  -8.445   8.120  0.00  0.00    -0.495 OA
ATOM     39  C   UNL     1      -2.965  -7.292   8.753  0.00  0.00    +0.277 C 
ENDBRANCH  35  38
ENDBRANCH  31  32
ENDBRANCH  30  31
ENDBRANCH  10  30
TORSDOF 11
