REMARK  Name = ZINC43508972
REMARK  3 active torsions:
REMARK  status: ('A' for Active; 'I' for Inactive)
REMARK    1  A    between atoms: C_1  and  C_2
REMARK    2  A    between atoms: C_2  and  C_11
REMARK    3  A    between atoms: N_13  and  C_14
REMARK                            x       y       z     vdW  Elec       q    Type
REMARK                         _______ _______ _______ _____ _____    ______ ____
ROOT
ATOM      1  C   UNL     1      -3.569  -0.766  -1.147  0.00  0.00    +0.078 C 
ATOM      2  C   UNL     1      -3.549  -2.159  -1.782  0.00  0.00    +0.028 C 
ATOM      3  C   UNL     1      -4.924  -2.816  -1.615  0.00  0.00    +0.055 C 
ATOM      4  C   UNL     1      -5.981  -1.844  -2.085  0.00  0.00    +0.020 A 
ATOM      5  C   UNL     1      -5.764  -0.522  -2.252  0.00  0.00    -0.017 A 
ATOM      6  C   UNL     1      -7.009   0.060  -2.709  0.00  0.00    +0.004 A 
ATOM      7  C   UNL     1      -7.379   1.367  -3.042  0.00  0.00    +0.025 A 
ATOM      8  C   UNL     1      -8.677   1.560  -3.448  0.00  0.00    +0.019 A 
ATOM      9  C   UNL     1      -9.586   0.516  -3.528  0.00  0.00    +0.017 A 
ATOM     10  C   UNL     1      -9.246  -0.785  -3.204  0.00  0.00    +0.027 A 
ATOM     11  C   UNL     1      -7.935  -1.011  -2.788  0.00  0.00    +0.047 A 
ATOM     12  N   UNL     1      -7.280  -2.145  -2.403  0.00  0.00    -0.358 N 
ATOM     13  H   UNL     1      -7.673  -3.030  -2.362  0.00  0.00    +0.166 HD
ATOM     14 BR   UNL     1      -9.242   3.304  -3.913  0.00  0.00    -0.050 Br
ATOM     15  C   UNL     1      -4.447   0.165  -1.992  0.00  0.00    +0.059 C 
ENDROOT
BRANCH   1  18
ATOM     16  C   UNL     1      -1.401  -0.551  -0.056  0.00  0.00    +0.220 C 
ATOM     17  O   UNL     1      -1.806  -1.276   0.828  0.00  0.00    -0.275 OA
ATOM     18  N   UNL     1      -2.205  -0.234  -1.090  0.00  0.00    -0.312 N 
ATOM     19  H   UNL     1      -1.881   0.346  -1.797  0.00  0.00    +0.149 HD
BRANCH  16  21
ATOM     20  C   UNL     1      -0.019   1.526   0.010  0.00  0.00    +0.021 C 
ATOM     21  C   UNL     1       0.002  -0.004   0.002  0.00  0.00    +0.051 C 
ATOM     22  C   UNL     1       0.845  -0.530  -1.185  0.00  0.00    +0.024 C 
ATOM     23  C   UNL     1       1.997  -1.328  -0.496  0.00  0.00    +0.013 C 
ATOM     24  C   UNL     1       2.244  -0.431   0.772  0.00  0.00    +0.016 C 
ATOM     25  C   UNL     1       0.753  -0.550   1.258  0.00  0.00    +0.027 C 
ATOM     26  C   UNL     1       0.570  -2.070   1.171  0.00  0.00    -0.026 C 
ATOM     27  C   UNL     1       1.290  -2.530   0.141  0.00  0.00    -0.027 C 
ENDBRANCH  16  21
ENDBRANCH   1  18
TORSDOF 2
