REMARK  Name = ZINC13064115
REMARK  14 active torsions:
REMARK  status: ('A' for Active; 'I' for Inactive)
REMARK    1  A    between atoms: C_1  and  C_2
REMARK    2  A    between atoms: C_2  and  C_3
REMARK    3  A    between atoms: C_3  and  C_5
REMARK    4  A    between atoms: C_3  and  N_70
REMARK    5  A    between atoms: N_9  and  C_10
REMARK    6  A    between atoms: C_10  and  C_11
REMARK    7  A    between atoms: C_14  and  O_17
REMARK    8  A    between atoms: O_17  and  C_18
REMARK    9  A    between atoms: C_19  and  C_20
REMARK   10  A    between atoms: C_19  and  N_70
REMARK   11  A    between atoms: C_26  and  C_27
REMARK   12  A    between atoms: C_26  and  N_70
REMARK   13  A    between atoms: C_31  and  O_39
REMARK   14  A    between atoms: O_39  and  C_40
REMARK                            x       y       z     vdW  Elec       q    Type
REMARK                         _______ _______ _______ _____ _____    ______ ____
ROOT
ATOM      1  N   UNL     1      -0.813   1.036  -1.174  0.00  0.00    +0.392 N 
ATOM      2  H   UNL     1      -1.820   0.837  -1.215  0.00  0.00    -0.080 HD
ENDROOT
BRANCH   1   3
ATOM      3  C   UNL     1      -0.186   0.605  -2.441  0.00  0.00    +0.003 C 
BRANCH   3   4
ATOM      4  C   UNL     1      -1.190   0.769  -3.553  0.00  0.00    +0.138 A 
ATOM      5  N   UNL     1      -2.117   1.692  -3.640  0.00  0.00    -0.115 NA
ATOM      6  N   UNL     1      -2.770   1.498  -4.734  0.00  0.00    -0.023 NA
ATOM      7  N   UNL     1      -2.288   0.471  -5.343  0.00  0.00    -0.044 NA
ATOM      8  N   UNL     1      -1.312  -0.006  -4.647  0.00  0.00    -0.226 N 
BRANCH   8   9
ATOM      9  C   UNL     1      -0.492  -1.172  -4.982  0.00  0.00    +0.182 C 
BRANCH   9  10
ATOM     10  C   UNL     1      -1.120  -2.412  -4.400  0.00  0.00    -0.026 A 
ATOM     11  C   UNL     1      -0.773  -2.830  -3.129  0.00  0.00    +0.009 A 
ATOM     12  C   UNL     1      -1.351  -3.963  -2.591  0.00  0.00    +0.046 A 
ATOM     13  C   UNL     1      -2.273  -4.689  -3.332  0.00  0.00    +0.120 A 
ATOM     14  C   UNL     1      -2.615  -4.271  -4.610  0.00  0.00    +0.046 A 
ATOM     15  C   UNL     1      -2.038  -3.134  -5.141  0.00  0.00    +0.009 A 
BRANCH  13  16
ATOM     16  O   UNL     1      -2.839  -5.807  -2.807  0.00  0.00    -0.495 OA
ATOM     17  C   UNL     1      -2.440  -6.178  -1.486  0.00  0.00    +0.277 C 
ENDBRANCH  13  16
ENDBRANCH   9  10
ENDBRANCH   8   9
ENDBRANCH   3   4
BRANCH   3  19
ATOM     18  C   UNL     1       2.121   1.189  -1.681  0.00  0.00    +0.002 C 
ATOM     19  C   UNL     1       1.050   1.455  -2.740  0.00  0.00    -0.011 C 
ENDBRANCH   3  19
ENDBRANCH   1   3
BRANCH   1  20
ATOM     20  C   UNL     1      -0.618   2.488  -0.981  0.00  0.00    -0.040 C 
BRANCH  20  21
ATOM     21  C   UNL     1      -1.563   3.228  -1.893  0.00  0.00    -0.046 A 
ATOM     22  C   UNL     1      -1.120   3.724  -3.110  0.00  0.00    +0.005 A 
ATOM     23  C   UNL     1      -2.025   4.394  -3.918  0.00  0.00    +0.020 A 
ATOM     24  C   UNL     1      -3.328   4.552  -3.484  0.00  0.00    +0.111 A 
ATOM     25  N   UNL     1      -3.713   4.070  -2.318  0.00  0.00    -0.263 NA
ATOM     26  C   UNL     1      -2.880   3.424  -1.525  0.00  0.00    +0.112 A 
ENDBRANCH  20  21
ENDBRANCH   1  20
BRANCH   1  27
ATOM     27  C   UNL     1      -0.224   0.292  -0.040  0.00  0.00    -0.036 C 
BRANCH  27  28
ATOM     28  C   UNL     1      -1.115   0.458   1.163  0.00  0.00    +0.001 A 
ATOM     29  C   UNL     1      -2.063  -0.473   1.435  0.00  0.00    +0.017 A 
ATOM     30  C   UNL     1      -2.913  -0.284   2.612  0.00  0.00    +0.002 A 
ATOM     31  C   UNL     1      -3.907  -1.211   2.942  0.00  0.00    +0.055 A 
ATOM     32  C   UNL     1      -4.691  -1.002   4.058  0.00  0.00    +0.121 A 
ATOM     33  C   UNL     1      -4.495   0.125   4.853  0.00  0.00    +0.047 A 
ATOM     34  C   UNL     1      -3.520   1.045   4.539  0.00  0.00    +0.030 A 
ATOM     35  C   UNL     1      -2.719   0.854   3.418  0.00  0.00    +0.049 A 
ATOM     36  N   UNL     1      -1.737   1.764   3.086  0.00  0.00    -0.322 N 
ATOM     37  H   UNL     1      -1.603   2.548   3.642  0.00  0.00    +0.169 HD
ATOM     38  C   UNL     1      -0.957   1.578   2.007  0.00  0.00    +0.251 A 
ATOM     39  O   UNL     1      -0.096   2.400   1.747  0.00  0.00    -0.268 OA
BRANCH  32  40
ATOM     40  O   UNL     1      -5.658  -1.900   4.384  0.00  0.00    -0.495 OA
ATOM     41  C   UNL     1      -6.434  -1.624   5.552  0.00  0.00    +0.277 C 
ENDBRANCH  32  40
ENDBRANCH  27  28
ENDBRANCH   1  27
TORSDOF 11
