REMARK  Name = ZINC39997845
REMARK  16 active torsions:
REMARK  status: ('A' for Active; 'I' for Inactive)
REMARK    1  A    between atoms: C_1  and  C_2
REMARK    2  A    between atoms: C_2  and  C_3
REMARK    3  A    between atoms: C_3  and  C_4
REMARK    4  A    between atoms: C_7  and  N_9
REMARK    5  A    between atoms: C_10  and  C_11
REMARK    6  A    between atoms: C_10  and  O_38
REMARK    7  A    between atoms: C_11  and  C_36
REMARK    8  A    between atoms: C_12  and  C_13
REMARK    9  A    between atoms: N_15  and  C_30
REMARK   10  A    between atoms: C_17  and  C_18
REMARK   11  A    between atoms: C_21  and  O_24
REMARK   12  A    between atoms: O_24  and  C_25
REMARK   13  A    between atoms: C_25  and  C_26
REMARK   14  A    between atoms: C_26  and  C_27
REMARK   15  A    between atoms: C_27  and  C_28
REMARK   16  A    between atoms: C_27  and  C_29
REMARK                            x       y       z     vdW  Elec       q    Type
REMARK                         _______ _______ _______ _____ _____    ______ ____
ROOT
ATOM      1  C   UNL     1       1.145 -10.694   1.144  0.00  0.00    +0.022 A 
ATOM      2  C   UNL     1       0.017 -11.158   1.802  0.00  0.00    +0.123 A 
ATOM      3  N   UNL     1       0.107 -12.498   1.875  0.00  0.00    -0.239 N 
ATOM      4  N   UNL     1       1.291 -12.925   1.269  0.00  0.00    -0.166 NA
ATOM      5  C   UNL     1       1.944 -11.882   0.810  0.00  0.00    +0.100 A 
ENDROOT
BRANCH   5   6
ATOM      6  C   UNL     1       3.241 -11.898   0.095  0.00  0.00    +0.003 A 
ATOM      7  C   UNL     1       3.494 -10.971  -0.916  0.00  0.00    +0.013 A 
ATOM      8  C   UNL     1       4.703 -10.989  -1.579  0.00  0.00    +0.046 A 
ATOM      9  C   UNL     1       5.668 -11.930  -1.242  0.00  0.00    +0.121 A 
ATOM     10  C   UNL     1       5.419 -12.854  -0.236  0.00  0.00    +0.046 A 
ATOM     11  C   UNL     1       4.215 -12.838   0.435  0.00  0.00    +0.013 A 
BRANCH   9  12
ATOM     12  O   UNL     1       6.858 -11.945  -1.897  0.00  0.00    -0.492 OA
BRANCH  12  13
ATOM     13  C   UNL     1       7.805 -12.938  -1.500  0.00  0.00    +0.229 C 
BRANCH  13  14
ATOM     14  C   UNL     1       9.073 -12.800  -2.344  0.00  0.00    +0.044 C 
BRANCH  14  15
ATOM     15  C   UNL     1      10.087 -13.864  -1.918  0.00  0.00    -0.014 C 
ATOM     16  C   UNL     1      11.305 -13.807  -2.843  0.00  0.00    +0.007 C 
ATOM     17  C   UNL     1      10.529 -13.600  -0.477  0.00  0.00    +0.007 C 
ENDBRANCH  14  15
ENDBRANCH  13  14
ENDBRANCH  12  13
ENDBRANCH   9  12
ENDBRANCH   5   6
BRANCH   3  18
ATOM     18  C   UNL     1      -0.843 -13.338   2.470  0.00  0.00    +0.065 A 
ATOM     19  C   UNL     1      -1.989 -12.799   3.040  0.00  0.00    +0.028 A 
ATOM     20  C   UNL     1      -2.924 -13.630   3.626  0.00  0.00    +0.002 A 
ATOM     21  C   UNL     1      -2.719 -14.997   3.646  0.00  0.00    +0.000 A 
ATOM     22  C   UNL     1      -1.579 -15.537   3.080  0.00  0.00    +0.002 A 
ATOM     23  C   UNL     1      -0.643 -14.712   2.487  0.00  0.00    +0.028 A 
ENDBRANCH   3  18
BRANCH   1  25
ATOM     24  C   UNL     1       0.489  -8.335   0.889  0.00  0.00    +0.114 C 
ATOM     25  C   UNL     1       1.472  -9.303   0.839  0.00  0.00    +0.035 C 
BRANCH  24  27
ATOM     26  N   UNL     1      -0.094  -5.997   0.779  0.00  0.00    -0.184 NA
ATOM     27  C   UNL     1       0.843  -6.919   0.731  0.00  0.00    +0.233 C 
BRANCH  26  31
ATOM     28  C   UNL     1       0.513  -2.050   0.386  0.00  0.00    +0.104 A 
ATOM     29  N   UNL     1       1.545  -2.868   0.317  0.00  0.00    -0.144 NA
ATOM     30  N   UNL     1       1.422  -4.118   0.433  0.00  0.00    -0.121 NA
ATOM     31  C   UNL     1       0.234  -4.687   0.633  0.00  0.00    +0.218 A 
ATOM     32  S   UNL     1      -0.806  -3.230   0.658  0.00  0.00    -0.031 S 
BRANCH  28  33
ATOM     33  C   UNL     1       0.459  -0.548   0.274  0.00  0.00    +0.064 C 
BRANCH  33  35
ATOM     34  C   UNL     1       0.194   1.372  -1.304  0.00  0.00    +0.004 C 
ATOM     35  C   UNL     1       0.248  -0.153  -1.190  0.00  0.00    +0.003 C 
ENDBRANCH  33  35
ENDBRANCH  28  33
ENDBRANCH  26  31
BRANCH  27  36
ATOM     36  O   UNL     1       2.133  -6.562   0.535  0.00  0.00    -0.491 OA
ATOM     37  H   UNL     1       2.749  -7.308   0.515  0.00  0.00    +0.294 HD
ENDBRANCH  27  36
ENDBRANCH  24  27
BRANCH  24  38
ATOM     38  C   UNL     1      -0.877  -8.713   1.097  0.00  0.00    +0.105 C 
ATOM     39  N   UNL     1      -1.960  -9.013   1.261  0.00  0.00    -0.191 NA
ENDBRANCH  24  38
ENDBRANCH   1  25
TORSDOF 13
