REMARK  Name = ZINC11971850
REMARK  4 active torsions:
REMARK  status: ('A' for Active; 'I' for Inactive)
REMARK    1  A    between atoms: C_11  and  C_16
REMARK    2  A    between atoms: N_18  and  C_19
REMARK    3  A    between atoms: C_19  and  C_20
REMARK    4  A    between atoms: C_27  and  C_30
REMARK                            x       y       z     vdW  Elec       q    Type
REMARK                         _______ _______ _______ _____ _____    ______ ____
ROOT
ATOM      1  C   UNL     1      -0.014   1.209   0.009  0.00  0.00    +0.222 C 
ATOM      2  O   UNL     1       0.002  -0.004   0.002  0.00  0.00    -0.275 OA
ATOM      3  N   UNL     1      -1.191   1.867   0.018  0.00  0.00    -0.311 N 
ATOM      4  H   UNL     1      -1.204   2.837   0.023  0.00  0.00    +0.149 HD
ENDROOT
BRANCH   1  15
ATOM      5  C   UNL     1       6.213  -1.463  -0.628  0.00  0.00    +0.001 A 
ATOM      6  C   UNL     1       5.580  -2.251   0.320  0.00  0.00    +0.002 A 
ATOM      7  C   UNL     1       4.347  -1.919   0.852  0.00  0.00    +0.026 A 
ATOM      8  C   UNL     1       3.756  -0.744   0.391  0.00  0.00    +0.047 A 
ATOM      9  C   UNL     1       4.409   0.059  -0.580  0.00  0.00    +0.003 A 
ATOM     10  C   UNL     1       5.655  -0.301  -1.100  0.00  0.00    +0.010 A 
ATOM     11  C   UNL     1       3.529   1.183  -0.825  0.00  0.00    -0.018 A 
ATOM     12  C   UNL     1       2.444   1.017  -0.038  0.00  0.00    +0.032 A 
ATOM     13  N   UNL     1       2.574  -0.133   0.695  0.00  0.00    -0.357 N 
ATOM     14  H   UNL     1       1.923  -0.464   1.334  0.00  0.00    +0.166 HD
ATOM     15  C   UNL     1       1.280   1.980   0.001  0.00  0.00    +0.122 C 
ATOM     16  C   UNL     1       1.341   2.870  -1.246  0.00  0.00    +0.019 C 
ATOM     17  C   UNL     1       2.748   3.458  -1.383  0.00  0.00    +0.006 C 
ATOM     18  C   UNL     1       3.729   2.343  -1.767  0.00  0.00    +0.037 C 
ENDBRANCH   1  15
BRANCH   3  19
ATOM     19  C   UNL     1      -2.449   1.117   0.020  0.00  0.00    +0.149 C 
BRANCH  19  20
ATOM     20  C   UNL     1      -3.626   2.095   0.031  0.00  0.00    +0.195 C 
ATOM     21  C   UNL     1      -4.968   1.337   0.165  0.00  0.00    +0.088 C 
ATOM     22  C   UNL     1      -5.773   2.279   1.040  0.00  0.00    +0.034 A 
ATOM     23  C   UNL     1      -7.123   2.362   1.313  0.00  0.00    +0.130 A 
ATOM     24  C   UNL     1      -7.606   3.355   2.153  0.00  0.00    +0.039 A 
ATOM     25  C   UNL     1      -6.734   4.262   2.716  0.00  0.00    +0.018 A 
ATOM     26  C   UNL     1      -5.370   4.183   2.450  0.00  0.00    +0.061 A 
ATOM     27  C   UNL     1      -4.877   3.176   1.603  0.00  0.00    +0.138 A 
ATOM     28  O   UNL     1      -3.601   2.909   1.216  0.00  0.00    -0.486 OA
ATOM     29  F   UNL     1      -7.977   1.473   0.761  0.00  0.00    -0.205 F 
BRANCH  26  30
ATOM     30  C   UNL     1      -4.438   5.160   3.058  0.00  0.00    +0.163 A 
ATOM     31  N   UNL     1      -3.140   5.067   2.797  0.00  0.00    -0.236 NA
ATOM     32  C   UNL     1      -2.283   5.926   3.320  0.00  0.00    +0.114 A 
ATOM     33  C   UNL     1      -2.753   6.926   4.158  0.00  0.00    +0.039 A 
ATOM     34  C   UNL     1      -4.114   6.992   4.414  0.00  0.00    +0.114 A 
ATOM     35  N   UNL     1      -4.919   6.105   3.855  0.00  0.00    -0.236 NA
ENDBRANCH  26  30
ENDBRANCH  19  20
ENDBRANCH   3  19
TORSDOF 4
