REMARK  Name = ZINC19897260
REMARK  7 active torsions:
REMARK  status: ('A' for Active; 'I' for Inactive)
REMARK    1  A    between atoms: C_4  and  O_7
REMARK    2  A    between atoms: O_7  and  P_8
REMARK    3  A    between atoms: P_8  and  C_10
REMARK    4  A    between atoms: P_8  and  O_20
REMARK    5  A    between atoms: C_10  and  C_12
REMARK    6  A    between atoms: C_10  and  N_19
REMARK    7  A    between atoms: O_20  and  C_21
REMARK                            x       y       z     vdW  Elec       q    Type
REMARK                         _______ _______ _______ _____ _____    ______ ____
ROOT
ATOM      1  P   UNL     1      -0.015   1.292  -0.091  0.00  0.00    +0.455 P 
ATOM      2  O   UNL     1       0.009  -0.079   0.467  0.00  0.00    -0.230 OA
ENDROOT
BRANCH   1   3
ATOM      3  O   UNL     1       1.461   1.931  -0.007  0.00  0.00    -0.414 OA
BRANCH   3   7
ATOM      4  C   UNL     1       3.835   0.290   2.941  0.00  0.00    +0.000 A 
ATOM      5  C   UNL     1       3.661  -0.378   1.743  0.00  0.00    +0.004 A 
ATOM      6  C   UNL     1       2.866   0.169   0.754  0.00  0.00    +0.046 A 
ATOM      7  C   UNL     1       2.243   1.391   0.964  0.00  0.00    +0.131 A 
ATOM      8  C   UNL     1       2.424   2.062   2.164  0.00  0.00    +0.046 A 
ATOM      9  C   UNL     1       3.214   1.508   3.152  0.00  0.00    +0.004 A 
ENDBRANCH   3   7
ENDBRANCH   1   3
BRANCH   1  10
ATOM     10  C   UNL     1      -1.177   2.318   0.868  0.00  0.00    +0.222 C 
BRANCH  10  11
ATOM     11  C   UNL     1      -2.555   1.712   0.800  0.00  0.00    -0.017 A 
ATOM     12  C   UNL     1      -2.913   0.709   1.682  0.00  0.00    +0.007 A 
ATOM     13  C   UNL     1      -4.178   0.156   1.624  0.00  0.00    +0.020 A 
ATOM     14  C   UNL     1      -5.084   0.600   0.677  0.00  0.00    +0.041 A 
ATOM     15  C   UNL     1      -4.724   1.600  -0.209  0.00  0.00    +0.020 A 
ATOM     16  C   UNL     1      -3.460   2.155  -0.146  0.00  0.00    +0.007 A 
ATOM     17 CL   UNL     1      -6.671  -0.099   0.599  0.00  0.00    -0.084 Cl
ENDBRANCH  10  11
BRANCH  10  18
ATOM     18  N   UNL     1      -0.737   2.379   2.268  0.00  0.00    -0.312 NA
ATOM     19  H   UNL     1      -1.438   2.998   2.846  0.00  0.00    +0.119 HD
ATOM     20  H   UNL     1      -0.712   1.363   2.689  0.00  0.00    +0.119 HD
ENDBRANCH  10  18
ENDBRANCH   1  10
BRANCH   1  21
ATOM     21  O   UNL     1      -0.489   1.237  -1.629  0.00  0.00    -0.414 OA
BRANCH  21  22
ATOM     22  C   UNL     1       0.268   0.425  -2.412  0.00  0.00    +0.131 A 
ATOM     23  C   UNL     1       1.411   0.919  -3.025  0.00  0.00    +0.046 A 
ATOM     24  C   UNL     1       2.182   0.090  -3.816  0.00  0.00    +0.004 A 
ATOM     25  C   UNL     1       1.810  -1.228  -4.007  0.00  0.00    +0.000 A 
ATOM     26  C   UNL     1       0.669  -1.722  -3.401  0.00  0.00    +0.004 A 
ATOM     27  C   UNL     1      -0.102  -0.898  -2.605  0.00  0.00    +0.046 A 
ENDBRANCH  21  22
ENDBRANCH   1  21
TORSDOF 7
