REMARK  Name = ZINC22683502
REMARK  16 active torsions:
REMARK  status: ('A' for Active; 'I' for Inactive)
REMARK    1  A    between atoms: C_1  and  C_2
REMARK    2  A    between atoms: C_2  and  C_3
REMARK    3  A    between atoms: C_3  and  N_4
REMARK    4  A    between atoms: C_8  and  S_32
REMARK    5  A    between atoms: C_12  and  C_13
REMARK    6  A    between atoms: C_13  and  C_14
REMARK    7  A    between atoms: C_14  and  C_15
REMARK    8  A    between atoms: N_17  and  C_18
REMARK    9  A    between atoms: C_18  and  C_19
REMARK   10  A    between atoms: C_19  and  C_21
REMARK   11  A    between atoms: C_19  and  N_29
REMARK   12  A    between atoms: C_25  and  O_27
REMARK   13  A    between atoms: O_27  and  C_28
REMARK   14  A    between atoms: N_29  and  C_30
REMARK   15  A    between atoms: N_29  and  C_31
REMARK   16  A    between atoms: S_32  and  N_35
REMARK                            x       y       z     vdW  Elec       q    Type
REMARK                         _______ _______ _______ _____ _____    ______ ____
ROOT
ATOM      1  C   UNL     1       5.204   4.554   5.265  0.00  0.00    +0.083 C 
ENDROOT
BRANCH   1  10
ATOM      2  N   UNL     1       7.648   4.546   5.968  0.00  0.00    -0.328 N 
ATOM      3  C   UNL     1       8.528   5.447   6.533  0.00  0.00    +0.069 A 
ATOM      4  C   UNL     1       9.867   5.393   6.896  0.00  0.00    +0.030 A 
ATOM      5  C   UNL     1      10.467   6.499   7.460  0.00  0.00    +0.030 A 
ATOM      6  C   UNL     1       9.741   7.664   7.667  0.00  0.00    +0.107 A 
ATOM      7  C   UNL     1       8.423   7.736   7.315  0.00  0.00    +0.058 A 
ATOM      8  C   UNL     1       7.794   6.627   6.742  0.00  0.00    +0.091 A 
ATOM      9  N   UNL     1       6.533   6.392   6.298  0.00  0.00    -0.232 NA
ATOM     10  C   UNL     1       6.449   5.176   5.842  0.00  0.00    +0.111 A 
BRANCH   6  11
ATOM     11  S   UNL     1      10.528   9.065   8.389  0.00  0.00    +0.056 S 
ATOM     12  O   UNL     1       9.500   9.849   8.979  0.00  0.00    -0.153 OA
ATOM     13  O   UNL     1      11.633   8.571   9.135  0.00  0.00    -0.153 OA
BRANCH  11  14
ATOM     14  N   UNL     1      11.159   9.966   7.151  0.00  0.00    -0.204 NA
ATOM     15  H   UNL     1      11.661  10.854   7.562  0.00  0.00    +0.144 HD
ATOM     16  H   UNL     1      10.348  10.282   6.478  0.00  0.00    +0.144 HD
ENDBRANCH  11  14
ENDBRANCH   6  11
BRANCH   2  17
ATOM     17  C   UNL     1       7.951   3.168   5.573  0.00  0.00    +0.123 C 
BRANCH  17  19
ATOM     18  C   UNL     1       8.751   1.708   3.710  0.00  0.00    +0.005 C 
ATOM     19  C   UNL     1       8.435   3.148   4.122  0.00  0.00    +0.018 C 
ENDBRANCH  17  19
ENDBRANCH   2  17
ENDBRANCH   1  10
BRANCH   1  20
ATOM     20  C   UNL     1       5.158   4.809   3.757  0.00  0.00    +0.103 C 
BRANCH  20  21
ATOM     21  C   UNL     1       3.912   4.187   3.181  0.00  0.00    +0.213 C 
ATOM     22  O   UNL     1       3.137   3.598   3.904  0.00  0.00    -0.276 OA
ATOM     23  N   UNL     1       3.659   4.285   1.861  0.00  0.00    -0.317 N 
ATOM     24  H   UNL     1       4.362   4.819   1.204  0.00  0.00    +0.149 HD
BRANCH  23  25
ATOM     25  C   UNL     1       2.448   3.680   1.300  0.00  0.00    +0.093 C 
BRANCH  25  26
ATOM     26  C   UNL     1       2.461   3.831  -0.223  0.00  0.00    -0.021 C 
BRANCH  26  27
ATOM     27  C   UNL     1       1.255   3.140  -0.806  0.00  0.00    -0.056 A 
ATOM     28  C   UNL     1       1.281   1.776  -1.030  0.00  0.00    +0.002 A 
ATOM     29  C   UNL     1       0.177   1.139  -1.564  0.00  0.00    +0.004 A 
ATOM     30  C   UNL     1      -0.955   1.866  -1.881  0.00  0.00    +0.045 A 
ATOM     31  C   UNL     1      -0.985   3.234  -1.653  0.00  0.00    +0.120 A 
ATOM     32  C   UNL     1       0.124   3.871  -1.116  0.00  0.00    +0.047 A 
BRANCH  31  33
ATOM     33  O   UNL     1      -2.099   3.950  -1.960  0.00  0.00    -0.495 OA
ATOM     34  C   UNL     1      -3.203   3.229  -2.509  0.00  0.00    +0.277 C 
ENDBRANCH  31  33
ENDBRANCH  26  27
BRANCH  26  35
ATOM     35  N   UNL     1       3.683   3.223  -0.765  0.00  0.00    +0.382 N 
ATOM     36  C   UNL     1       4.062   2.029   0.002  0.00  0.00    -0.096 C 
ATOM     37  C   UNL     1       3.526   2.905  -2.190  0.00  0.00    -0.096 C 
ATOM     38  H   UNL     1       4.497   3.958  -0.670  0.00  0.00    -0.082 HD
ENDBRANCH  26  35
ENDBRANCH  25  26
ENDBRANCH  23  25
ENDBRANCH  20  21
ENDBRANCH   1  20
TORSDOF 12
