REMARK  Name = ZINC35563631
REMARK  8 active torsions:
REMARK  status: ('A' for Active; 'I' for Inactive)
REMARK    1  A    between atoms: C_1  and  C_2
REMARK    2  A    between atoms: C_2  and  C_3
REMARK    3  A    between atoms: C_2  and  C_4
REMARK    4  A    between atoms: C_7  and  C_10
REMARK    5  A    between atoms: C_10  and  S_11
REMARK    6  A    between atoms: S_11  and  C_12
REMARK    7  A    between atoms: C_18  and  C_20
REMARK    8  A    between atoms: C_20  and  C_22
REMARK                            x       y       z     vdW  Elec       q    Type
REMARK                         _______ _______ _______ _____ _____    ______ ____
ROOT
ATOM      1  C   UNL     1       4.688  -1.362  -6.692  0.00  0.00    +0.160 A 
ATOM      2  N   UNL     1       4.414  -2.499  -7.314  0.00  0.00    -0.133 NA
ATOM      3  N   UNL     1       5.036  -2.859  -8.350  0.00  0.00    -0.125 NA
ATOM      4  C   UNL     1       6.001  -2.125  -8.879  0.00  0.00    +0.189 A 
ATOM      5  S   UNL     1       5.999  -0.742  -7.741  0.00  0.00    -0.024 S 
ATOM      6  N   UNL     1       6.789  -2.357 -10.004  0.00  0.00    -0.262 N 
ATOM      7  C   UNL     1       6.613  -3.479 -10.729  0.00  0.00    +0.241 C 
ATOM      8  O   UNL     1       5.769  -4.287 -10.403  0.00  0.00    -0.273 OA
ATOM      9  H   UNL     1       7.464  -1.712 -10.265  0.00  0.00    +0.157 HD
ENDROOT
BRANCH   7  10
ATOM     10  C   UNL     1       7.465  -3.731 -11.946  0.00  0.00    +0.196 C 
ATOM     11 CL   UNL     1       8.700  -4.989 -11.566  0.00  0.00    -0.107 Cl
BRANCH  10  12
ATOM     12  C   UNL     1       6.595  -4.208 -13.080  0.00  0.00    -0.021 A 
ATOM     13  C   UNL     1       5.934  -5.418 -12.981  0.00  0.00    +0.005 A 
ATOM     14  C   UNL     1       5.135  -5.856 -14.021  0.00  0.00    +0.000 A 
ATOM     15  C   UNL     1       4.997  -5.084 -15.159  0.00  0.00    +0.000 A 
ATOM     16  C   UNL     1       5.657  -3.873 -15.257  0.00  0.00    +0.000 A 
ATOM     17  C   UNL     1       6.452  -3.434 -14.216  0.00  0.00    +0.005 A 
ENDBRANCH  10  12
ENDBRANCH   7  10
BRANCH   1  18
ATOM     18  S   UNL     1       3.963  -0.657  -5.249  0.00  0.00    -0.092 S 
BRANCH  18  19
ATOM     19  C   UNL     1       2.707  -1.868  -4.752  0.00  0.00    +0.111 C 
BRANCH  19  23
ATOM     20  C   UNL     1       0.707  -0.490  -1.238  0.00  0.00    -0.045 A 
ATOM     21  C   UNL     1       0.222  -0.151  -2.487  0.00  0.00    +0.004 A 
ATOM     22  C   UNL     1       0.869  -0.597  -3.624  0.00  0.00    +0.005 A 
ATOM     23  C   UNL     1       2.002  -1.381  -3.513  0.00  0.00    -0.037 A 
ATOM     24  C   UNL     1       2.488  -1.720  -2.263  0.00  0.00    +0.005 A 
ATOM     25  C   UNL     1       1.843  -1.270  -1.126  0.00  0.00    +0.004 A 
BRANCH  20  27
ATOM     26  C   UNL     1      -0.019   1.526   0.010  0.00  0.00    +0.012 C 
ATOM     27  C   UNL     1       0.002  -0.004   0.002  0.00  0.00    +0.013 C 
ATOM     28  C   UNL     1      -1.433  -0.534   0.013  0.00  0.00    +0.012 C 
ENDBRANCH  20  27
ENDBRANCH  19  23
ENDBRANCH  18  19
ENDBRANCH   1  18
TORSDOF 6
