REMARK  Name = ZINC03402535
REMARK  9 active torsions:
REMARK  status: ('A' for Active; 'I' for Inactive)
REMARK    1  A    between atoms: C_1  and  C_2
REMARK    2  A    between atoms: C_2  and  C_3
REMARK    3  A    between atoms: C_3  and  C_4
REMARK    4  A    between atoms: C_4  and  C_5
REMARK    5  A    between atoms: C_5  and  N_6
REMARK    6  A    between atoms: C_15  and  S_16
REMARK    7  A    between atoms: S_16  and  C_17
REMARK    8  A    between atoms: C_17  and  C_19
REMARK    9  A    between atoms: C_17  and  C_20
REMARK                            x       y       z     vdW  Elec       q    Type
REMARK                         _______ _______ _______ _____ _____    ______ ____
ROOT
ATOM      1  N   UNL     1      -0.020   1.094   2.454  0.00  0.00    -0.287 N 
ATOM      2  C   UNL     1       0.963   1.842   2.988  0.00  0.00    +0.263 A 
ATOM      3  O   UNL     1       1.266   2.913   2.491  0.00  0.00    -0.267 OA
ATOM      4  C   UNL     1       1.649   1.359   4.147  0.00  0.00    +0.076 A 
ATOM      5  C   UNL     1       2.744   2.008   4.886  0.00  0.00    -0.023 A 
ATOM      6  C   UNL     1       3.227   1.353   5.954  0.00  0.00    -0.004 A 
ATOM      7  S   UNL     1       2.275  -0.146   6.044  0.00  0.00    -0.073 S 
ATOM      8  C   UNL     1       1.225   0.117   4.639  0.00  0.00    +0.117 A 
ATOM      9  N   UNL     1       0.247  -0.574   4.065  0.00  0.00    -0.216 NA
ATOM     10  C   UNL     1      -0.373  -0.106   3.001  0.00  0.00    +0.173 A 
ATOM     11  C   UNL     1       4.338   2.110   6.631  0.00  0.00    +0.043 C 
ATOM     12  C   UNL     1       4.208   3.552   6.093  0.00  0.00    +0.010 C 
ATOM     13  C   UNL     1       3.522   3.318   4.733  0.00  0.00    +0.037 C 
ENDROOT
BRANCH   1  14
ATOM     14  C   UNL     1      -0.729   1.579   1.267  0.00  0.00    +0.127 C 
BRANCH  14  15
ATOM     15  C   UNL     1      -0.013   1.086   0.008  0.00  0.00    +0.022 C 
BRANCH  15  16
ATOM     16  C   UNL     1      -0.753   1.593  -1.232  0.00  0.00    +0.001 C 
BRANCH  16  18
ATOM     17  C   UNL     1      -0.777   1.606  -3.730  0.00  0.00    +0.004 C 
ATOM     18  C   UNL     1      -0.037   1.099  -2.490  0.00  0.00    -0.003 C 
ENDBRANCH  16  18
ENDBRANCH  15  16
ENDBRANCH  14  15
ENDBRANCH   1  14
BRANCH  10  19
ATOM     19  S   UNL     1      -1.673  -1.045   2.269  0.00  0.00    -0.075 S 
BRANCH  19  20
ATOM     20  C   UNL     1      -1.690  -2.474   3.379  0.00  0.00    +0.137 C 
ATOM     21  C   UNL     1      -0.371  -3.238   3.248  0.00  0.00    +0.029 C 
BRANCH  20  22
ATOM     22  C   UNL     1      -2.835  -3.383   3.010  0.00  0.00    +0.233 C 
ATOM     23  O   UNL     1      -3.276  -3.374   1.880  0.00  0.00    -0.274 OA
ATOM     24  N   UNL     1      -3.368  -4.205   3.935  0.00  0.00    -0.239 N 
ATOM     25  C   UNL     1      -4.391  -5.017   3.604  0.00  0.00    +0.303 C 
ATOM     26  O   UNL     1      -4.834  -5.008   2.472  0.00  0.00    -0.253 OA
ATOM     27  N   UNL     1      -4.925  -5.840   4.530  0.00  0.00    -0.313 N 
ATOM     28  H   UNL     1      -3.015  -4.212   4.838  0.00  0.00    +0.159 HD
ATOM     29  H   UNL     1      -4.572  -5.847   5.433  0.00  0.00    +0.146 HD
ATOM     30  H   UNL     1      -5.661  -6.424   4.292  0.00  0.00    +0.146 HD
ENDBRANCH  20  22
ENDBRANCH  19  20
ENDBRANCH  10  19
TORSDOF 7
