REMARK  Name = ZINC16849779
REMARK  15 active torsions:
REMARK  status: ('A' for Active; 'I' for Inactive)
REMARK    1  A    between atoms: C_1  and  C_2
REMARK    2  A    between atoms: C_2  and  C_4
REMARK    3  A    between atoms: C_2  and  N_71
REMARK    4  A    between atoms: C_15  and  C_16
REMARK    5  A    between atoms: C_15  and  N_71
REMARK    6  A    between atoms: C_16  and  C_17
REMARK    7  A    between atoms: C_17  and  C_18
REMARK    8  A    between atoms: C_18  and  C_19
REMARK    9  A    between atoms: C_19  and  C_20
REMARK   10  A    between atoms: C_20  and  C_21
REMARK   11  A    between atoms: C_21  and  C_22
REMARK   12  A    between atoms: C_22  and  N_74
REMARK   13  A    between atoms: C_23  and  C_25
REMARK   14  A    between atoms: C_23  and  C_26
REMARK   15  A    between atoms: C_23  and  N_74
REMARK                            x       y       z     vdW  Elec       q    Type
REMARK                         _______ _______ _______ _____ _____    ______ ____
ROOT
ATOM      1  C   UNL     1       2.488   8.537  -5.496  0.00  0.00    -0.000 C 
ENDROOT
BRANCH   1   2
ATOM      2  C   UNL     1       2.742   8.450  -3.989  0.00  0.00    -0.002 C 
BRANCH   2   3
ATOM      3  C   UNL     1       2.246   7.101  -3.465  0.00  0.00    -0.019 C 
BRANCH   3   4
ATOM      4  C   UNL     1       2.500   7.016  -1.958  0.00  0.00    -0.082 C 
BRANCH   4   5
ATOM      5  N   UNL     1       2.019   5.713  -1.461  0.00  0.00    +0.383 N 
ATOM      6  H   UNL     1       1.013   5.628  -1.650  0.00  0.00    -0.085 HD
ATOM      7  H   UNL     1       2.523   4.959  -1.943  0.00  0.00    -0.085 HD
BRANCH   5   9
ATOM      8  C   UNL     1       1.088   6.249   0.746  0.00  0.00    -0.010 C 
ATOM      9  C   UNL     1       2.252   5.602  -0.008  0.00  0.00    -0.030 C 
BRANCH   9  10
ATOM     10  C   UNL     1       2.348   4.123   0.373  0.00  0.00    +0.197 C 
ATOM     11  C   UNL     1       3.513   3.469  -0.381  0.00  0.00    +0.272 C 
ATOM     12  O   UNL     1       3.566   2.086  -0.012  0.00  0.00    -0.485 OA
ATOM     13  C   UNL     1       2.386   1.408  -0.011  0.00  0.00    +0.162 A 
ATOM     14  C   UNL     1       2.397   0.021  -0.019  0.00  0.00    +0.049 A 
ATOM     15  C   UNL     1       1.207  -0.681  -0.013  0.00  0.00    +0.004 A 
ATOM     16  C   UNL     1       0.002  -0.004   0.002  0.00  0.00    +0.004 A 
ATOM     17  C   UNL     1      -0.017   1.378   0.010  0.00  0.00    +0.049 A 
ATOM     18  C   UNL     1       1.174   2.089   0.002  0.00  0.00    +0.162 A 
ATOM     19  O   UNL     1       1.140   3.450   0.003  0.00  0.00    -0.483 OA
ENDBRANCH   9  10
ENDBRANCH   5   9
ENDBRANCH   4   5
ENDBRANCH   3   4
ENDBRANCH   2   3
ENDBRANCH   1   2
BRANCH   1  20
ATOM     20  C   UNL     1       2.984   9.886  -6.020  0.00  0.00    -0.000 C 
BRANCH  20  21
ATOM     21  C   UNL     1       2.730   9.972  -7.527  0.00  0.00    -0.002 C 
BRANCH  21  22
ATOM     22  C   UNL     1       3.226  11.321  -8.051  0.00  0.00    -0.019 C 
BRANCH  22  23
ATOM     23  C   UNL     1       2.972  11.407  -9.557  0.00  0.00    -0.082 C 
BRANCH  23  24
ATOM     24  N   UNL     1       3.453  12.710 -10.055  0.00  0.00    +0.383 N 
ATOM     25  H   UNL     1       4.458  12.794  -9.865  0.00  0.00    -0.085 HD
ATOM     26  H   UNL     1       2.949  13.463  -9.573  0.00  0.00    -0.085 HD
BRANCH  24  27
ATOM     27  C   UNL     1       3.220  12.820 -11.507  0.00  0.00    -0.030 C 
ATOM     28  C   UNL     1       1.796  13.320 -11.760  0.00  0.00    -0.010 C 
BRANCH  27  29
ATOM     29  C   UNL     1       4.222  13.812 -12.102  0.00  0.00    +0.197 C 
ATOM     30  C   UNL     1       5.653  13.332 -11.825  0.00  0.00    +0.272 C 
ATOM     31  O   UNL     1       6.562  14.288 -12.381  0.00  0.00    -0.485 OA
ATOM     32  C   UNL     1       6.302  15.599 -12.127  0.00  0.00    +0.162 A 
ATOM     33  C   UNL     1       7.302  16.541 -12.319  0.00  0.00    +0.049 A 
ATOM     34  C   UNL     1       7.051  17.878 -12.072  0.00  0.00    +0.004 A 
ATOM     35  C   UNL     1       5.803  18.279 -11.634  0.00  0.00    +0.004 A 
ATOM     36  C   UNL     1       4.802  17.346 -11.441  0.00  0.00    +0.049 A 
ATOM     37  C   UNL     1       5.048  16.003 -11.686  0.00  0.00    +0.162 A 
ATOM     38  O   UNL     1       4.053  15.095 -11.488  0.00  0.00    -0.483 OA
ENDBRANCH  27  29
ENDBRANCH  24  27
ENDBRANCH  23  24
ENDBRANCH  22  23
ENDBRANCH  21  22
ENDBRANCH  20  21
ENDBRANCH   1  20
TORSDOF 13
