REMARK  Name = ZINC35682134
REMARK  8 active torsions:
REMARK  status: ('A' for Active; 'I' for Inactive)
REMARK    1  A    between atoms: C_1  and  O_2
REMARK    2  A    between atoms: O_2  and  C_3
REMARK    3  A    between atoms: C_5  and  C_13
REMARK    4  A    between atoms: C_7  and  O_11
REMARK    5  A    between atoms: C_8  and  O_9
REMARK    6  A    between atoms: O_9  and  C_10
REMARK    7  A    between atoms: O_11  and  C_12
REMARK    8  A    between atoms: N_19  and  C_24
REMARK                            x       y       z     vdW  Elec       q    Type
REMARK                         _______ _______ _______ _____ _____    ______ ____
ROOT
ATOM      1  C   UNL     1      -4.850   0.224   0.038  0.00  0.00    +0.041 C 
ATOM      2  C   UNL     1      -6.064  -0.417  -0.057  0.00  0.00    +0.129 C 
ATOM      3  C   UNL     1      -7.394   0.212  -0.171  0.00  0.00    +0.272 C 
ATOM      4  O   UNL     1      -7.646   1.403  -0.172  0.00  0.00    -0.268 OA
ATOM      5  N   UNL     1      -8.271  -0.807  -0.273  0.00  0.00    -0.232 N 
ATOM      6  C   UNL     1      -9.711  -0.700  -0.504  0.00  0.00    +0.203 C 
ATOM      7  N   UNL     1     -10.435  -1.883  -0.043  0.00  0.00    -0.274 NA
ATOM      8  C   UNL     1     -10.032  -3.107  -0.761  0.00  0.00    +0.163 C 
ATOM      9  S   UNL     1      -8.374  -3.567  -0.154  0.00  0.00    -0.074 S 
ATOM     10  C   UNL     1      -7.562  -1.990  -0.168  0.00  0.00    +0.166 C 
ATOM     11  N   UNL     1      -6.285  -1.767  -0.073  0.00  0.00    -0.220 NA
ENDROOT
BRANCH   1  14
ATOM     12  C   UNL     1      -2.483  -2.684   0.026  0.00  0.00    +0.166 A 
ATOM     13  C   UNL     1      -3.656  -1.955   0.040  0.00  0.00    +0.057 A 
ATOM     14  C   UNL     1      -3.608  -0.554   0.024  0.00  0.00    -0.016 A 
ATOM     15  C   UNL     1      -2.369   0.100  -0.007  0.00  0.00    +0.057 A 
ATOM     16  C   UNL     1      -1.201  -0.637  -0.021  0.00  0.00    +0.166 A 
ATOM     17  C   UNL     1      -1.253  -2.029   0.001  0.00  0.00    +0.204 A 
BRANCH  12  19
ATOM     18  C   UNL     1      -3.822  -4.649   0.066  0.00  0.00    +0.277 C 
ATOM     19  O   UNL     1      -2.528  -4.043   0.041  0.00  0.00    -0.491 OA
ENDBRANCH  12  19
BRANCH  17  20
ATOM     20  O   UNL     1      -0.101  -2.750  -0.007  0.00  0.00    -0.488 OA
ATOM     21  C   UNL     1       0.430  -3.109  -1.284  0.00  0.00    +0.277 C 
ENDBRANCH  17  20
BRANCH  16  22
ATOM     22  O   UNL     1       0.002  -0.003  -0.050  0.00  0.00    -0.491 OA
ATOM     23  C   UNL     1      -0.019   1.426  -0.065  0.00  0.00    +0.277 C 
ENDBRANCH  16  22
ENDBRANCH   1  14
BRANCH   7  24
ATOM     24  C   UNL     1     -11.887  -1.677  -0.127  0.00  0.00    +0.059 C 
ATOM     25  C   UNL     1     -12.313  -0.524   0.805  0.00  0.00    +0.019 C 
ATOM     26  C   UNL     1     -13.680  -0.979   1.373  0.00  0.00    +0.002 C 
ATOM     27  C   UNL     1     -13.476  -2.501   1.577  0.00  0.00    +0.002 C 
ATOM     28  C   UNL     1     -12.627  -2.934   0.364  0.00  0.00    +0.019 C 
ENDBRANCH   7  24
TORSDOF 5
