REMARK  Name = ZINC52486395
REMARK  2 active torsions:
REMARK  status: ('A' for Active; 'I' for Inactive)
REMARK    1  A    between atoms: C_5  and  C_7
REMARK    2  A    between atoms: C_16  and  N_19
REMARK                            x       y       z     vdW  Elec       q    Type
REMARK                         _______ _______ _______ _____ _____    ______ ____
ROOT
ATOM      1  C   UNL     1       1.229  -2.186  -0.022  0.00  0.00    +0.106 C 
ATOM      2  C   UNL     1       1.430  -2.700  -1.463  0.00  0.00    +0.029 C 
ATOM      3  C   UNL     1       0.506  -3.945  -1.520  0.00  0.00    +0.021 C 
ATOM      4  C   UNL     1      -0.680  -3.493  -0.633  0.00  0.00    +0.107 C 
ATOM      5  N   UNL     1      -0.062  -2.706   0.454  0.00  0.00    -0.308 N 
ATOM      6  C   UNL     1      -0.606  -2.493   1.715  0.00  0.00    +0.122 A 
ATOM      7  C   UNL     1       0.035  -1.638   2.607  0.00  0.00    +0.046 A 
ATOM      8  C   UNL     1      -0.517  -1.435   3.858  0.00  0.00    +0.037 A 
ATOM      9  C   UNL     1      -1.697  -2.094   4.177  0.00  0.00    +0.144 A 
ATOM     10  C   UNL     1      -2.280  -2.927   3.244  0.00  0.00    +0.145 A 
ATOM     11  N   UNL     1      -1.732  -3.099   2.055  0.00  0.00    -0.238 NA
ENDROOT
BRANCH   1  16
ATOM     12  C   UNL     1      -0.017   1.378   0.010  0.00  0.00    +0.000 A 
ATOM     13  C   UNL     1       1.171   2.086   0.002  0.00  0.00    +0.001 A 
ATOM     14  C   UNL     1       2.377   1.412  -0.013  0.00  0.00    +0.020 A 
ATOM     15  C   UNL     1       2.397   0.029  -0.021  0.00  0.00    +0.046 A 
ATOM     16  C   UNL     1       1.208  -0.679  -0.013  0.00  0.00    -0.009 A 
ATOM     17  C   UNL     1       0.002  -0.004   0.002  0.00  0.00    +0.007 A 
ATOM     18 CL   UNL     1       3.912  -0.818  -0.041  0.00  0.00    -0.083 Cl
ENDBRANCH   1  16
BRANCH   9  19
ATOM     19  N   UNL     1      -2.324  -1.906   5.505  0.00  0.00    +0.058 N 
ATOM     20  O   UNL     1      -1.808  -1.175   6.318  0.00  0.00    -0.126 OA
ATOM     21  O   UNL     1      -3.351  -2.483   5.776  0.00  0.00    -0.126 OA
ENDBRANCH   9  19
TORSDOF 2
