REMARK  Name = ZINC39313613
REMARK  5 active torsions:
REMARK  status: ('A' for Active; 'I' for Inactive)
REMARK    1  A    between atoms: C_1  and  C_2
REMARK    2  A    between atoms: C_7  and  C_8
REMARK    3  A    between atoms: N_9  and  C_21
REMARK    4  A    between atoms: C_10  and  C_13
REMARK    5  A    between atoms: C_21  and  C_22
REMARK                            x       y       z     vdW  Elec       q    Type
REMARK                         _______ _______ _______ _____ _____    ______ ____
ROOT
ATOM      1  C   UNL     1       0.608   1.073  -0.351  0.00  0.00    +0.044 C 
ATOM      2  C   UNL     1       0.417  -0.420  -0.290  0.00  0.00    -0.046 A 
ATOM      3  C   UNL     1       0.345  -1.154  -1.459  0.00  0.00    +0.028 A 
ATOM      4  C   UNL     1       0.170  -2.532  -1.408  0.00  0.00    +0.050 A 
ATOM      5  C   UNL     1       0.068  -3.169  -0.175  0.00  0.00    +0.053 A 
ATOM      6  C   UNL     1       0.142  -2.423   0.995  0.00  0.00    +0.028 A 
ATOM      7  C   UNL     1       0.322  -1.054   0.934  0.00  0.00    -0.046 A 
ATOM      8  C   UNL     1       0.407  -0.250   2.206  0.00  0.00    +0.044 C 
ATOM      9  N   UNL     1      -0.102  -4.548  -0.366  0.00  0.00    -0.305 N 
ATOM     10  C   UNL     1      -0.108  -4.791  -1.813  0.00  0.00    +0.175 C 
ATOM     11  N   UNL     1       0.069  -3.475  -2.440  0.00  0.00    -0.323 N 
ATOM     12  H   UNL     1       0.109  -3.292  -3.392  0.00  0.00    +0.148 HD
ENDROOT
BRANCH  10  13
ATOM     13  C   UNL     1       1.046  -5.720  -2.197  0.00  0.00    +0.138 C 
ATOM     14  C   UNL     1       2.329  -5.124  -1.651  0.00  0.00    -0.010 C 
ATOM     15  C   UNL     1       3.304  -4.848  -2.531  0.00  0.00    +0.014 C 
ATOM     16  C   UNL     1       3.136  -5.103  -3.905  0.00  0.00    +0.100 C 
ATOM     17  N   UNL     1       2.055  -5.613  -4.429  0.00  0.00    -0.188 NA
ATOM     18  C   UNL     1       0.987  -5.947  -3.694  0.00  0.00    +0.246 C 
ATOM     19  O   UNL     1      -0.004  -6.419  -4.215  0.00  0.00    -0.273 OA
ENDBRANCH  10  13
BRANCH   9  20
ATOM     20  C   UNL     1      -0.247  -5.558   0.685  0.00  0.00    +0.145 C 
BRANCH  20  21
ATOM     21  C   UNL     1      -1.711  -5.830   0.921  0.00  0.00    +0.006 A 
ATOM     22  C   UNL     1      -2.380  -5.176   1.939  0.00  0.00    +0.047 A 
ATOM     23  C   UNL     1      -3.724  -5.426   2.156  0.00  0.00    +0.020 A 
ATOM     24  C   UNL     1      -4.396  -6.330   1.356  0.00  0.00    +0.003 A 
ATOM     25  C   UNL     1      -3.728  -6.984   0.339  0.00  0.00    +0.020 A 
ATOM     26  C   UNL     1      -2.386  -6.731   0.117  0.00  0.00    +0.047 A 
ATOM     27 CL   UNL     1      -1.548  -7.547  -1.166  0.00  0.00    -0.083 Cl
ATOM     28 CL   UNL     1      -1.535  -4.041   2.945  0.00  0.00    -0.083 Cl
ENDBRANCH  20  21
ENDBRANCH   9  20
TORSDOF 3
