REMARK  Name = ZINC34783096
REMARK  5 active torsions:
REMARK  status: ('A' for Active; 'I' for Inactive)
REMARK    1  A    between atoms: C_1  and  C_2
REMARK    2  A    between atoms: C_5  and  N_9
REMARK    3  A    between atoms: C_7  and  C_8
REMARK    4  A    between atoms: C_14  and  C_28
REMARK    5  A    between atoms: N_16  and  C_22
REMARK                            x       y       z     vdW  Elec       q    Type
REMARK                         _______ _______ _______ _____ _____    ______ ____
ROOT
ATOM      1  N   UNL     1      -0.554  -3.872  -0.195  0.00  0.00    -0.208 N 
ATOM      2  C   UNL     1      -0.485  -4.624  -1.300  0.00  0.00    +0.235 C 
ATOM      3  O   UNL     1      -0.755  -4.249  -2.421  0.00  0.00    -0.274 OA
ATOM      4  C   UNL     1      -0.016  -6.012  -0.932  0.00  0.00    +0.145 C 
ATOM      5  C   UNL     1      -1.171  -7.017  -1.149  0.00  0.00    +0.158 C 
ATOM      6  N   UNL     1      -1.173  -7.790   0.117  0.00  0.00    -0.244 N 
ATOM      7  O   UNL     1      -0.899  -6.822   1.130  0.00  0.00    -0.257 OA
ATOM      8  C   UNL     1       0.142  -5.943   0.611  0.00  0.00    +0.249 C 
ATOM      9  C   UNL     1      -0.212  -4.507   0.932  0.00  0.00    +0.259 C 
ATOM     10  O   UNL     1      -0.190  -4.010   2.037  0.00  0.00    -0.272 OA
ENDROOT
BRANCH   5  11
ATOM     11  C   UNL     1      -0.886  -7.912  -2.327  0.00  0.00    -0.014 A 
ATOM     12  C   UNL     1      -0.079  -8.999  -2.181  0.00  0.00    +0.006 A 
ATOM     13  C   UNL     1       0.196  -9.838  -3.258  0.00  0.00    +0.001 A 
ATOM     14  C   UNL     1      -0.335  -9.596  -4.488  0.00  0.00    +0.008 A 
ATOM     15  C   UNL     1      -1.173  -8.484  -4.678  0.00  0.00    -0.018 A 
ATOM     16  C   UNL     1      -1.457  -7.634  -3.580  0.00  0.00    -0.013 A 
ATOM     17  C   UNL     1      -2.300  -6.525  -3.768  0.00  0.00    +0.009 A 
ATOM     18  C   UNL     1      -2.835  -6.287  -4.996  0.00  0.00    +0.001 A 
ATOM     19  C   UNL     1      -2.561  -7.127  -6.074  0.00  0.00    +0.001 A 
ATOM     20  C   UNL     1      -1.738  -8.202  -5.933  0.00  0.00    +0.008 A 
ENDBRANCH   5  11
BRANCH   1  25
ATOM     21  C   UNL     1      -2.151   1.574  -0.286  0.00  0.00    +0.044 C 
ATOM     22  C   UNL     1      -1.727   0.128  -0.262  0.00  0.00    -0.047 A 
ATOM     23  C   UNL     1      -0.527  -0.249  -0.837  0.00  0.00    +0.005 A 
ATOM     24  C   UNL     1      -0.136  -1.573  -0.816  0.00  0.00    +0.024 A 
ATOM     25  C   UNL     1      -0.949  -2.526  -0.217  0.00  0.00    +0.044 A 
ATOM     26  C   UNL     1      -2.153  -2.145   0.359  0.00  0.00    +0.027 A 
ATOM     27  C   UNL     1      -2.536  -0.818   0.339  0.00  0.00    -0.046 A 
ATOM     28  C   UNL     1      -3.841  -0.402   0.969  0.00  0.00    +0.044 C 
ENDBRANCH   1  25
BRANCH   6  29
ATOM     29  C   UNL     1      -1.394  -9.160   0.281  0.00  0.00    +0.065 A 
ATOM     30  C   UNL     1      -0.432  -9.951   0.897  0.00  0.00    +0.028 A 
ATOM     31  C   UNL     1      -0.654 -11.304   1.058  0.00  0.00    +0.002 A 
ATOM     32  C   UNL     1      -1.831 -11.873   0.607  0.00  0.00    +0.000 A 
ATOM     33  C   UNL     1      -2.790 -11.088  -0.007  0.00  0.00    +0.002 A 
ATOM     34  C   UNL     1      -2.577  -9.733  -0.167  0.00  0.00    +0.028 A 
ENDBRANCH   6  29
TORSDOF 3
