REMARK  Name = ZINC41004784
REMARK  14 active torsions:
REMARK  status: ('A' for Active; 'I' for Inactive)
REMARK    1  A    between atoms: C_1  and  C_2
REMARK    2  A    between atoms: C_2  and  C_3
REMARK    3  A    between atoms: C_3  and  C_4
REMARK    4  A    between atoms: C_4  and  C_5
REMARK    5  A    between atoms: C_5  and  O_6
REMARK    6  A    between atoms: O_6  and  C_7
REMARK    7  A    between atoms: C_10  and  C_15
REMARK    8  A    between atoms: C_12  and  O_13
REMARK    9  A    between atoms: O_13  and  C_14
REMARK   10  A    between atoms: C_17  and  C_29
REMARK   11  A    between atoms: C_18  and  C_28
REMARK   12  A    between atoms: C_23  and  S_25
REMARK   13  A    between atoms: S_25  and  C_26
REMARK   14  A    between atoms: C_26  and  C_27
REMARK                            x       y       z     vdW  Elec       q    Type
REMARK                         _______ _______ _______ _____ _____    ______ ____
ROOT
ATOM      1  C   UNL     1       3.923  -6.497  -7.002  0.00  0.00    +0.177 C 
ATOM      2  C   UNL     1       5.399  -6.210  -7.074  0.00  0.00    +0.060 C 
ATOM      3  C   UNL     1       5.931  -5.322  -7.926  0.00  0.00    +0.018 C 
ATOM      4  N   UNL     1       5.163  -4.608  -8.813  0.00  0.00    -0.287 N 
ATOM      5  C   UNL     1       3.849  -5.016  -8.993  0.00  0.00    +0.219 A 
ATOM      6  N   UNL     1       3.255  -5.903  -8.157  0.00  0.00    -0.220 N 
ATOM      7  N   UNL     1       1.957  -6.092  -8.630  0.00  0.00    -0.141 NA
ATOM      8  C   UNL     1       1.828  -5.329  -9.694  0.00  0.00    +0.210 A 
ATOM      9  N   UNL     1       2.981  -4.677  -9.907  0.00  0.00    -0.187 NA
ATOM     10  C   UNL     1       7.422  -5.099  -7.910  0.00  0.00    +0.061 C 
ATOM     11  H   UNL     1       5.525  -3.848  -9.295  0.00  0.00    +0.155 HD
ENDROOT
BRANCH   1  15
ATOM     12  C   UNL     1       2.321  -4.814  -3.411  0.00  0.00    +0.162 A 
ATOM     13  C   UNL     1       2.929  -3.998  -4.351  0.00  0.00    +0.050 A 
ATOM     14  C   UNL     1       3.446  -4.545  -5.511  0.00  0.00    +0.010 A 
ATOM     15  C   UNL     1       3.358  -5.906  -5.736  0.00  0.00    -0.015 A 
ATOM     16  C   UNL     1       2.753  -6.726  -4.802  0.00  0.00    +0.055 A 
ATOM     17  C   UNL     1       2.238  -6.185  -3.635  0.00  0.00    +0.162 A 
BRANCH  17  18
ATOM     18  O   UNL     1       1.647  -6.992  -2.713  0.00  0.00    -0.491 OA
ATOM     19  C   UNL     1       1.597  -8.389  -3.009  0.00  0.00    +0.277 C 
ENDBRANCH  17  18
BRANCH  12  20
ATOM     20  O   UNL     1       1.812  -4.278  -2.270  0.00  0.00    -0.488 OA
BRANCH  20  21
ATOM     21  C   UNL     1       1.934  -2.863  -2.107  0.00  0.00    +0.229 C 
BRANCH  21  22
ATOM     22  C   UNL     1       1.309  -2.448  -0.774  0.00  0.00    +0.041 C 
BRANCH  22  23
ATOM     23  C   UNL     1       1.439  -0.933  -0.601  0.00  0.00    +0.003 C 
BRANCH  23  25
ATOM     24  C   UNL     1       0.944   0.997   0.906  0.00  0.00    +0.004 C 
ATOM     25  C   UNL     1       0.814  -0.517   0.733  0.00  0.00    -0.003 C 
ENDBRANCH  23  25
ENDBRANCH  22  23
ENDBRANCH  21  22
ENDBRANCH  20  21
ENDBRANCH  12  20
ENDBRANCH   1  15
BRANCH   2  26
ATOM     26  C   UNL     1       6.266  -6.910  -6.202  0.00  0.00    +0.241 C 
ATOM     27  O   UNL     1       6.621  -8.042  -6.476  0.00  0.00    -0.271 OA
ATOM     28  N   UNL     1       6.699  -6.324  -5.068  0.00  0.00    -0.325 N 
ATOM     29  H   UNL     1       6.417  -5.422  -4.850  0.00  0.00    +0.145 HD
ATOM     30  H   UNL     1       7.294  -6.804  -4.471  0.00  0.00    +0.145 HD
ENDBRANCH   2  26
BRANCH   8  31
ATOM     31  S   UNL     1       0.375  -5.186 -10.680  0.00  0.00    -0.085 S 
BRANCH  31  32
ATOM     32  C   UNL     1       0.836  -3.999 -11.972  0.00  0.00    +0.074 C 
ATOM     33  C   UNL     1      -0.352  -3.781 -12.911  0.00  0.00    +0.016 C 
ENDBRANCH  31  32
ENDBRANCH   8  31
TORSDOF 10
