REMARK  Name = ZINC66594007
REMARK  7 active torsions:
REMARK  status: ('A' for Active; 'I' for Inactive)
REMARK    1  A    between atoms: C_3  and  C_20
REMARK    2  A    between atoms: C_4  and  C_16
REMARK    3  A    between atoms: C_6  and  O_7
REMARK    4  A    between atoms: O_7  and  C_8
REMARK    5  A    between atoms: C_20  and  N_21
REMARK    6  A    between atoms: N_21  and  C_22
REMARK    7  A    between atoms: C_22  and  C_23
REMARK                            x       y       z     vdW  Elec       q    Type
REMARK                         _______ _______ _______ _____ _____    ______ ____
ROOT
ATOM      1  C   UNL     1      -0.153   0.907   0.403  0.00  0.00    +0.046 A 
ATOM      2  C   UNL     1       0.943   1.635   0.825  0.00  0.00    +0.009 A 
ATOM      3  C   UNL     1       2.182   1.030   0.917  0.00  0.00    -0.022 A 
ATOM      4  C   UNL     1       2.329  -0.305   0.587  0.00  0.00    +0.063 A 
ATOM      5  C   UNL     1       1.236  -1.037   0.164  0.00  0.00    +0.059 A 
ATOM      6  C   UNL     1      -0.009  -0.432   0.071  0.00  0.00    +0.129 A 
ENDROOT
BRANCH   4   7
ATOM      7  C   UNL     1       3.681  -0.962   0.687  0.00  0.00    +0.418 C 
ATOM      8  F   UNL     1       3.578  -2.305   0.310  0.00  0.00    -0.166 F 
ATOM      9  F   UNL     1       4.582  -0.307  -0.160  0.00  0.00    -0.166 F 
ATOM     10  F   UNL     1       4.141  -0.883   2.006  0.00  0.00    -0.166 F 
ENDBRANCH   4   7
BRANCH   6  11
ATOM     11  O   UNL     1      -1.086  -1.151  -0.343  0.00  0.00    -0.456 OA
BRANCH  11  12
ATOM     12  C   UNL     1      -2.269  -0.498  -0.492  0.00  0.00    +0.131 A 
ATOM     13  C   UNL     1      -2.495   0.280  -1.619  0.00  0.00    +0.049 A 
ATOM     14  C   UNL     1      -3.698   0.942  -1.770  0.00  0.00    +0.045 A 
ATOM     15  C   UNL     1      -4.678   0.832  -0.799  0.00  0.00    +0.159 A 
ATOM     16  C   UNL     1      -4.454   0.055   0.327  0.00  0.00    +0.162 A 
ATOM     17  C   UNL     1      -3.252  -0.614   0.478  0.00  0.00    +0.087 A 
ATOM     18  F   UNL     1      -5.411  -0.053   1.275  0.00  0.00    -0.202 F 
ATOM     19  F   UNL     1      -5.853   1.481  -0.949  0.00  0.00    -0.202 F 
ENDBRANCH  11  12
ENDBRANCH   6  11
BRANCH   3  20
ATOM     20  C   UNL     1       3.376   1.826   1.377  0.00  0.00    +0.117 C 
BRANCH  20  21
ATOM     21  N   UNL     1       3.658   1.517   2.785  0.00  0.00    -0.305 NA
ATOM     22  H   UNL     1       2.829   1.621   3.351  0.00  0.00    +0.123 HD
BRANCH  21  23
ATOM     23  C   UNL     1       4.753   2.350   3.298  0.00  0.00    +0.154 C 
BRANCH  23  24
ATOM     24  C   UNL     1       5.013   2.006   4.742  0.00  0.00    +0.098 A 
ATOM     25  N   UNL     1       4.166   1.390   5.551  0.00  0.00    -0.349 N 
ATOM     26  H   UNL     1       3.276   1.085   5.316  0.00  0.00    +0.166 HD
ATOM     27  C   UNL     1       4.755   1.259   6.758  0.00  0.00    +0.101 A 
ATOM     28  C   UNL     1       5.982   1.810   6.668  0.00  0.00    +0.101 A 
ATOM     29  N   UNL     1       6.128   2.265   5.407  0.00  0.00    -0.349 N 
ATOM     30  H   UNL     1       6.913   2.707   5.049  0.00  0.00    +0.166 HD
ENDBRANCH  23  24
ENDBRANCH  21  23
ENDBRANCH  20  21
ENDBRANCH   3  20
TORSDOF 7
