REMARK  Name = ZINC39325987
REMARK  10 active torsions:
REMARK  status: ('A' for Active; 'I' for Inactive)
REMARK    1  A    between atoms: C_1  and  C_2
REMARK    2  A    between atoms: C_5  and  C_9
REMARK    3  A    between atoms: C_7  and  C_8
REMARK    4  A    between atoms: C_16  and  N_32
REMARK    5  A    between atoms: C_17  and  C_30
REMARK    6  A    between atoms: C_18  and  C_20
REMARK    7  A    between atoms: C_25  and  O_26
REMARK    8  A    between atoms: O_26  and  C_27
REMARK    9  A    between atoms: C_27  and  C_28
REMARK   10  A    between atoms: C_27  and  C_29
REMARK                            x       y       z     vdW  Elec       q    Type
REMARK                         _______ _______ _______ _____ _____    ______ ____
ROOT
ATOM      1  C   UNL     1       0.169  -4.318  -0.126  0.00  0.00    +0.074 A 
ATOM      2  C   UNL     1      -0.728  -5.093  -0.781  0.00  0.00    +0.054 A 
ATOM      3  C   UNL     1      -0.422  -6.441  -0.509  0.00  0.00    +0.245 A 
ATOM      4  N   UNL     1       0.617  -6.475   0.276  0.00  0.00    -0.135 NA
ATOM      5  N   UNL     1       1.021  -5.157   0.536  0.00  0.00    -0.273 N 
ATOM      6  H   UNL     1       1.771  -4.888   1.089  0.00  0.00    +0.189 HD
ATOM      7  O   UNL     1      -1.154  -7.465  -1.028  0.00  0.00    -0.421 OA
ATOM      8  C   UNL     1      -2.341  -7.159  -1.588  0.00  0.00    +0.201 C 
ATOM      9  C   UNL     1      -2.737  -5.908  -1.903  0.00  0.00    +0.098 C 
ATOM     10  C   UNL     1      -1.881  -4.690  -1.665  0.00  0.00    +0.105 C 
ENDROOT
BRANCH   1  15
ATOM     11  C   UNL     1       0.367   1.434  -0.146  0.00  0.00    +0.044 C 
ATOM     12  C   UNL     1       0.316  -0.072  -0.141  0.00  0.00    -0.047 A 
ATOM     13  C   UNL     1       0.246  -0.763  -1.337  0.00  0.00    +0.004 A 
ATOM     14  C   UNL     1       0.198  -2.142  -1.339  0.00  0.00    +0.010 A 
ATOM     15  C   UNL     1       0.221  -2.839  -0.131  0.00  0.00    +0.000 A 
ATOM     16  C   UNL     1       0.291  -2.137   1.072  0.00  0.00    +0.013 A 
ATOM     17  C   UNL     1       0.344  -0.758   1.060  0.00  0.00    -0.047 A 
ATOM     18  C   UNL     1       0.426   0.003   2.358  0.00  0.00    +0.044 C 
ENDBRANCH   1  15
BRANCH  10  19
ATOM     19  C   UNL     1      -1.357  -4.172  -2.979  0.00  0.00    +0.007 A 
ATOM     20  C   UNL     1      -1.871  -3.008  -3.518  0.00  0.00    +0.008 A 
ATOM     21  C   UNL     1      -1.391  -2.532  -4.723  0.00  0.00    +0.001 A 
ATOM     22  C   UNL     1      -0.395  -3.218  -5.393  0.00  0.00    +0.004 A 
ATOM     23  C   UNL     1       0.124  -4.381  -4.858  0.00  0.00    +0.046 A 
ATOM     24  C   UNL     1      -0.353  -4.859  -3.646  0.00  0.00    +0.125 A 
BRANCH  24  25
ATOM     25  O   UNL     1       0.159  -6.000  -3.115  0.00  0.00    -0.489 OA
BRANCH  25  26
ATOM     26  C   UNL     1       1.266  -6.593  -3.797  0.00  0.00    +0.167 C 
ATOM     27  C   UNL     1       2.186  -7.274  -2.781  0.00  0.00    +0.051 C 
ATOM     28  C   UNL     1       0.752  -7.631  -4.796  0.00  0.00    +0.051 C 
ENDBRANCH  25  26
ENDBRANCH  24  25
ENDBRANCH  10  19
BRANCH   8  29
ATOM     29  N   UNL     1      -3.205  -8.190  -1.856  0.00  0.00    -0.328 N 
ATOM     30  H   UNL     1      -2.954  -9.102  -1.643  0.00  0.00    +0.145 HD
ATOM     31  H   UNL     1      -4.069  -8.007  -2.259  0.00  0.00    +0.145 HD
ENDBRANCH   8  29
BRANCH   9  32
ATOM     32  C   UNL     1      -4.031  -5.729  -2.492  0.00  0.00    +0.101 C 
ATOM     33  N   UNL     1      -5.056  -5.588  -2.959  0.00  0.00    -0.191 NA
ENDBRANCH   9  32
TORSDOF 6
