REMARK  Name = ZINC09184330
REMARK  5 active torsions:
REMARK  status: ('A' for Active; 'I' for Inactive)
REMARK    1  A    between atoms: C_1  and  C_2
REMARK    2  A    between atoms: C_12  and  C_13
REMARK    3  A    between atoms: C_13  and  C_14
REMARK    4  A    between atoms: N_16  and  C_17
REMARK    5  A    between atoms: C_27  and  C_28
REMARK                            x       y       z     vdW  Elec       q    Type
REMARK                         _______ _______ _______ _____ _____    ______ ____
ROOT
ATOM      1  C   UNL     1       3.661   2.254  -0.021  0.00  0.00    +0.045 C 
ATOM      2  C   UNL     1       2.376   1.467  -0.013  0.00  0.00    -0.029 A 
ATOM      3  C   UNL     1       2.390   0.001  -0.021  0.00  0.00    +0.022 A 
ATOM      4  C   UNL     1       3.596  -0.701  -0.037  0.00  0.00    +0.024 A 
ATOM      5  C   UNL     1       3.575  -2.087  -0.044  0.00  0.00    +0.029 A 
ATOM      6  C   UNL     1       2.350  -2.784  -0.036  0.00  0.00    +0.139 A 
ATOM      7  C   UNL     1       1.155  -2.079  -0.021  0.00  0.00    +0.093 A 
ATOM      8  C   UNL     1       1.164  -0.695  -0.013  0.00  0.00    +0.143 A 
ATOM      9  O   UNL     1       0.002  -0.004   0.002  0.00  0.00    -0.422 OA
ATOM     10  C   UNL     1      -0.016   1.337   0.009  0.00  0.00    +0.341 A 
ATOM     11  O   UNL     1      -1.088   1.915   0.018  0.00  0.00    -0.245 OA
ATOM     12  C   UNL     1       1.173   2.097   0.002  0.00  0.00    +0.049 A 
ATOM     13  O   UNL     1       2.638  -4.102  -0.045  0.00  0.00    -0.462 OA
ATOM     14  C   UNL     1       3.965  -4.310  -0.058  0.00  0.00    +0.204 A 
ATOM     15  C   UNL     1       4.620  -3.128  -0.058  0.00  0.00    +0.028 A 
ENDROOT
BRANCH  15  16
ATOM     16  C   UNL     1       6.088  -2.920  -0.071  0.00  0.00    -0.014 A 
ATOM     17  C   UNL     1       6.664  -2.054  -1.000  0.00  0.00    +0.010 A 
ATOM     18  C   UNL     1       8.030  -1.859  -1.004  0.00  0.00    +0.020 A 
ATOM     19  C   UNL     1       8.830  -2.531  -0.096  0.00  0.00    +0.041 A 
ATOM     20  C   UNL     1       8.264  -3.396   0.825  0.00  0.00    +0.020 A 
ATOM     21  C   UNL     1       6.898  -3.594   0.842  0.00  0.00    +0.010 A 
ATOM     22 CL   UNL     1      10.549  -2.288  -0.111  0.00  0.00    -0.084 Cl
ENDBRANCH  15  16
BRANCH  12  23
ATOM     23  C   UNL     1       1.109   3.602   0.010  0.00  0.00    +0.138 C 
BRANCH  23  24
ATOM     24  C   UNL     1       1.100   4.097   1.434  0.00  0.00    +0.218 C 
ATOM     25  O   UNL     1       1.143   3.305   2.351  0.00  0.00    -0.275 OA
ATOM     26  N   UNL     1       1.046   5.420   1.687  0.00  0.00    -0.311 N 
ATOM     27  H   UNL     1       1.012   6.053   0.953  0.00  0.00    +0.149 HD
BRANCH  26  28
ATOM     28  C   UNL     1       1.038   5.901   3.071  0.00  0.00    +0.095 C 
ATOM     29  C   UNL     1       2.484   6.000   3.585  0.00  0.00    +0.046 C 
ATOM     30  C   UNL     1       2.469   6.798   4.920  0.00  0.00    +0.168 C 
ATOM     31  S   UNL     1       1.248   8.116   4.511  0.00  0.00    -0.029 S 
ATOM     32  O   UNL     1       1.943   9.248   4.006  0.00  0.00    -0.174 OA
ATOM     33  O   UNL     1       0.354   8.275   5.605  0.00  0.00    -0.174 OA
ATOM     34  C   UNL     1       0.361   7.291   3.128  0.00  0.00    +0.188 C 
ENDBRANCH  26  28
ENDBRANCH  23  24
ENDBRANCH  12  23
TORSDOF 4
