REMARK  Name = ZINC06836428
REMARK  8 active torsions:
REMARK  status: ('A' for Active; 'I' for Inactive)
REMARK    1  A    between atoms: C_1  and  C_2
REMARK    2  A    between atoms: C_2  and  O_3
REMARK    3  A    between atoms: O_3  and  C_4
REMARK    4  A    between atoms: C_4  and  C_6
REMARK    5  A    between atoms: C_7  and  C_29
REMARK    6  A    between atoms: N_8  and  C_21
REMARK    7  A    between atoms: C_12  and  C_14
REMARK    8  A    between atoms: C_21  and  C_22
REMARK                            x       y       z     vdW  Elec       q    Type
REMARK                         _______ _______ _______ _____ _____    ______ ____
ROOT
ATOM      1  C   UNL     1      -3.295  -0.153  -3.015  0.00  0.00    +0.061 C 
ATOM      2  C   UNL     1      -2.593   0.058  -1.891  0.00  0.00    +0.021 C 
ATOM      3  N   UNL     1      -1.772  -0.908  -1.372  0.00  0.00    -0.270 N 
ATOM      4  C   UNL     1      -1.427  -1.986  -2.097  0.00  0.00    +0.221 C 
ATOM      5  O   UNL     1      -0.777  -2.874  -1.587  0.00  0.00    -0.275 OA
ATOM      6  C   UNL     1      -1.846  -2.096  -3.541  0.00  0.00    +0.109 C 
ATOM      7  C   UNL     1      -3.240  -1.488  -3.712  0.00  0.00    +0.069 C 
ATOM      8  C   UNL     1      -2.707   1.387  -1.189  0.00  0.00    +0.061 C 
ENDROOT
BRANCH   7   9
ATOM      9  C   UNL     1      -4.267  -2.412  -3.110  0.00  0.00    -0.004 A 
ATOM     10  C   UNL     1      -4.202  -2.738  -1.768  0.00  0.00    +0.007 A 
ATOM     11  C   UNL     1      -5.148  -3.581  -1.215  0.00  0.00    +0.000 A 
ATOM     12  C   UNL     1      -6.153  -4.107  -2.005  0.00  0.00    +0.003 A 
ATOM     13  C   UNL     1      -6.217  -3.787  -3.347  0.00  0.00    +0.038 A 
ATOM     14  C   UNL     1      -5.273  -2.938  -3.902  0.00  0.00    +0.127 A 
ATOM     15  F   UNL     1      -5.334  -2.625  -5.214  0.00  0.00    -0.205 F 
ENDBRANCH   7   9
BRANCH   1  16
ATOM     16  C   UNL     1      -4.098   0.883  -3.547  0.00  0.00    +0.337 C 
ATOM     17  O   UNL     1      -4.146   1.963  -2.989  0.00  0.00    -0.245 OA
BRANCH  16  18
ATOM     18  O   UNL     1      -4.810   0.674  -4.674  0.00  0.00    -0.462 OA
BRANCH  18  20
ATOM     19  C   UNL     1      -6.329   1.342  -6.431  0.00  0.00    +0.048 C 
ATOM     20  C   UNL     1      -5.599   1.764  -5.155  0.00  0.00    +0.229 C 
ENDBRANCH  18  20
ENDBRANCH  16  18
ENDBRANCH   1  16
BRANCH   3  21
ATOM     21  C   UNL     1      -1.266  -0.766  -0.004  0.00  0.00    +0.151 C 
BRANCH  21  22
ATOM     22  C   UNL     1      -2.307  -1.258   0.969  0.00  0.00    +0.005 A 
ATOM     23  C   UNL     1      -3.145  -0.357   1.599  0.00  0.00    +0.008 A 
ATOM     24  C   UNL     1      -4.099  -0.809   2.491  0.00  0.00    +0.000 A 
ATOM     25  C   UNL     1      -4.217  -2.161   2.755  0.00  0.00    +0.003 A 
ATOM     26  C   UNL     1      -3.380  -3.063   2.127  0.00  0.00    +0.038 A 
ATOM     27  C   UNL     1      -2.423  -2.612   1.232  0.00  0.00    +0.128 A 
ATOM     28  F   UNL     1      -1.608  -3.494   0.613  0.00  0.00    -0.205 F 
ENDBRANCH  21  22
ENDBRANCH   3  21
TORSDOF 6
