REMARK  Name = ZINC01194015
REMARK  4 active torsions:
REMARK  status: ('A' for Active; 'I' for Inactive)
REMARK    1  A    between atoms: C_1  and  C_2
REMARK    2  A    between atoms: C_2  and  O_3
REMARK    3  A    between atoms: O_3  and  C_4
REMARK    4  A    between atoms: C_17  and  C_19
REMARK                            x       y       z     vdW  Elec       q    Type
REMARK                         _______ _______ _______ _____ _____    ______ ____
ROOT
ATOM      1  C   UNL     1      -1.049  -0.738  -0.109  0.00  0.00    +0.404 C 
ATOM      2  O   UNL     1      -2.021  -0.015  -0.015  0.00  0.00    -0.226 OA
ATOM      3  N   UNL     1      -1.203  -2.077  -0.105  0.00  0.00    -0.247 N 
ATOM      4  C   UNL     1      -0.016  -2.907  -0.219  0.00  0.00    +0.208 C 
ATOM      5  C   UNL     1       0.011  -3.588  -1.549  0.00  0.00    +0.235 C 
ATOM      6  O   UNL     1       1.101  -3.755  -2.054  0.00  0.00    -0.274 OA
ATOM      7  N   UNL     1      -1.016  -4.021  -2.222  0.00  0.00    -0.284 N 
ATOM      8  C   UNL     1      -2.371  -3.785  -2.241  0.00  0.00    +0.039 A 
ATOM      9  C   UNL     1      -3.039  -4.251  -3.387  0.00  0.00    +0.025 A 
ATOM     10  C   UNL     1      -4.393  -4.081  -3.545  0.00  0.00    +0.017 A 
ATOM     11  C   UNL     1      -5.123  -3.439  -2.559  0.00  0.00    +0.018 A 
ATOM     12  C   UNL     1      -4.479  -2.982  -1.431  0.00  0.00    +0.023 A 
ATOM     13  C   UNL     1      -3.106  -3.151  -1.261  0.00  0.00    -0.000 A 
ATOM     14  C   UNL     1      -2.534  -2.611   0.018  0.00  0.00    +0.144 C 
ATOM     15 BR   UNL     1      -6.987  -3.193  -2.760  0.00  0.00    -0.050 Br
ATOM     16  H   UNL     1      -0.759  -4.682  -2.882  0.00  0.00    +0.155 HD
ENDROOT
BRANCH  14  17
ATOM     17  C   UNL     1      -2.510  -3.719   1.039  0.00  0.00    -0.004 A 
ATOM     18  C   UNL     1      -2.545  -5.038   0.628  0.00  0.00    +0.007 A 
ATOM     19  C   UNL     1      -2.519  -6.055   1.565  0.00  0.00    +0.000 A 
ATOM     20  C   UNL     1      -2.469  -5.752   2.913  0.00  0.00    +0.001 A 
ATOM     21  C   UNL     1      -2.439  -4.434   3.325  0.00  0.00    +0.020 A 
ATOM     22  C   UNL     1      -2.460  -3.416   2.388  0.00  0.00    +0.046 A 
ATOM     23 CL   UNL     1      -2.422  -1.759   2.905  0.00  0.00    -0.083 Cl
ENDBRANCH  14  17
BRANCH   1  24
ATOM     24  O   UNL     1       0.181  -0.202  -0.217  0.00  0.00    -0.451 OA
BRANCH  24  26
ATOM     25  C   UNL     1       1.736   1.667  -0.345  0.00  0.00    +0.048 C 
ATOM     26  C   UNL     1       0.271   1.247  -0.214  0.00  0.00    +0.230 C 
ENDBRANCH  24  26
ENDBRANCH   1  24
TORSDOF 3
