REMARK  Name = ZINC39049322
REMARK  4 active torsions:
REMARK  status: ('A' for Active; 'I' for Inactive)
REMARK    1  A    between atoms: C_1  and  C_2
REMARK    2  A    between atoms: C_3  and  C_4
REMARK    3  A    between atoms: C_4  and  O_11
REMARK    4  A    between atoms: C_8  and  C_10
REMARK                            x       y       z     vdW  Elec       q    Type
REMARK                         _______ _______ _______ _____ _____    ______ ____
ROOT
ATOM      1  C   UNL     1       0.038  -2.650  -0.013  0.00  0.00    +0.129 C 
ATOM      2  C   UNL     1       0.695  -3.162  -1.311  0.00  0.00    +0.048 C 
ATOM      3  C   UNL     1      -0.500  -3.443  -2.256  0.00  0.00    +0.004 C 
ATOM      4  C   UNL     1      -1.568  -4.022  -1.294  0.00  0.00    +0.007 C 
ATOM      5  C   UNL     1      -1.400  -3.196  -0.002  0.00  0.00    +0.030 C 
ATOM      6  C   UNL     1      -1.612  -4.090   1.222  0.00  0.00    +0.011 C 
ENDROOT
BRANCH   1   9
ATOM      7  C   UNL     1      -0.018   1.468   0.010  0.00  0.00    +0.106 C 
ATOM      8  C   UNL     1       0.002  -0.004   0.002  0.00  0.00    -0.103 C 
ATOM      9  C   UNL     1       0.018  -1.178  -0.004  0.00  0.00    -0.068 C 
ENDBRANCH   1   9
BRANCH   1  10
ATOM     10  O   UNL     1       0.755  -3.135   1.124  0.00  0.00    -0.376 OA
ATOM     11  H   UNL     1       1.673  -2.834   1.169  0.00  0.00    +0.211 HD
ENDBRANCH   1  10
TORSDOF 2
