REMARK  Name = ZINC63375949
REMARK  7 active torsions:
REMARK  status: ('A' for Active; 'I' for Inactive)
REMARK    1  A    between atoms: C_1  and  C_2
REMARK    2  A    between atoms: C_2  and  C_3
REMARK    3  A    between atoms: C_2  and  C_4
REMARK    4  A    between atoms: C_4  and  C_6
REMARK    5  A    between atoms: C_4  and  N_15
REMARK    6  A    between atoms: N_8  and  C_9
REMARK    7  A    between atoms: C_16  and  C_18
REMARK                            x       y       z     vdW  Elec       q    Type
REMARK                         _______ _______ _______ _____ _____    ______ ____
ROOT
ATOM      1  C   UNL     1      -3.409   1.639   2.468  0.00  0.00    +0.167 C 
ATOM      2  C   UNL     1      -4.563   0.678   2.818  0.00  0.00    +0.065 C 
ATOM      3  C   UNL     1      -5.696   0.978   1.868  0.00  0.00    -0.034 C 
ATOM      4  C   UNL     1      -6.392   0.178   1.067  0.00  0.00    -0.001 A 
ATOM      5  C   UNL     1      -6.376  -1.282   0.888  0.00  0.00    +0.010 A 
ATOM      6  C   UNL     1      -7.223  -1.781  -0.051  0.00  0.00    +0.001 A 
ATOM      7  C   UNL     1      -8.075  -0.982  -0.821  0.00  0.00    +0.002 A 
ATOM      8  C   UNL     1      -8.161   0.368  -0.717  0.00  0.00    +0.026 A 
ATOM      9  C   UNL     1      -7.323   1.007   0.242  0.00  0.00    +0.043 A 
ATOM     10  N   UNL     1      -7.216   2.263   0.561  0.00  0.00    -0.375 N 
ATOM     11  C   UNL     1      -6.251   2.382   1.655  0.00  0.00    +0.131 C 
ATOM     12  C   UNL     1      -5.060   3.264   1.264  0.00  0.00    +0.134 C 
ATOM     13  N   UNL     1      -3.968   2.975   2.226  0.00  0.00    -0.276 N 
ATOM     14  C   UNL     1      -3.604   4.121   2.831  0.00  0.00    +0.248 C 
ATOM     15  O   UNL     1      -2.684   4.230   3.618  0.00  0.00    -0.270 OA
ATOM     16  C   UNL     1      -4.476   5.217   2.403  0.00  0.00    +0.042 A 
ATOM     17  C   UNL     1      -5.393   4.712   1.428  0.00  0.00    -0.013 A 
ATOM     18  C   UNL     1      -6.347   5.506   0.833  0.00  0.00    +0.006 A 
ATOM     19  C   UNL     1      -6.385   6.844   1.218  0.00  0.00    +0.000 A 
ATOM     20  C   UNL     1      -5.508   7.357   2.151  0.00  0.00    +0.001 A 
ATOM     21  C   UNL     1      -4.511   6.559   2.790  0.00  0.00    +0.013 A 
ATOM     22  H   UNL     1      -7.694   2.996   0.144  0.00  0.00    +0.160 HD
ENDROOT
BRANCH   1  24
ATOM     23  N   UNL     1      -2.119  -0.061   1.218  0.00  0.00    -0.302 N 
ATOM     24  C   UNL     1      -2.704   1.153   1.228  0.00  0.00    +0.235 C 
ATOM     25  O   UNL     1      -2.663   1.854   0.240  0.00  0.00    -0.274 OA
ATOM     26  H   UNL     1      -2.152  -0.622   2.009  0.00  0.00    +0.150 HD
BRANCH  23  27
ATOM     27  C   UNL     1      -1.433  -0.534   0.013  0.00  0.00    +0.161 C 
BRANCH  27  28
ATOM     28  C   UNL     1      -1.413  -2.041   0.005  0.00  0.00    +0.234 C 
ATOM     29  O   UNL     1      -1.921  -2.659   0.916  0.00  0.00    -0.274 OA
ATOM     30  N   UNL     1      -0.830  -2.701  -1.015  0.00  0.00    -0.311 N 
ATOM     31  H   UNL     1      -0.423  -2.206  -1.744  0.00  0.00    +0.149 HD
BRANCH  30  32
ATOM     32  C   UNL     1      -0.810  -4.166  -1.024  0.00  0.00    +0.073 C 
ATOM     33  C   UNL     1       0.386  -4.664  -0.210  0.00  0.00    +0.022 C 
ATOM     34  C   UNL     1       0.407  -6.194  -0.218  0.00  0.00    +0.002 C 
ATOM     35  C   UNL     1       0.526  -6.694  -1.659  0.00  0.00    +0.000 C 
ATOM     36  C   UNL     1      -0.670  -6.196  -2.473  0.00  0.00    +0.002 C 
ATOM     37  C   UNL     1      -0.691  -4.666  -2.464  0.00  0.00    +0.022 C 
ENDBRANCH  30  32
ENDBRANCH  27  28
BRANCH  27  39
ATOM     38  C   UNL     1      -0.019   1.526   0.010  0.00  0.00    +0.009 C 
ATOM     39  C   UNL     1       0.002  -0.004   0.002  0.00  0.00    +0.012 C 
ATOM     40  C   UNL     1       0.742  -0.511   1.242  0.00  0.00    +0.009 C 
ENDBRANCH  27  39
ENDBRANCH  23  27
ENDBRANCH   1  24
TORSDOF 5
