REMARK  Name = ZINC33426258
REMARK  4 active torsions:
REMARK  status: ('A' for Active; 'I' for Inactive)
REMARK    1  A    between atoms: C_3  and  O_22
REMARK    2  A    between atoms: C_6  and  C_7
REMARK    3  A    between atoms: C_7  and  C_8
REMARK    4  A    between atoms: C_8  and  C_9
REMARK                            x       y       z     vdW  Elec       q    Type
REMARK                         _______ _______ _______ _____ _____    ______ ____
ROOT
ATOM      1  C   UNL     1      -0.742   1.585  -1.213  0.00  0.00    +0.216 C 
ATOM      2  O   UNL     1      -1.736   2.268  -1.088  0.00  0.00    -0.276 OA
ATOM      3  N   UNL     1      -0.288   1.272  -2.443  0.00  0.00    -0.301 N 
ATOM      4  C   UNL     1       0.915   0.446  -2.610  0.00  0.00    +0.108 C 
ATOM      5  C   UNL     1       0.575  -0.741  -3.518  0.00  0.00    +0.019 C 
ATOM      6  C   UNL     1      -0.016  -0.221  -4.830  0.00  0.00    +0.008 C 
ATOM      7  C   UNL     1      -1.304   0.552  -4.542  0.00  0.00    -0.029 C 
ATOM      8  C   UNL     1      -0.992   1.746  -3.643  0.00  0.00    +0.112 C 
ATOM      9  C   UNL     1      -1.909   1.049  -5.857  0.00  0.00    +0.005 C 
ATOM     10  C   UNL     1      -2.282  -0.156  -6.726  0.00  0.00    -0.019 C 
ATOM     11  C   UNL     1      -3.258  -1.050  -5.957  0.00  0.00    -0.083 C 
ATOM     12  N   UNL     1      -2.630  -1.501  -4.709  0.00  0.00    +0.379 N 
ATOM     13  C   UNL     1      -2.305  -0.365  -3.837  0.00  0.00    -0.074 C 
ATOM     14  H   UNL     1      -3.320  -2.169  -4.172  0.00  0.00    -0.086 HD
ATOM     15  H   UNL     1      -1.701  -2.042  -4.940  0.00  0.00    -0.086 HD
ENDROOT
BRANCH   1  16
ATOM     16  C   UNL     1      -0.013   1.086   0.008  0.00  0.00    +0.100 C 
BRANCH  16  17
ATOM     17  C   UNL     1      -0.729   1.579   1.267  0.00  0.00    +0.044 C 
BRANCH  17  23
ATOM     18  C   UNL     1      -0.348  -0.134   3.051  0.00  0.00    +0.007 A 
ATOM     19  C   UNL     1       0.322  -0.596   4.167  0.00  0.00    +0.045 A 
ATOM     20  C   UNL     1       1.338   0.163   4.729  0.00  0.00    +0.117 A 
ATOM     21  C   UNL     1       1.682   1.383   4.165  0.00  0.00    +0.045 A 
ATOM     22  C   UNL     1       1.012   1.839   3.046  0.00  0.00    +0.007 A 
ATOM     23  C   UNL     1       0.000   1.080   2.488  0.00  0.00    -0.047 A 
BRANCH  20  24
ATOM     24  O   UNL     1       1.996  -0.287   5.830  0.00  0.00    -0.507 OA
ATOM     25  H   UNL     1       2.801   0.316   6.274  0.00  0.00    +0.292 HD
ENDBRANCH  20  24
ENDBRANCH  17  23
ENDBRANCH  16  17
ENDBRANCH   1  16
TORSDOF 4
