REMARK  Name = ZINC04246175
REMARK  7 active torsions:
REMARK  status: ('A' for Active; 'I' for Inactive)
REMARK    1  A    between atoms: C_4  and  C_7
REMARK    2  A    between atoms: C_12  and  C_14
REMARK    3  A    between atoms: C_14  and  O_15
REMARK    4  A    between atoms: O_15  and  C_16
REMARK    5  A    between atoms: C_16  and  C_18
REMARK    6  A    between atoms: C_21  and  N_25
REMARK    7  A    between atoms: C_23  and  N_24
REMARK                            x       y       z     vdW  Elec       q    Type
REMARK                         _______ _______ _______ _____ _____    ______ ____
ROOT
ATOM      1  O   UNL     1       5.135  -6.206  -1.050  0.00  0.00    -0.452 OA
ENDROOT
BRANCH   1   2
ATOM      2  C   UNL     1       4.412  -7.247  -0.592  0.00  0.00    +0.341 C 
ATOM      3  O   UNL     1       3.222  -7.117  -0.386  0.00  0.00    -0.245 OA
BRANCH   2   4
ATOM      4  C   UNL     1       5.065  -8.544  -0.342  0.00  0.00    +0.080 A 
ATOM      5  C   UNL     1       6.453  -8.667  -0.459  0.00  0.00    +0.019 A 
ATOM      6  C   UNL     1       7.057  -9.882  -0.224  0.00  0.00    +0.033 A 
ATOM      7  C   UNL     1       6.296 -10.986   0.129  0.00  0.00    +0.128 A 
ATOM      8  C   UNL     1       4.926 -10.882   0.247  0.00  0.00    +0.056 A 
ATOM      9  C   UNL     1       4.298  -9.663   0.020  0.00  0.00    +0.041 A 
BRANCH   9  10
ATOM     10  N   UNL     1       2.920  -9.553   0.145  0.00  0.00    -0.357 N 
ATOM     11  H   UNL     1       2.445  -8.846  -0.318  0.00  0.00    +0.142 HD
ATOM     12  H   UNL     1       2.431 -10.185   0.697  0.00  0.00    +0.142 HD
ENDBRANCH   9  10
BRANCH   7  13
ATOM     13  N   UNL     1       6.959 -12.286   0.379  0.00  0.00    +0.056 N 
ATOM     14  O   UNL     1       8.169 -12.383   0.275  0.00  0.00    -0.126 OA
ATOM     15  O   UNL     1       6.294 -13.259   0.688  0.00  0.00    -0.126 OA
ENDBRANCH   7  13
ENDBRANCH   2   4
ENDBRANCH   1   2
BRANCH   1  16
ATOM     16  C   UNL     1       4.426  -4.959  -1.274  0.00  0.00    +0.330 C 
BRANCH  16  22
ATOM     17  C   UNL     1       3.466  -0.993  -2.252  0.00  0.00    +0.068 C 
ATOM     18  N   UNL     1       3.640  -2.225  -1.917  0.00  0.00    -0.181 NA
ATOM     19  N   UNL     1       4.952  -2.674  -2.060  0.00  0.00    -0.190 N 
ATOM     20  C   UNL     1       5.782  -1.566  -2.560  0.00  0.00    +0.141 C 
ATOM     21  C   UNL     1       4.783  -0.400  -2.700  0.00  0.00    +0.078 C 
ATOM     22  C   UNL     1       5.389  -3.917  -1.781  0.00  0.00    +0.272 C 
ATOM     23  O   UNL     1       6.559  -4.198  -1.939  0.00  0.00    -0.270 OA
BRANCH  17  27
ATOM     24  C   UNL     1      -0.232   1.085  -2.106  0.00  0.00    +0.000 A 
ATOM     25  C   UNL     1       0.909   1.739  -2.535  0.00  0.00    +0.001 A 
ATOM     26  C   UNL     1       2.114   1.070  -2.585  0.00  0.00    +0.010 A 
ATOM     27  C   UNL     1       2.181  -0.271  -2.201  0.00  0.00    -0.002 A 
ATOM     28  C   UNL     1       1.025  -0.926  -1.769  0.00  0.00    +0.010 A 
ATOM     29  C   UNL     1      -0.173  -0.244  -1.724  0.00  0.00    +0.001 A 
ENDBRANCH  17  27
ENDBRANCH  16  22
ENDBRANCH   1  16
TORSDOF 7
