REMARK  Name = ZINC39946291
REMARK  6 active torsions:
REMARK  status: ('A' for Active; 'I' for Inactive)
REMARK    1  A    between atoms: C_7  and  C_18
REMARK    2  A    between atoms: C_9  and  C_11
REMARK    3  A    between atoms: C_18  and  O_20
REMARK    4  A    between atoms: O_20  and  C_21
REMARK    5  A    between atoms: C_21  and  C_22
REMARK    6  A    between atoms: C_22  and  C_24
REMARK                            x       y       z     vdW  Elec       q    Type
REMARK                         _______ _______ _______ _____ _____    ______ ____
ROOT
ATOM      1  C   UNL     1      -0.017   1.359  -0.032  0.00  0.00    +0.001 A 
ATOM      2  C   UNL     1       1.170   2.089  -0.039  0.00  0.00    +0.002 A 
ATOM      3  C   UNL     1       2.379   1.465  -0.041  0.00  0.00    +0.028 A 
ATOM      4  C   UNL     1       2.439   0.059  -0.035  0.00  0.00    +0.072 A 
ATOM      5  C   UNL     1       1.228  -0.678  -0.028  0.00  0.00    +0.014 A 
ATOM      6  C   UNL     1       0.002  -0.004  -0.027  0.00  0.00    +0.011 A 
ATOM      7  C   UNL     1       1.296  -2.140  -0.022  0.00  0.00    +0.070 A 
ATOM      8  C   UNL     1       2.558  -2.718  -0.024  0.00  0.00    +0.044 A 
ATOM      9  C   UNL     1       3.694  -1.894  -0.031  0.00  0.00    +0.072 A 
ATOM     10  N   UNL     1       3.609  -0.580  -0.036  0.00  0.00    -0.247 NA
ENDROOT
BRANCH   9  11
ATOM     11  C   UNL     1       5.036  -2.525  -0.033  0.00  0.00    +0.001 A 
ATOM     12  C   UNL     1       5.156  -3.913  -0.034  0.00  0.00    +0.010 A 
ATOM     13  C   UNL     1       6.407  -4.495  -0.036  0.00  0.00    +0.002 A 
ATOM     14  C   UNL     1       7.542  -3.703  -0.038  0.00  0.00    +0.015 A 
ATOM     15  C   UNL     1       7.429  -2.324  -0.037  0.00  0.00    +0.019 A 
ATOM     16  C   UNL     1       6.181  -1.731  -0.041  0.00  0.00    +0.025 A 
ATOM     17 BR   UNL     1       8.985  -1.249  -0.039  0.00  0.00    -0.050 Br
ENDBRANCH   9  11
BRANCH   7  18
ATOM     18  C   UNL     1       0.072  -2.967  -0.014  0.00  0.00    +0.340 C 
ATOM     19  O   UNL     1      -1.017  -2.439   0.092  0.00  0.00    -0.245 OA
BRANCH  18  20
ATOM     20  O   UNL     1       0.163  -4.307  -0.123  0.00  0.00    -0.453 OA
BRANCH  20  21
ATOM     21  C   UNL     1      -1.061  -5.044  -0.108  0.00  0.00    +0.311 C 
BRANCH  21  22
ATOM     22  C   UNL     1      -0.764  -6.515  -0.239  0.00  0.00    +0.199 C 
ATOM     23  O   UNL     1       0.385  -6.896  -0.337  0.00  0.00    -0.289 OA
BRANCH  22  24
ATOM     24  C   UNL     1      -1.820  -7.451  -0.249  0.00  0.00    +0.026 C 
ATOM     25  C   UNL     1      -1.718  -8.826  -0.357  0.00  0.00    +0.006 A 
ATOM     26  C   UNL     1      -0.615  -9.703  -0.483  0.00  0.00    +0.010 A 
ATOM     27  C   UNL     1      -0.812 -11.037  -0.571  0.00  0.00    +0.001 A 
ATOM     28  C   UNL     1      -2.091 -11.614  -0.542  0.00  0.00    +0.002 A 
ATOM     29  C   UNL     1      -3.210 -10.866  -0.424  0.00  0.00    +0.026 A 
ATOM     30  C   UNL     1      -3.085  -9.403  -0.323  0.00  0.00    +0.043 A 
ATOM     31  N   UNL     1      -3.976  -8.460  -0.203  0.00  0.00    -0.380 N 
ATOM     32  C   UNL     1      -3.301  -7.160  -0.139  0.00  0.00    +0.152 C 
ATOM     33  H   UNL     1      -4.935  -8.597  -0.159  0.00  0.00    +0.160 HD
ENDBRANCH  22  24
ENDBRANCH  21  22
ENDBRANCH  20  21
ENDBRANCH  18  20
ENDBRANCH   7  18
TORSDOF 6
