REMARK  Name = ZINC05823721
REMARK  8 active torsions:
REMARK  status: ('A' for Active; 'I' for Inactive)
REMARK    1  A    between atoms: C_1  and  C_2
REMARK    2  A    between atoms: C_2  and  C_30
REMARK    3  A    between atoms: C_6  and  C_17
REMARK    4  A    between atoms: C_11  and  O_16
REMARK    5  A    between atoms: C_12  and  O_15
REMARK    6  A    between atoms: C_24  and  S_26
REMARK    7  A    between atoms: S_26  and  C_27
REMARK    8  A    between atoms: C_27  and  C_28
REMARK                            x       y       z     vdW  Elec       q    Type
REMARK                         _______ _______ _______ _____ _____    ______ ____
ROOT
ATOM      1  C   UNL     1      -0.009   1.508   0.233  0.00  0.00    +0.034 C 
ATOM      2  C   UNL     1       0.002  -0.004   0.002  0.00  0.00    +0.040 C 
ATOM      3  C   UNL     1       0.623  -0.301  -1.365  0.00  0.00    +0.096 C 
ATOM      4  C   UNL     1       0.875  -1.809  -1.468  0.00  0.00    +0.181 C 
ATOM      5  C   UNL     1      -0.450  -2.565  -1.343  0.00  0.00    +0.081 C 
ATOM      6  C   UNL     1      -1.401  -2.056  -2.428  0.00  0.00    +0.058 C 
ATOM      7  C   UNL     1      -0.688  -2.023  -3.756  0.00  0.00    +0.006 A 
ATOM      8  C   UNL     1      -1.445  -1.966  -4.916  0.00  0.00    +0.011 A 
ATOM      9  C   UNL     1      -0.831  -1.929  -6.152  0.00  0.00    +0.050 A 
ATOM     10  C   UNL     1       0.553  -1.949  -6.239  0.00  0.00    +0.162 A 
ATOM     11  C   UNL     1       1.316  -2.009  -5.081  0.00  0.00    +0.201 A 
ATOM     12  C   UNL     1       0.693  -2.049  -3.834  0.00  0.00    +0.172 A 
ATOM     13  O   UNL     1       1.473  -2.120  -2.722  0.00  0.00    -0.464 OA
ATOM     14  N   UNL     1       1.771  -2.195  -0.371  0.00  0.00    -0.288 N 
ATOM     15  C   UNL     1       1.560  -1.651   0.876  0.00  0.00    +0.131 C 
ATOM     16  N   UNL     1       0.766  -0.647   1.064  0.00  0.00    -0.363 N 
ATOM     17  C   UNL     1      -1.435  -0.528   0.027  0.00  0.00    +0.034 C 
ATOM     18  H   UNL     1       2.497  -2.820  -0.522  0.00  0.00    +0.152 HD
ATOM     19  H   UNL     1       0.675  -0.301   1.966  0.00  0.00    +0.162 HD
ENDROOT
BRANCH   6  20
ATOM     20  C   UNL     1      -2.592  -2.975  -2.522  0.00  0.00    -0.040 A 
ATOM     21  C   UNL     1      -2.411  -4.311  -2.829  0.00  0.00    +0.004 A 
ATOM     22  C   UNL     1      -3.503  -5.154  -2.915  0.00  0.00    +0.000 A 
ATOM     23  C   UNL     1      -4.776  -4.661  -2.695  0.00  0.00    +0.000 A 
ATOM     24  C   UNL     1      -4.956  -3.325  -2.388  0.00  0.00    +0.000 A 
ATOM     25  C   UNL     1      -3.864  -2.483  -2.297  0.00  0.00    +0.004 A 
ENDBRANCH   6  20
BRANCH  11  26
ATOM     26  O   UNL     1       2.675  -2.029  -5.162  0.00  0.00    -0.501 OA
ATOM     27  H   UNL     1       3.082  -1.152  -5.150  0.00  0.00    +0.292 HD
ENDBRANCH  11  26
BRANCH  10  28
ATOM     28  O   UNL     1       1.161  -1.911  -7.455  0.00  0.00    -0.503 OA
ATOM     29  H   UNL     1       1.352  -1.017  -7.771  0.00  0.00    +0.292 HD
ENDBRANCH  10  28
BRANCH  15  30
ATOM     30  S   UNL     1       2.399  -2.346   2.261  0.00  0.00    -0.089 S 
BRANCH  30  31
ATOM     31  C   UNL     1       1.837  -1.341   3.663  0.00  0.00    +0.103 C 
BRANCH  31  32
ATOM     32  C   UNL     1       2.488  -1.837   4.928  0.00  0.00    -0.023 C 
ATOM     33  C   UNL     1       3.324  -1.067   5.580  0.00  0.00    +0.005 C 
ENDBRANCH  31  32
ENDBRANCH  30  31
ENDBRANCH  15  30
TORSDOF 6
