REMARK  Name = ZINC35747690
REMARK  10 active torsions:
REMARK  status: ('A' for Active; 'I' for Inactive)
REMARK    1  A    between atoms: C_1  and  C_2
REMARK    2  A    between atoms: C_5  and  C_9
REMARK    3  A    between atoms: C_6  and  C_8
REMARK    4  A    between atoms: C_18  and  C_20
REMARK    5  A    between atoms: C_20  and  N_21
REMARK    6  A    between atoms: N_21  and  C_22
REMARK    7  A    between atoms: N_21  and  C_27
REMARK    8  A    between atoms: C_22  and  C_23
REMARK    9  A    between atoms: C_23  and  C_25
REMARK   10  A    between atoms: C_23  and  O_26
REMARK                            x       y       z     vdW  Elec       q    Type
REMARK                         _______ _______ _______ _____ _____    ______ ____
ROOT
ATOM      1  C   UNL     1      -1.424  -3.526   0.079  0.00  0.00    +0.004 A 
ATOM      2  C   UNL     1      -0.152  -3.826  -0.281  0.00  0.00    +0.056 A 
ATOM      3  S   UNL     1      -0.047  -5.583  -0.000  0.00  0.00    -0.076 S 
ATOM      4  C   UNL     1      -1.695  -5.872   0.589  0.00  0.00    +0.116 A 
ATOM      5  C   UNL     1      -2.287  -4.598   0.559  0.00  0.00    +0.080 A 
ATOM      6  C   UNL     1      -3.649  -4.537   0.998  0.00  0.00    +0.260 A 
ATOM      7  O   UNL     1      -4.250  -3.477   1.004  0.00  0.00    -0.267 OA
ATOM      8  N   UNL     1      -4.255  -5.669   1.403  0.00  0.00    -0.312 N 
ATOM      9  H   UNL     1      -5.177  -5.633   1.702  0.00  0.00    +0.170 HD
ATOM     10  C   UNL     1      -3.601  -6.859   1.403  0.00  0.00    +0.094 A 
ATOM     11  N   UNL     1      -2.362  -6.948   0.998  0.00  0.00    -0.229 NA
ENDROOT
BRANCH   1  16
ATOM     12  C   UNL     1      -3.373   1.881  -0.258  0.00  0.00    +0.044 C 
ATOM     13  C   UNL     1      -2.863   0.466  -0.170  0.00  0.00    -0.050 A 
ATOM     14  C   UNL     1      -2.515  -0.214  -1.323  0.00  0.00    +0.004 A 
ATOM     15  C   UNL     1      -2.047  -1.510  -1.249  0.00  0.00    +0.009 A 
ATOM     16  C   UNL     1      -1.925  -2.134  -0.008  0.00  0.00    -0.014 A 
ATOM     17  C   UNL     1      -2.277  -1.444   1.151  0.00  0.00    -0.042 A 
ATOM     18  C   UNL     1      -2.739  -0.146   1.065  0.00  0.00    +0.007 A 
ATOM     19  C   UNL     1      -2.148  -2.111   2.496  0.00  0.00    +0.044 C 
ENDBRANCH   1  16
BRANCH  10  20
ATOM     20  C   UNL     1      -4.320  -8.099   1.865  0.00  0.00    -0.003 C 
BRANCH  20  21
ATOM     21  N   UNL     1      -3.485  -9.278   1.597  0.00  0.00    +0.388 N 
ATOM     22  H   UNL     1      -3.994 -10.114   1.843  0.00  0.00    -0.081 HD
BRANCH  21  23
ATOM     23  C   UNL     1      -3.137  -9.318   0.170  0.00  0.00    -0.068 C 
ATOM     24  C   UNL     1      -2.389 -10.617  -0.136  0.00  0.00    -0.015 C 
ATOM     25  C   UNL     1      -2.027 -10.658  -1.622  0.00  0.00    -0.002 C 
ATOM     26  C   UNL     1      -3.305 -10.596  -2.460  0.00  0.00    -0.000 C 
ATOM     27  C   UNL     1      -4.053  -9.298  -2.154  0.00  0.00    -0.002 C 
ATOM     28  C   UNL     1      -4.416  -9.256  -0.668  0.00  0.00    -0.015 C 
ENDBRANCH  21  23
BRANCH  21  29
ATOM     29  C   UNL     1      -2.257  -9.200   2.399  0.00  0.00    -0.046 C 
BRANCH  29  30
ATOM     30  C   UNL     1      -2.606  -9.338   3.882  0.00  0.00    +0.095 C 
ATOM     31  C   UNL     1      -1.339  -9.162   4.722  0.00  0.00    +0.035 C 
BRANCH  30  32
ATOM     32  O   UNL     1      -3.161 -10.632   4.122  0.00  0.00    -0.394 OA
ATOM     33  H   UNL     1      -2.567 -11.363   3.899  0.00  0.00    +0.210 HD
ENDBRANCH  30  32
ENDBRANCH  29  30
ENDBRANCH  21  29
ENDBRANCH  20  21
ENDBRANCH  10  20
TORSDOF 7
