REMARK  Name = ZINC66145506
REMARK  4 active torsions:
REMARK  status: ('A' for Active; 'I' for Inactive)
REMARK    1  A    between atoms: C_1  and  C_2
REMARK    2  A    between atoms: C_2  and  C_4
REMARK    3  A    between atoms: C_2  and  N_10
REMARK    4  A    between atoms: C_14  and  C_15
REMARK                            x       y       z     vdW  Elec       q    Type
REMARK                         _______ _______ _______ _____ _____    ______ ____
ROOT
ATOM      1  N   UNL     1      -1.325  -0.624  -0.035  0.00  0.00    -0.250 N 
ATOM      2  C   UNL     1      -1.600  -1.505  -0.982  0.00  0.00    +0.259 C 
ATOM      3  O   UNL     1      -0.779  -1.816  -1.825  0.00  0.00    -0.269 OA
ATOM      4  C   UNL     1      -2.953  -2.094  -0.964  0.00  0.00    +0.080 C 
ATOM      5  C   UNL     1      -3.510  -3.013  -1.801  0.00  0.00    +0.066 C 
ATOM      6  S   UNL     1      -3.659  -1.270   0.456  0.00  0.00    -0.061 S 
ATOM      7  C   UNL     1      -2.236  -0.287   0.901  0.00  0.00    +0.121 C 
ATOM      8  S   UNL     1      -2.070   0.817   2.198  0.00  0.00    -0.027 S 
ENDROOT
BRANCH   5   9
ATOM      9  C   UNL     1      -4.844  -3.442  -1.594  0.00  0.00    +0.130 A 
ATOM     10  C   UNL     1      -5.503  -4.358  -2.361  0.00  0.00    +0.057 A 
ATOM     11  C   UNL     1      -6.838  -4.484  -1.780  0.00  0.00    +0.021 A 
ATOM     12  C   UNL     1      -7.968  -5.244  -2.094  0.00  0.00    +0.011 A 
ATOM     13  C   UNL     1      -9.095  -5.129  -1.330  0.00  0.00    +0.001 A 
ATOM     14  C   UNL     1      -9.125  -4.263  -0.246  0.00  0.00    +0.004 A 
ATOM     15  C   UNL     1      -8.020  -3.505   0.081  0.00  0.00    +0.047 A 
ATOM     16  C   UNL     1      -6.863  -3.605  -0.681  0.00  0.00    +0.136 A 
ATOM     17  O   UNL     1      -5.655  -3.011  -0.605  0.00  0.00    -0.455 OA
ENDBRANCH   5   9
BRANCH   1  19
ATOM     18  C   UNL     1       1.075  -1.095  -0.006  0.00  0.00    +0.031 C 
ATOM     19  C   UNL     1       0.002  -0.004   0.002  0.00  0.00    +0.108 C 
BRANCH  19  20
ATOM     20  C   UNL     1       0.179   0.895  -1.224  0.00  0.00    +0.139 C 
ATOM     21  C   UNL     1       1.548   1.619  -1.165  0.00  0.00    +0.036 C 
ATOM     22  C   UNL     1       1.795   1.903  -2.672  0.00  0.00    +0.031 C 
ATOM     23  C   UNL     1       1.160   0.668  -3.347  0.00  0.00    +0.160 C 
ATOM     24  O   UNL     1       0.223   0.102  -2.421  0.00  0.00    -0.375 OA
ENDBRANCH  19  20
ENDBRANCH   1  19
TORSDOF 3
