REMARK  Name = ZINC46681570
REMARK  16 active torsions:
REMARK  status: ('A' for Active; 'I' for Inactive)
REMARK    1  A    between atoms: C_1  and  C_2
REMARK    2  A    between atoms: C_2  and  O_3
REMARK    3  A    between atoms: O_3  and  C_4
REMARK    4  A    between atoms: N_6  and  C_7
REMARK    5  A    between atoms: C_7  and  C_9
REMARK    6  A    between atoms: C_7  and  C_13
REMARK    7  A    between atoms: C_9  and  C_10
REMARK    8  A    between atoms: C_10  and  C_11
REMARK    9  A    between atoms: C_10  and  C_12
REMARK   10  A    between atoms: C_13  and  N_14
REMARK   11  A    between atoms: C_15  and  C_17
REMARK   12  A    between atoms: C_17  and  C_18
REMARK   13  A    between atoms: C_18  and  C_19
REMARK   14  A    between atoms: C_20  and  C_30
REMARK   15  A    between atoms: C_21  and  C_28
REMARK   16  A    between atoms: C_26  and  C_27
REMARK                            x       y       z     vdW  Elec       q    Type
REMARK                         _______ _______ _______ _____ _____    ______ ____
ROOT
ATOM      1  N   UNL     1       0.532  -3.484  -4.636  0.00  0.00    -0.314 N 
ATOM      2  C   UNL     1       0.459  -3.581  -5.978  0.00  0.00    +0.213 C 
ATOM      3  O   UNL     1       1.373  -4.079  -6.601  0.00  0.00    -0.276 OA
ATOM      4  H   UNL     1      -0.200  -3.086  -4.138  0.00  0.00    +0.149 HD
ENDROOT
BRANCH   1   5
ATOM      5  C   UNL     1       1.715  -3.980  -3.929  0.00  0.00    +0.126 C 
BRANCH   5   6
ATOM      6  C   UNL     1       1.544  -3.751  -2.426  0.00  0.00    +0.093 C 
BRANCH   6   9
ATOM      7  C   UNL     1       0.651  -1.958  -1.037  0.00  0.00    +0.401 C 
ATOM      8  O   UNL     1       0.245  -2.800  -0.260  0.00  0.00    -0.226 OA
ATOM      9  N   UNL     1       1.265  -2.334  -2.176  0.00  0.00    -0.277 N 
ATOM     10  H   UNL     1       1.523  -1.667  -2.831  0.00  0.00    +0.152 HD
BRANCH   7  11
ATOM     11  O   UNL     1       0.487  -0.651  -0.760  0.00  0.00    -0.451 OA
BRANCH  11  13
ATOM     12  C   UNL     1      -0.267   1.195   0.605  0.00  0.00    +0.048 C 
ATOM     13  C   UNL     1      -0.173  -0.325   0.465  0.00  0.00    +0.230 C 
ENDBRANCH  11  13
ENDBRANCH   7  11
ENDBRANCH   6   9
BRANCH   6  14
ATOM     14  C   UNL     1       2.829  -4.153  -1.699  0.00  0.00    +0.027 C 
BRANCH  14  15
ATOM     15  C   UNL     1       3.042  -5.662  -1.838  0.00  0.00    -0.015 C 
ATOM     16  C   UNL     1       4.390  -6.045  -1.224  0.00  0.00    +0.007 C 
ATOM     17  C   UNL     1       1.920  -6.405  -1.110  0.00  0.00    +0.007 C 
ENDBRANCH  14  15
ENDBRANCH   6  14
ENDBRANCH   5   6
ENDBRANCH   1   5
BRANCH   2  18
ATOM     18  C   UNL     1      -0.758  -3.071  -6.706  0.00  0.00    +0.100 C 
BRANCH  18  19
ATOM     19  C   UNL     1      -0.587  -3.300  -8.209  0.00  0.00    +0.046 C 
BRANCH  19  20
ATOM     20  C   UNL     1      -1.805  -2.791  -8.936  0.00  0.00    -0.024 A 
ATOM     21  C   UNL     1      -2.929  -3.606  -9.069  0.00  0.00    -0.023 A 
ATOM     22  C   UNL     1      -4.043  -3.115  -9.745  0.00  0.00    +0.119 A 
ATOM     23  C   UNL     1      -3.996  -1.800 -10.277  0.00  0.00    +0.267 A 
ATOM     24  O   UNL     1      -4.958  -1.346 -10.872  0.00  0.00    -0.266 OA
ATOM     25  N   UNL     1      -2.885  -1.054 -10.120  0.00  0.00    -0.325 N 
ATOM     26  H   UNL     1      -2.858  -0.156 -10.485  0.00  0.00    +0.169 HD
ATOM     27  C   UNL     1      -1.807  -1.537  -9.456  0.00  0.00    +0.019 A 
ATOM     28  C   UNL     1      -0.586  -0.668  -9.297  0.00  0.00    +0.063 C 
ATOM     29  C   UNL     1      -2.938  -4.998  -8.491  0.00  0.00    +0.045 C 
BRANCH  22  30
ATOM     30  C   UNL     1      -5.215  -3.923  -9.903  0.00  0.00    +0.105 C 
ATOM     31  N   UNL     1      -6.145  -4.563 -10.027  0.00  0.00    -0.191 NA
ENDBRANCH  22  30
ENDBRANCH  19  20
ENDBRANCH  18  19
ENDBRANCH   2  18
TORSDOF 11
