REMARK  Name = ZINC08813200
REMARK  9 active torsions:
REMARK  status: ('A' for Active; 'I' for Inactive)
REMARK    1  A    between atoms: C_1  and  O_2
REMARK    2  A    between atoms: O_2  and  C_3
REMARK    3  A    between atoms: C_7  and  N_9
REMARK    4  A    between atoms: N_9  and  S_10
REMARK    5  A    between atoms: S_10  and  C_13
REMARK    6  A    between atoms: C_21  and  C_25
REMARK    7  A    between atoms: N_27  and  C_28
REMARK    8  A    between atoms: C_28  and  C_29
REMARK    9  A    between atoms: C_29  and  C_30
REMARK                            x       y       z     vdW  Elec       q    Type
REMARK                         _______ _______ _______ _____ _____    ______ ____
ROOT
ATOM      1  C   UNL     1       0.861   3.728   6.633  0.00  0.00    +0.109 A 
ATOM      2  C   UNL     1       0.201   4.933   6.827  0.00  0.00    +0.031 A 
ATOM      3  C   UNL     1       0.753   6.116   6.387  0.00  0.00    +0.028 A 
ATOM      4  C   UNL     1       1.987   6.110   5.741  0.00  0.00    +0.050 A 
ATOM      5  C   UNL     1       2.653   4.888   5.547  0.00  0.00    +0.048 A 
ATOM      6  C   UNL     1       2.084   3.699   6.002  0.00  0.00    +0.042 A 
ATOM      7  C   UNL     1       3.959   4.896   4.861  0.00  0.00    +0.202 A 
ATOM      8  O   UNL     1       4.580   3.866   4.667  0.00  0.00    -0.286 OA
ATOM      9  C   UNL     1       4.479   6.200   4.422  0.00  0.00    +0.100 A 
ATOM     10  C   UNL     1       3.733   7.333   4.669  0.00  0.00    +0.100 A 
ATOM     11  N   UNL     1       2.550   7.286   5.296  0.00  0.00    -0.360 N 
ATOM     12  H   UNL     1       2.069   8.116   5.442  0.00  0.00    +0.165 HD
ENDROOT
BRANCH   9  13
ATOM     13  C   UNL     1       5.774   6.294   3.730  0.00  0.00    +0.249 C 
ATOM     14  O   UNL     1       6.425   5.288   3.517  0.00  0.00    -0.270 OA
ATOM     15  N   UNL     1       6.241   7.494   3.332  0.00  0.00    -0.311 N 
ATOM     16  H   UNL     1       5.722   8.296   3.502  0.00  0.00    +0.149 HD
BRANCH  15  17
ATOM     17  C   UNL     1       7.530   7.588   2.643  0.00  0.00    +0.109 C 
BRANCH  17  18
ATOM     18  C   UNL     1       7.822   9.051   2.303  0.00  0.00    +0.054 C 
BRANCH  18  19
ATOM     19  C   UNL     1       9.149   9.147   1.595  0.00  0.00    -0.046 A 
ATOM     20  C   UNL     1      10.309   9.331   2.323  0.00  0.00    +0.005 A 
ATOM     21  C   UNL     1      11.527   9.413   1.674  0.00  0.00    +0.020 A 
ATOM     22  C   UNL     1      11.582   9.323   0.294  0.00  0.00    +0.041 A 
ATOM     23  C   UNL     1      10.420   9.145  -0.434  0.00  0.00    +0.020 A 
ATOM     24  C   UNL     1       9.204   9.056   0.216  0.00  0.00    +0.005 A 
ATOM     25 CL   UNL     1      13.111   9.433  -0.522  0.00  0.00    -0.084 Cl
ENDBRANCH  18  19
ENDBRANCH  17  18
ENDBRANCH  15  17
ENDBRANCH   9  13
BRANCH   1  26
ATOM     26  S   UNL     1       0.133   2.228   7.205  0.00  0.00    +0.072 S 
ATOM     27  O   UNL     1      -0.759   2.583   8.253  0.00  0.00    -0.150 OA
ATOM     28  O   UNL     1       1.197   1.305   7.390  0.00  0.00    -0.150 OA
BRANCH  26  29
ATOM     29  N   UNL     1      -0.799   1.635   5.971  0.00  0.00    -0.216 N 
ATOM     30  H   UNL     1      -1.762   1.575   6.076  0.00  0.00    +0.174 HD
BRANCH  29  35
ATOM     31  C   UNL     1      -0.149   1.182   2.380  0.00  0.00    +0.122 A 
ATOM     32  C   UNL     1       0.995   0.397   2.420  0.00  0.00    +0.046 A 
ATOM     33  C   UNL     1       1.538   0.026   3.635  0.00  0.00    +0.005 A 
ATOM     34  C   UNL     1       0.946   0.435   4.814  0.00  0.00    +0.025 A 
ATOM     35  C   UNL     1      -0.200   1.221   4.780  0.00  0.00    +0.052 A 
ATOM     36  C   UNL     1      -0.744   1.599   3.559  0.00  0.00    +0.070 A 
BRANCH  31  38
ATOM     37  C   UNL     1      -0.013   1.086   0.008  0.00  0.00    +0.277 C 
ATOM     38  O   UNL     1      -0.682   1.547   1.184  0.00  0.00    -0.495 OA
ENDBRANCH  31  38
ENDBRANCH  29  35
ENDBRANCH  26  29
ENDBRANCH   1  26
TORSDOF 8
