REMARK  Name = ZINC09292552
REMARK  11 active torsions:
REMARK  status: ('A' for Active; 'I' for Inactive)
REMARK    1  A    between atoms: C_1  and  O_2
REMARK    2  A    between atoms: O_2  and  C_3
REMARK    3  A    between atoms: C_7  and  C_11
REMARK    4  A    between atoms: C_8  and  O_9
REMARK    5  A    between atoms: O_9  and  C_10
REMARK    6  A    between atoms: C_14  and  C_25
REMARK    7  A    between atoms: C_20  and  N_24
REMARK    8  A    between atoms: C_21  and  C_22
REMARK    9  A    between atoms: C_28  and  O_31
REMARK   10  A    between atoms: O_31  and  C_32
REMARK   11  A    between atoms: C_32  and  C_33
REMARK                            x       y       z     vdW  Elec       q    Type
REMARK                         _______ _______ _______ _____ _____    ______ ____
ROOT
ATOM      1  C   UNL     1       1.305  -4.208  -2.268  0.00  0.00    +0.105 C 
ATOM      2  C   UNL     1       2.747  -4.599  -2.461  0.00  0.00    +0.054 A 
ATOM      3  C   UNL     1       3.804  -4.560  -1.546  0.00  0.00    +0.100 A 
ATOM      4  N   UNL     1       4.888  -4.997  -2.160  0.00  0.00    -0.171 NA
ATOM      5  N   UNL     1       4.546  -5.325  -3.481  0.00  0.00    -0.246 N 
ATOM      6  H   UNL     1       5.149  -5.671  -4.157  0.00  0.00    +0.192 HD
ATOM      7  C   UNL     1       3.230  -5.075  -3.645  0.00  0.00    +0.223 A 
ATOM      8  O   UNL     1       2.449  -5.237  -4.742  0.00  0.00    -0.423 OA
ATOM      9  C   UNL     1       1.113  -5.176  -4.572  0.00  0.00    +0.200 C 
ATOM     10  C   UNL     1       0.516  -4.714  -3.450  0.00  0.00    +0.098 C 
ENDROOT
BRANCH   1  15
ATOM     11  C   UNL     1       0.531  -0.731  -0.988  0.00  0.00    +0.162 A 
ATOM     12  C   UNL     1       0.984   0.051  -2.039  0.00  0.00    +0.049 A 
ATOM     13  C   UNL     1       1.538  -0.545  -3.156  0.00  0.00    +0.004 A 
ATOM     14  C   UNL     1       1.641  -1.922  -3.229  0.00  0.00    +0.008 A 
ATOM     15  C   UNL     1       1.191  -2.708  -2.184  0.00  0.00    +0.011 A 
ATOM     16  C   UNL     1       0.640  -2.116  -1.059  0.00  0.00    +0.166 A 
BRANCH  11  18
ATOM     17  C   UNL     1      -0.094   1.281   0.115  0.00  0.00    +0.277 C 
ATOM     18  O   UNL     1      -0.014  -0.145   0.112  0.00  0.00    -0.491 OA
ENDBRANCH  11  18
BRANCH  16  19
ATOM     19  O   UNL     1       0.202  -2.888  -0.029  0.00  0.00    -0.491 OA
ATOM     20  C   UNL     1      -1.159  -3.319  -0.074  0.00  0.00    +0.277 C 
ENDBRANCH  16  19
ENDBRANCH   1  15
BRANCH   3  21
ATOM     21  C   UNL     1       3.722  -4.107  -0.136  0.00  0.00    +0.003 A 
ATOM     22  C   UNL     1       2.646  -4.495   0.661  0.00  0.00    +0.013 A 
ATOM     23  C   UNL     1       2.573  -4.073   1.972  0.00  0.00    +0.046 A 
ATOM     24  C   UNL     1       3.569  -3.262   2.498  0.00  0.00    +0.121 A 
ATOM     25  C   UNL     1       4.641  -2.873   1.707  0.00  0.00    +0.046 A 
ATOM     26  C   UNL     1       4.723  -3.298   0.397  0.00  0.00    +0.013 A 
BRANCH  24  27
ATOM     27  O   UNL     1       3.494  -2.847   3.790  0.00  0.00    -0.487 OA
BRANCH  27  28
ATOM     28  C   UNL     1       4.553  -2.014   4.266  0.00  0.00    +0.264 C 
BRANCH  28  29
ATOM     29  C   UNL     1       4.300  -1.657   5.708  0.00  0.00    -0.010 A 
ATOM     30  C   UNL     1       3.572  -0.524   6.022  0.00  0.00    +0.007 A 
ATOM     31  C   UNL     1       3.341  -0.196   7.345  0.00  0.00    +0.000 A 
ATOM     32  C   UNL     1       3.837  -1.001   8.354  0.00  0.00    +0.000 A 
ATOM     33  C   UNL     1       4.564  -2.134   8.040  0.00  0.00    +0.000 A 
ATOM     34  C   UNL     1       4.792  -2.464   6.717  0.00  0.00    +0.007 A 
ENDBRANCH  28  29
ENDBRANCH  27  28
ENDBRANCH  24  27
ENDBRANCH   3  21
BRANCH   9  35
ATOM     35  N   UNL     1       0.310  -5.611  -5.598  0.00  0.00    -0.328 N 
ATOM     36  H   UNL     1       0.709  -5.949  -6.416  0.00  0.00    +0.145 HD
ATOM     37  H   UNL     1      -0.655  -5.580  -5.505  0.00  0.00    +0.145 HD
ENDBRANCH   9  35
BRANCH  10  38
ATOM     38  C   UNL     1      -0.914  -4.703  -3.381  0.00  0.00    +0.101 C 
ATOM     39  N   UNL     1      -2.049  -4.694  -3.327  0.00  0.00    -0.191 NA
ENDBRANCH  10  38
TORSDOF 9
