REMARK  Name = ZINC58441283
REMARK  4 active torsions:
REMARK  status: ('A' for Active; 'I' for Inactive)
REMARK    1  A    between atoms: C_1  and  C_2
REMARK    2  A    between atoms: C_2  and  C_4
REMARK    3  A    between atoms: C_2  and  N_14
REMARK    4  A    between atoms: C_15  and  C_17
REMARK                            x       y       z     vdW  Elec       q    Type
REMARK                         _______ _______ _______ _____ _____    ______ ____
ROOT
ATOM      1  N   UNL     1       0.764  -0.483  -1.154  0.00  0.00    -0.306 N 
ATOM      2  C   UNL     1       2.096  -0.661  -1.056  0.00  0.00    +0.248 C 
ATOM      3  O   UNL     1       2.665  -0.424  -0.011  0.00  0.00    -0.272 OA
ATOM      4  H   UNL     1       0.309  -0.673  -1.989  0.00  0.00    +0.149 HD
ENDROOT
BRANCH   2   5
ATOM      5  C   UNL     1       2.880  -1.154  -2.245  0.00  0.00    +0.169 C 
ATOM      6  C   UNL     1       2.353  -2.480  -2.816  0.00  0.00    +0.056 C 
ATOM      7  C   UNL     1       3.213  -3.496  -2.024  0.00  0.00    +0.100 C 
ATOM      8  C   UNL     1       4.472  -2.731  -1.681  0.00  0.00    +0.221 C 
ATOM      9  O   UNL     1       5.480  -3.227  -1.225  0.00  0.00    -0.275 OA
ATOM     10  N   UNL     1       4.314  -1.413  -1.955  0.00  0.00    -0.246 N 
ATOM     11  C   UNL     1       5.112  -0.259  -2.110  0.00  0.00    +0.052 A 
ATOM     12  C   UNL     1       6.277   0.055  -1.399  0.00  0.00    +0.025 A 
ATOM     13  C   UNL     1       7.017   1.173  -1.715  0.00  0.00    +0.002 A 
ATOM     14  C   UNL     1       6.632   2.018  -2.741  0.00  0.00    +0.001 A 
ATOM     15  C   UNL     1       5.459   1.754  -3.430  0.00  0.00    +0.016 A 
ATOM     16  C   UNL     1       4.702   0.661  -3.085  0.00  0.00    +0.032 A 
ATOM     17  S   UNL     1       3.079   0.105  -3.569  0.00  0.00    -0.088 S 
ENDBRANCH   2   5
BRANCH   1  19
ATOM     18  C   UNL     1       0.007   1.526   0.018  0.00  0.00    +0.033 C 
ATOM     19  C   UNL     1       0.002  -0.004   0.002  0.00  0.00    +0.101 C 
BRANCH  19  20
ATOM     20  C   UNL     1      -1.418  -0.500  -0.091  0.00  0.00    -0.020 A 
ATOM     21  C   UNL     1      -1.970  -0.769  -1.306  0.00  0.00    +0.006 A 
ATOM     22  C   UNL     1      -3.281  -1.229  -1.412  0.00  0.00    +0.001 A 
ATOM     23  C   UNL     1      -4.048  -1.422  -0.304  0.00  0.00    +0.008 A 
ATOM     24  C   UNL     1      -3.512  -1.155   0.967  0.00  0.00    -0.018 A 
ATOM     25  C   UNL     1      -2.176  -0.694   1.075  0.00  0.00    -0.013 A 
ATOM     26  C   UNL     1      -1.639  -0.432   2.347  0.00  0.00    +0.009 A 
ATOM     27  C   UNL     1      -2.404  -0.631   3.455  0.00  0.00    +0.001 A 
ATOM     28  C   UNL     1      -3.715  -1.091   3.349  0.00  0.00    +0.001 A 
ATOM     29  C   UNL     1      -4.274  -1.342   2.134  0.00  0.00    +0.008 A 
ENDBRANCH  19  20
ENDBRANCH   1  19
TORSDOF 3
