REMARK  Name = ZINC29767638
REMARK  3 active torsions:
REMARK  status: ('A' for Active; 'I' for Inactive)
REMARK    1  A    between atoms: C_1  and  N_2
REMARK    2  A    between atoms: C_3  and  C_5
REMARK    3  A    between atoms: C_16  and  C_18
REMARK                            x       y       z     vdW  Elec       q    Type
REMARK                         _______ _______ _______ _____ _____    ______ ____
ROOT
ATOM      1  C   UNL     1       2.417   4.032   1.261  0.00  0.00    +0.276 C 
ATOM      2  C   UNL     1       3.539   3.635   0.291  0.00  0.00    +0.168 C 
ATOM      3  N   UNL     1       3.589   2.163   0.247  0.00  0.00    -0.260 N 
ATOM      4  C   UNL     1       2.369   1.470   0.203  0.00  0.00    +0.079 A 
ATOM      5  C   UNL     1       2.346   0.123  -0.122  0.00  0.00    +0.027 A 
ATOM      6  C   UNL     1       1.143  -0.557  -0.161  0.00  0.00    +0.002 A 
ATOM      7  C   UNL     1      -0.036   0.106   0.125  0.00  0.00    +0.004 A 
ATOM      8  C   UNL     1      -0.020   1.450   0.450  0.00  0.00    +0.047 A 
ATOM      9  C   UNL     1       1.182   2.140   0.490  0.00  0.00    +0.143 A 
ATOM     10  O   UNL     1       1.189   3.462   0.802  0.00  0.00    -0.476 OA
ATOM     11  C   UNL     1       4.765   1.506   0.250  0.00  0.00    +0.258 C 
ATOM     12  O   UNL     1       4.784   0.293   0.349  0.00  0.00    -0.269 OA
ENDROOT
BRANCH  11  13
ATOM     13  C   UNL     1       6.025   2.252   0.133  0.00  0.00    +0.076 A 
ATOM     14  C   UNL     1       7.298   1.794   0.270  0.00  0.00    +0.032 A 
ATOM     15  C   UNL     1       8.382   2.676   0.116  0.00  0.00    +0.025 A 
ATOM     16  C   UNL     1       9.770   2.389   0.215  0.00  0.00    +0.132 A 
ATOM     17  C   UNL     1      10.701   3.378   0.041  0.00  0.00    +0.039 A 
ATOM     18  C   UNL     1      10.325   4.686  -0.238  0.00  0.00    +0.004 A 
ATOM     19  C   UNL     1       8.986   5.002  -0.343  0.00  0.00    +0.016 A 
ATOM     20  C   UNL     1       8.036   4.018  -0.169  0.00  0.00    +0.023 A 
ATOM     21  S   UNL     1       6.262   3.986  -0.215  0.00  0.00    -0.084 S 
ATOM     22  F   UNL     1      10.175   1.129   0.486  0.00  0.00    -0.205 F 
ENDBRANCH  11  13
BRANCH   1  25
ATOM     23  C   UNL     1       3.184   7.740   1.827  0.00  0.00    +0.128 C 
ATOM     24  N   UNL     1       3.304   6.280   1.787  0.00  0.00    -0.315 N 
ATOM     25  C   UNL     1       2.293   5.534   1.301  0.00  0.00    +0.255 C 
ATOM     26  O   UNL     1       1.283   6.070   0.897  0.00  0.00    -0.272 OA
ATOM     27  H   UNL     1       4.220   5.794   2.154  0.00  0.00    +0.148 HD
ENDBRANCH   1  25
TORSDOF 2
