REMARK  Name = ZINC40749810
REMARK  3 active torsions:
REMARK  status: ('A' for Active; 'I' for Inactive)
REMARK    1  A    between atoms: C_2  and  S_8
REMARK    2  A    between atoms: S_8  and  N_11
REMARK    3  A    between atoms: C_19  and  N_21
REMARK                            x       y       z     vdW  Elec       q    Type
REMARK                         _______ _______ _______ _____ _____    ______ ____
ROOT
ATOM      1  N   UNL     1       1.896   4.274   1.440  0.00  0.00    -0.171 NA
ATOM      2  C   UNL     1       1.227   4.541   2.736  0.00  0.00    +0.079 C 
ATOM      3  C   UNL     1       1.926   5.812   3.271  0.00  0.00    +0.022 C 
ATOM      4  C   UNL     1       3.317   5.806   2.603  0.00  0.00    +0.022 C 
ATOM      5  C   UNL     1       3.329   4.525   1.730  0.00  0.00    +0.079 C 
ATOM      6  C   UNL     1       3.829   3.361   2.601  0.00  0.00    +0.004 C 
ATOM      7  C   UNL     1       3.079   3.385   3.936  0.00  0.00    -0.072 C 
ATOM      8  C   UNL     1       1.565   3.372   3.674  0.00  0.00    +0.004 C 
ENDROOT
BRANCH   7   9
ATOM      9  N   UNL     1       3.441   2.197   4.721  0.00  0.00    +0.380 N 
ATOM     10  H   UNL     1       4.436   2.197   4.893  0.00  0.00    -0.090 HD
ATOM     11  H   UNL     1       2.948   2.212   5.601  0.00  0.00    -0.090 HD
ATOM     12  H   UNL     1       3.189   1.365   4.208  0.00  0.00    -0.090 HD
ENDBRANCH   7   9
BRANCH   1  13
ATOM     13  S   UNL     1       1.208   3.800   0.010  0.00  0.00    +0.063 S 
ATOM     14  O   UNL     1       2.099   4.200  -1.022  0.00  0.00    -0.153 OA
ATOM     15  O   UNL     1      -0.148   4.224   0.052  0.00  0.00    -0.153 OA
BRANCH  13  17
ATOM     16  C   UNL     1      -0.016   1.352   0.009  0.00  0.00    +0.057 A 
ATOM     17  C   UNL     1       1.185   2.038   0.002  0.00  0.00    +0.132 A 
ATOM     18  C   UNL     1       2.344   1.335  -0.013  0.00  0.00    +0.106 A 
ATOM     19  S   UNL     1       1.753  -0.350  -0.017  0.00  0.00    -0.063 S 
ATOM     20  C   UNL     1       0.002  -0.004   0.002  0.00  0.00    +0.081 A 
ATOM     21 CL   UNL     1      -1.332  -1.115   0.010  0.00  0.00    -0.076 Cl
ATOM     22 CL   UNL     1       3.978   1.920  -0.026  0.00  0.00    -0.074 Cl
ENDBRANCH  13  17
ENDBRANCH   1  13
TORSDOF 3
