REMARK  Name = ZINC62497038
REMARK  6 active torsions:
REMARK  status: ('A' for Active; 'I' for Inactive)
REMARK    1  A    between atoms: C_1  and  C_2
REMARK    2  A    between atoms: C_5  and  C_23
REMARK    3  A    between atoms: C_6  and  C_8
REMARK    4  A    between atoms: C_8  and  C_9
REMARK    5  A    between atoms: N_13  and  C_22
REMARK    6  A    between atoms: C_17  and  O_21
REMARK                            x       y       z     vdW  Elec       q    Type
REMARK                         _______ _______ _______ _____ _____    ______ ____
ROOT
ATOM      1  C   UNL     1       1.497  -3.192   2.858  0.00  0.00    +0.263 C 
ATOM      2  C   UNL     1       1.505  -4.059   4.092  0.00  0.00    +0.261 C 
ATOM      3  O   UNL     1       1.509  -5.267   3.987  0.00  0.00    -0.271 OA
ATOM      4  N   UNL     1       1.507  -3.484   5.313  0.00  0.00    -0.268 N 
ATOM      5  C   UNL     1       1.630  -2.090   5.413  0.00  0.00    +0.078 A 
ATOM      6  C   UNL     1       1.409  -1.450   6.622  0.00  0.00    +0.031 A 
ATOM      7  C   UNL     1       1.521  -0.074   6.704  0.00  0.00    +0.047 A 
ATOM      8  C   UNL     1       1.853   0.666   5.579  0.00  0.00    +0.120 A 
ATOM      9  C   UNL     1       2.080   0.028   4.368  0.00  0.00    +0.093 A 
ATOM     10  C   UNL     1       1.975  -1.349   4.285  0.00  0.00    +0.146 A 
ATOM     11  O   UNL     1       2.226  -1.989   3.112  0.00  0.00    -0.477 OA
ATOM     12  C   UNL     1       1.382  -4.306   6.519  0.00  0.00    +0.138 C 
ENDROOT
BRANCH   8  13
ATOM     13  O   UNL     1       1.957   2.019   5.663  0.00  0.00    -0.507 OA
ATOM     14  H   UNL     1       2.843   2.333   5.889  0.00  0.00    +0.292 HD
ENDBRANCH   8  13
BRANCH   1  15
ATOM     15  C   UNL     1       0.054  -2.845   2.489  0.00  0.00    +0.089 C 
BRANCH  15  21
ATOM     16  C   UNL     1      -0.018   1.503   0.010  0.00  0.00    +0.044 C 
ATOM     17  C   UNL     1       0.002  -0.004   0.002  0.00  0.00    -0.050 A 
ATOM     18  C   UNL     1       0.006  -0.689  -1.199  0.00  0.00    +0.003 A 
ATOM     19  C   UNL     1       0.025  -2.071  -1.207  0.00  0.00    +0.004 A 
ATOM     20  C   UNL     1       0.040  -2.768  -0.013  0.00  0.00    -0.047 A 
ATOM     21  C   UNL     1       0.037  -2.084   1.188  0.00  0.00    -0.040 A 
ATOM     22  C   UNL     1       0.023  -0.702   1.195  0.00  0.00    +0.007 A 
ATOM     23  C   UNL     1       0.059  -4.275  -0.021  0.00  0.00    +0.044 C 
ENDBRANCH  15  21
ENDBRANCH   1  15
TORSDOF 3
