REMARK  Name = ZINC43423960
REMARK  7 active torsions:
REMARK  status: ('A' for Active; 'I' for Inactive)
REMARK    1  A    between atoms: C_1  and  C_2
REMARK    2  A    between atoms: C_2  and  C_3
REMARK    3  A    between atoms: C_3  and  C_5
REMARK    4  A    between atoms: C_3  and  N_25
REMARK    5  A    between atoms: C_5  and  C_7
REMARK    6  A    between atoms: C_5  and  N_13
REMARK    7  A    between atoms: C_10  and  C_12
REMARK                            x       y       z     vdW  Elec       q    Type
REMARK                         _______ _______ _______ _____ _____    ______ ____
ROOT
ATOM      1  C   UNL     1       0.630  -2.023  -1.329  0.00  0.00    +0.080 C 
ENDROOT
BRANCH   1   2
ATOM      2  N   UNL     1      -0.814  -2.272  -1.223  0.00  0.00    -0.289 NA
ATOM      3  C   UNL     1      -1.531  -1.707  -2.376  0.00  0.00    +0.113 C 
ATOM      4  C   UNL     1      -3.034  -1.943  -2.208  0.00  0.00    +0.175 C 
ATOM      5  O   UNL     1      -3.282  -3.343  -2.043  0.00  0.00    -0.374 OA
ATOM      6  C   UNL     1      -2.600  -3.913  -0.924  0.00  0.00    +0.135 C 
ATOM      7  C   UNL     1      -1.093  -3.708  -1.098  0.00  0.00    +0.086 C 
ATOM      8  C   UNL     1      -0.363  -4.282   0.117  0.00  0.00    +0.021 C 
ATOM      9  C   UNL     1      -0.660  -5.780   0.222  0.00  0.00    +0.002 C 
ATOM     10  C   UNL     1      -2.166  -5.997   0.377  0.00  0.00    +0.003 C 
ATOM     11  C   UNL     1      -2.897  -5.410  -0.834  0.00  0.00    +0.033 C 
ENDBRANCH   1   2
BRANCH   1  12
ATOM     12  C   UNL     1       1.265  -2.167   0.030  0.00  0.00    +0.006 A 
ATOM     13  C   UNL     1       2.469  -2.698   0.359  0.00  0.00    +0.013 A 
ATOM     14  C   UNL     1       2.850  -2.724   1.687  0.00  0.00    +0.011 A 
ATOM     15  C   UNL     1       2.009  -2.218   2.622  0.00  0.00    -0.013 A 
ATOM     16  S   UNL     1       0.631  -1.675   1.625  0.00  0.00    -0.097 S 
ATOM     17  C   UNL     1       2.192  -2.132   4.116  0.00  0.00    +0.051 C 
ENDBRANCH   1  12
BRANCH   1  18
ATOM     18  C   UNL     1       0.867  -0.606  -1.855  0.00  0.00    -0.053 C 
BRANCH  18  19
ATOM     19  N   UNL     1       2.307  -0.315  -1.847  0.00  0.00    +0.381 N 
ATOM     20  H   UNL     1       2.659  -0.387  -0.905  0.00  0.00    -0.090 HD
ATOM     21  H   UNL     1       2.787  -0.978  -2.438  0.00  0.00    -0.090 HD
ATOM     22  H   UNL     1       2.463   0.619  -2.195  0.00  0.00    -0.090 HD
ENDBRANCH  18  19
BRANCH  18  24
ATOM     23  C   UNL     1       0.271   1.802  -1.555  0.00  0.00    +0.002 C 
ATOM     24  C   UNL     1       0.139   0.398  -0.960  0.00  0.00    -0.018 C 
ENDBRANCH  18  24
ENDBRANCH   1  18
TORSDOF 5
