REMARK  Name = ZINC61864898
REMARK  9 active torsions:
REMARK  status: ('A' for Active; 'I' for Inactive)
REMARK    1  A    between atoms: C_1  and  C_2
REMARK    2  A    between atoms: C_2  and  N_3
REMARK    3  A    between atoms: N_3  and  C_4
REMARK    4  A    between atoms: N_3  and  C_5
REMARK    5  A    between atoms: C_5  and  C_6
REMARK    6  A    between atoms: C_10  and  C_12
REMARK    7  A    between atoms: C_12  and  N_13
REMARK    8  A    between atoms: C_19  and  C_22
REMARK    9  A    between atoms: C_22  and  C_23
REMARK                            x       y       z     vdW  Elec       q    Type
REMARK                         _______ _______ _______ _____ _____    ______ ____
ROOT
ATOM      1  N   UNL     1      -6.312  -2.477  -2.450  0.00  0.00    -0.295 N 
ATOM      2  C   UNL     1      -7.091  -2.566  -3.546  0.00  0.00    +0.302 C 
ATOM      3  O   UNL     1      -7.115  -3.594  -4.194  0.00  0.00    -0.253 OA
ATOM      4  N   UNL     1      -7.844  -1.514  -3.924  0.00  0.00    -0.286 N 
ATOM      5  C   UNL     1      -8.786  -1.631  -5.046  0.00  0.00    +0.109 C 
ATOM      6  C   UNL     1     -10.173  -1.185  -4.575  0.00  0.00    +0.023 C 
ATOM      7  C   UNL     1     -10.077   0.222  -3.980  0.00  0.00    +0.001 C 
ATOM      8  C   UNL     1      -9.139   0.203  -2.771  0.00  0.00    +0.023 C 
ATOM      9  C   UNL     1      -7.744  -0.229  -3.218  0.00  0.00    +0.109 C 
ATOM     10  H   UNL     1      -6.236  -1.635  -1.976  0.00  0.00    +0.151 HD
ENDROOT
BRANCH   1  11
ATOM     11  C   UNL     1      -5.580  -3.654  -1.976  0.00  0.00    +0.141 C 
BRANCH  11  16
ATOM     12  C   UNL     1      -2.770  -2.491   0.262  0.00  0.00    -0.064 A 
ATOM     13  C   UNL     1      -3.340  -2.627   1.514  0.00  0.00    +0.002 A 
ATOM     14  C   UNL     1      -4.635  -3.096   1.637  0.00  0.00    +0.001 A 
ATOM     15  C   UNL     1      -5.359  -3.428   0.507  0.00  0.00    +0.005 A 
ATOM     16  C   UNL     1      -4.790  -3.291  -0.745  0.00  0.00    -0.030 A 
ATOM     17  C   UNL     1      -3.496  -2.819  -0.868  0.00  0.00    +0.007 A 
BRANCH  12  18
ATOM     18  C   UNL     1      -1.358  -1.981   0.128  0.00  0.00    -0.043 C 
BRANCH  18  19
ATOM     19  N   UNL     1      -1.376  -0.516   0.015  0.00  0.00    +0.380 N 
ATOM     20  C   UNL     1      -2.049  -0.130  -1.232  0.00  0.00    -0.096 C 
ATOM     21  H   UNL     1      -1.873  -0.124   0.801  0.00  0.00    -0.082 HD
BRANCH  19  23
ATOM     22  C   UNL     1      -0.017   1.521   0.013  0.00  0.00    -0.017 C 
ATOM     23  C   UNL     1       0.002  -0.009   0.005  0.00  0.00    -0.082 C 
ENDBRANCH  19  23
ENDBRANCH  18  19
ENDBRANCH  12  18
ENDBRANCH  11  16
ENDBRANCH   1  11
BRANCH   7  24
ATOM     24  C   UNL     1     -11.467   0.685  -3.540  0.00  0.00    +0.099 C 
BRANCH  24  25
ATOM     25  C   UNL     1     -11.394   2.115  -3.067  0.00  0.00    +0.211 C 
ATOM     26  O   UNL     1     -10.335   2.705  -3.082  0.00  0.00    -0.276 OA
ATOM     27  N   UNL     1     -12.507   2.737  -2.629  0.00  0.00    -0.329 N 
ATOM     28  H   UNL     1     -13.354   2.265  -2.618  0.00  0.00    +0.145 HD
ATOM     29  H   UNL     1     -12.460   3.657  -2.325  0.00  0.00    +0.145 HD
ENDBRANCH  24  25
ENDBRANCH   7  24
TORSDOF 7
