REMARK  Name = ZINC49928313
REMARK  6 active torsions:
REMARK  status: ('A' for Active; 'I' for Inactive)
REMARK    1  A    between atoms: CB_1  and  CA_2
REMARK    2  A    between atoms: CA_2  and  C_4
REMARK    3  A    between atoms: CA_2  and  N_6
REMARK    4  A    between atoms: C_4  and  O_5
REMARK    5  A    between atoms: C_7  and  C_9
REMARK    6  A    between atoms: C_12  and  C_14
REMARK                            x       y       z     vdW  Elec       q    Type
REMARK                         _______ _______ _______ _____ _____    ______ ____
ROOT
ATOM      1  C   UNK A   0      -3.425  -1.150  -1.134  0.00  0.00    +0.190 A 
ATOM      2  C   UNK A   0      -4.227  -1.338  -2.239  0.00  0.00    +0.055 A 
ATOM      3  C   UNK A   0      -5.448  -1.833  -1.772  0.00  0.00    +0.050 A 
ATOM      4  C   UNK A   0      -5.350  -1.929  -0.414  0.00  0.00    +0.136 A 
ATOM      5  O   UNK A   0      -4.125  -1.520  -0.041  0.00  0.00    -0.450 OA
ENDROOT
BRANCH   4   6
ATOM      6  C   UNK A   0      -6.411  -2.408   0.495  0.00  0.00    +0.020 A 
ATOM      7  C   UNK A   0      -7.643  -2.818  -0.020  0.00  0.00    +0.031 A 
ATOM      8  C   UNK A   0      -8.630  -3.265   0.835  0.00  0.00    +0.043 A 
ATOM      9  C   UNK A   0      -8.402  -3.308   2.200  0.00  0.00    +0.040 A 
ATOM     10  C   UNK A   0      -7.183  -2.902   2.717  0.00  0.00    +0.043 A 
ATOM     11  C   UNK A   0      -6.185  -2.458   1.872  0.00  0.00    +0.031 A 
ATOM     12 CL   UNK A   0      -6.906  -2.959   4.430  0.00  0.00    -0.083 Cl
ATOM     13 CL   UNK A   0     -10.162  -3.774   0.197  0.00  0.00    -0.083 Cl
ENDBRANCH   4   6
BRANCH   1  15
ATOM     14  N   ALA A   1      -1.372  -0.511   0.012  0.00  0.00    -0.304 N 
ATOM     15  C   UNK A   0      -2.051  -0.643  -1.145  0.00  0.00    +0.280 C 
ATOM     16  O   UNK A   0      -1.522  -0.340  -2.198  0.00  0.00    -0.267 OA
ATOM     17  H   ALA A   1      -1.794  -0.752   0.852  0.00  0.00    +0.149 HD
BRANCH  14  19
ATOM     18  CB  ALA A   1      -0.019   1.526   0.010  0.00  0.00    +0.030 C 
ATOM     19  CA  ALA A   1       0.002  -0.004   0.002  0.00  0.00    +0.096 C 
BRANCH  19  20
ATOM     20  C   ALA A   1       0.742  -0.511   1.242  0.00  0.00    +0.177 C 
BRANCH  20  21
ATOM     21  O   ALA A   1       0.143   0.044   2.414  0.00  0.00    -0.393 OA
ATOM     22  H   ALA A   1       0.562  -0.234   3.240  0.00  0.00    +0.209 HD
ENDBRANCH  20  21
ENDBRANCH  19  20
ENDBRANCH  14  19
ENDBRANCH   1  15
TORSDOF 5
