REMARK  Name = ZINC27742134
REMARK  8 active torsions:
REMARK  status: ('A' for Active; 'I' for Inactive)
REMARK    1  A    between atoms: C_1  and  C_2
REMARK    2  A    between atoms: C_5  and  O_8
REMARK    3  A    between atoms: O_8  and  C_9
REMARK    4  A    between atoms: C_9  and  C_10
REMARK    5  A    between atoms: N_12  and  C_13
REMARK    6  A    between atoms: C_13  and  C_14
REMARK    7  A    between atoms: C_14  and  C_16
REMARK    8  A    between atoms: C_14  and  C_23
REMARK                            x       y       z     vdW  Elec       q    Type
REMARK                         _______ _______ _______ _____ _____    ______ ____
ROOT
ATOM      1  C   UNL     1      -2.527  -0.809   0.022  0.00  0.00    +0.068 C 
ENDROOT
BRANCH   1   2
ATOM      2  C   UNL     1      -1.037  -1.037   0.006  0.00  0.00    -0.013 A 
ATOM      3  C   UNL     1      -0.411  -2.224  -0.006  0.00  0.00    +0.088 A 
ATOM      4  N   UNL     1       0.945  -2.036  -0.018  0.00  0.00    -0.360 N 
ATOM      5  H   UNL     1       1.620  -2.904  -0.029  0.00  0.00    +0.165 HD
ATOM      6  C   UNL     1       1.231  -0.689  -0.013  0.00  0.00    +0.047 A 
ATOM      7  C   UNL     1       0.002  -0.004   0.002  0.00  0.00    +0.003 A 
ATOM      8  C   UNL     1      -0.017   1.392   0.010  0.00  0.00    +0.010 A 
ATOM      9  C   UNL     1       1.160   2.086   0.002  0.00  0.00    +0.001 A 
ATOM     10  C   UNL     1       2.375   1.415  -0.013  0.00  0.00    +0.002 A 
ATOM     11  C   UNL     1       2.417   0.038  -0.021  0.00  0.00    +0.026 A 
ENDBRANCH   1   2
BRANCH   1  12
ATOM     12  C   UNL     1      -3.142  -1.429  -1.206  0.00  0.00    -0.038 A 
ATOM     13  C   UNL     1      -3.009  -2.785  -1.436  0.00  0.00    +0.005 A 
ATOM     14  C   UNL     1      -3.578  -3.355  -2.560  0.00  0.00    +0.015 A 
ATOM     15  C   UNL     1      -4.271  -2.566  -3.460  0.00  0.00    +0.018 A 
ATOM     16  C   UNL     1      -4.399  -1.208  -3.232  0.00  0.00    +0.015 A 
ATOM     17  C   UNL     1      -3.835  -0.640  -2.105  0.00  0.00    +0.005 A 
ATOM     18 BR   UNL     1      -5.043  -3.344  -5.001  0.00  0.00    -0.050 Br
ENDBRANCH   1  12
BRANCH   1  19
ATOM     19  C   UNL     1      -3.128  -1.452   1.273  0.00  0.00    +0.117 C 
BRANCH  19  22
ATOM     20  C   UNL     1      -5.296  -1.592   2.377  0.00  0.00    +0.251 C 
ATOM     21  O   UNL     1      -4.781  -2.275   3.237  0.00  0.00    -0.272 OA
ATOM     22  N   UNL     1      -4.555  -1.129   1.351  0.00  0.00    -0.312 N 
ATOM     23  H   UNL     1      -5.022  -0.510   0.571  0.00  0.00    +0.149 HD
BRANCH  20  24
ATOM     24  C   UNL     1      -6.764  -1.260   2.456  0.00  0.00    +0.324 C 
BRANCH  24  25
ATOM     25  O   UNL     1      -7.325  -1.861   3.625  0.00  0.00    -0.483 OA
BRANCH  25  30
ATOM     26  C   UNL     1     -12.818  -1.018   4.545  0.00  0.00    +0.044 C 
ATOM     27  C   UNL     1     -11.348  -1.244   4.299  0.00  0.00    -0.050 A 
ATOM     28  C   UNL     1     -10.608  -2.003   5.187  0.00  0.00    +0.007 A 
ATOM     29  C   UNL     1      -9.261  -2.211   4.963  0.00  0.00    +0.046 A 
ATOM     30  C   UNL     1      -8.650  -1.657   3.847  0.00  0.00    +0.121 A 
ATOM     31  C   UNL     1      -9.394  -0.891   2.961  0.00  0.00    +0.046 A 
ATOM     32  C   UNL     1     -10.742  -0.691   3.186  0.00  0.00    +0.007 A 
ENDBRANCH  25  30
ENDBRANCH  24  25
ENDBRANCH  20  24
ENDBRANCH  19  22
ENDBRANCH   1  19
TORSDOF 7
