REMARK  Name = ZINC08133802
REMARK  4 active torsions:
REMARK  status: ('A' for Active; 'I' for Inactive)
REMARK    1  A    between atoms: C_1  and  C_2
REMARK    2  A    between atoms: C_5  and  C_7
REMARK    3  A    between atoms: C_7  and  C_9
REMARK    4  A    between atoms: C_9  and  N_10
REMARK                            x       y       z     vdW  Elec       q    Type
REMARK                         _______ _______ _______ _____ _____    ______ ____
ROOT
ATOM      1  N   UNL     1       2.867  -5.508  -0.042  0.00  0.00    -0.216 N 
ATOM      2  C   UNL     1       3.030  -6.256   1.069  0.00  0.00    +0.252 C 
ATOM      3  O   UNL     1       2.947  -5.887   2.221  0.00  0.00    -0.272 OA
ATOM      4  C   UNL     1       3.337  -7.651   0.575  0.00  0.00    +0.144 C 
ATOM      5  C   UNL     1       4.719  -8.090   1.051  0.00  0.00    +0.081 C 
ATOM      6  C   UNL     1       4.875  -9.590   0.763  0.00  0.00    +0.232 C 
ATOM      7  O   UNL     1       3.909 -10.302   1.537  0.00  0.00    -0.492 OA
ATOM      8  C   UNL     1       2.618  -9.882   1.491  0.00  0.00    +0.126 A 
ATOM      9  C   UNL     1       2.282  -8.615   1.040  0.00  0.00    +0.027 A 
ATOM     10  C   UNL     1       0.954  -8.225   1.014  0.00  0.00    +0.010 A 
ATOM     11  C   UNL     1      -0.036  -9.092   1.433  0.00  0.00    +0.001 A 
ATOM     12  C   UNL     1       0.296 -10.357   1.881  0.00  0.00    +0.004 A 
ATOM     13  C   UNL     1       1.618 -10.752   1.910  0.00  0.00    +0.046 A 
ATOM     14  N   UNL     1       3.312  -7.526  -0.887  0.00  0.00    -0.281 N 
ATOM     15  C   UNL     1       3.023  -6.237  -1.154  0.00  0.00    +0.310 C 
ATOM     16  O   UNL     1       2.919  -5.787  -2.278  0.00  0.00    -0.252 OA
ATOM     17  H   UNL     1       3.468  -8.232  -1.534  0.00  0.00    +0.152 HD
ENDROOT
BRANCH   1  18
ATOM     18  C   UNL     1       2.552  -4.078  -0.033  0.00  0.00    +0.198 C 
BRANCH  18  19
ATOM     19  C   UNL     1       1.056  -3.893  -0.025  0.00  0.00    +0.187 C 
ATOM     20  O   UNL     1       0.324  -4.862  -0.026  0.00  0.00    -0.290 OA
BRANCH  19  25
ATOM     21  C   UNL     1      -0.018   1.503   0.010  0.00  0.00    +0.051 C 
ATOM     22  C   UNL     1       0.002  -0.004   0.002  0.00  0.00    -0.013 A 
ATOM     23  C   UNL     1      -1.058  -0.852   0.002  0.00  0.00    +0.011 A 
ATOM     24  C   UNL     1      -0.831  -2.205  -0.007  0.00  0.00    +0.019 A 
ATOM     25  C   UNL     1       0.506  -2.592  -0.015  0.00  0.00    +0.056 A 
ATOM     26  S   UNL     1       1.342  -1.017  -0.017  0.00  0.00    -0.091 S 
ENDBRANCH  19  25
ENDBRANCH  18  19
ENDBRANCH   1  18
TORSDOF 3
