REMARK  Name = ZINC18597255
REMARK  5 active torsions:
REMARK  status: ('A' for Active; 'I' for Inactive)
REMARK    1  A    between atoms: C_1  and  C_2
REMARK    2  A    between atoms: C_2  and  C_4
REMARK    3  A    between atoms: C_2  and  S_17
REMARK    4  A    between atoms: S_17  and  C_18
REMARK    5  A    between atoms: C_21  and  C_24
REMARK                            x       y       z     vdW  Elec       q    Type
REMARK                         _______ _______ _______ _____ _____    ______ ____
ROOT
ATOM      1  C   UNL     1      -3.612   2.839  -1.256  0.00  0.00    +0.029 C 
ATOM      2  C   UNL     1      -3.447   3.612   0.054  0.00  0.00    +0.137 C 
ENDROOT
BRANCH   2   3
ATOM      3  C   UNL     1      -4.569   4.609   0.194  0.00  0.00    +0.233 C 
ATOM      4  O   UNL     1      -4.409   5.756  -0.166  0.00  0.00    -0.274 OA
ATOM      5  N   UNL     1      -5.749   4.225   0.720  0.00  0.00    -0.260 N 
ATOM      6  C   UNL     1      -5.971   2.839   1.158  0.00  0.00    +0.209 C 
ATOM      7  C   UNL     1      -7.343   2.398   0.732  0.00  0.00    +0.235 C 
ATOM      8  O   UNL     1      -7.550   1.224   0.505  0.00  0.00    -0.274 OA
ATOM      9  N   UNL     1      -8.343   3.289   0.593  0.00  0.00    -0.283 N 
ATOM     10  C   UNL     1      -8.118   4.654   0.800  0.00  0.00    +0.055 A 
ATOM     11  C   UNL     1      -6.809   5.135   0.860  0.00  0.00    +0.058 A 
ATOM     12  C   UNL     1      -6.571   6.483   1.056  0.00  0.00    +0.025 A 
ATOM     13  C   UNL     1      -7.638   7.355   1.196  0.00  0.00    +0.002 A 
ATOM     14  C   UNL     1      -8.935   6.880   1.140  0.00  0.00    +0.002 A 
ATOM     15  C   UNL     1      -9.179   5.534   0.942  0.00  0.00    +0.025 A 
ATOM     16  H   UNL     1      -9.229   2.980   0.348  0.00  0.00    +0.155 HD
ENDBRANCH   2   3
BRANCH   2  17
ATOM     17  S   UNL     1      -1.862   4.485   0.044  0.00  0.00    -0.075 S 
BRANCH  17  18
ATOM     18  C   UNL     1      -0.757   3.112   0.026  0.00  0.00    +0.167 A 
ATOM     19  N   UNL     1       0.603   3.188   0.013  0.00  0.00    -0.333 N 
ATOM     20  H   UNL     1       1.153   4.023   0.013  0.00  0.00    +0.168 HD
ATOM     21  C   UNL     1       1.077   1.887   0.002  0.00  0.00    +0.067 A 
ATOM     22  C   UNL     1      -0.013   1.076   0.008  0.00  0.00    +0.139 A 
ATOM     23  N   UNL     1      -1.108   1.846   0.017  0.00  0.00    -0.230 NA
BRANCH  21  24
ATOM     24  C   UNL     1       2.493   1.464  -0.014  0.00  0.00    -0.000 A 
ATOM     25  C   UNL     1       3.510   2.420  -0.024  0.00  0.00    +0.011 A 
ATOM     26  C   UNL     1       4.830   2.019  -0.033  0.00  0.00    +0.016 A 
ATOM     27  C   UNL     1       5.147   0.671  -0.044  0.00  0.00    +0.018 A 
ATOM     28  C   UNL     1       4.142  -0.282  -0.040  0.00  0.00    +0.016 A 
ATOM     29  C   UNL     1       2.819   0.107  -0.025  0.00  0.00    +0.011 A 
ATOM     30 BR   UNL     1       6.958   0.130  -0.065  0.00  0.00    -0.050 Br
ENDBRANCH  21  24
ENDBRANCH  17  18
ENDBRANCH   2  17
TORSDOF 4
