REMARK  Name = ZINC39941776
REMARK  5 active torsions:
REMARK  status: ('A' for Active; 'I' for Inactive)
REMARK    1  A    between atoms: C_10  and  C_11
REMARK    2  A    between atoms: N_13  and  C_14
REMARK    3  A    between atoms: C_14  and  C_15
REMARK    4  A    between atoms: N_17  and  N_18
REMARK    5  A    between atoms: C_19  and  C_20
REMARK                            x       y       z     vdW  Elec       q    Type
REMARK                         _______ _______ _______ _____ _____    ______ ____
ROOT
ATOM      1  C   UNL     1       8.534  -0.736   0.141  0.00  0.00    +0.249 C 
ATOM      2  O   UNL     1       8.326  -1.929   0.217  0.00  0.00    -0.272 OA
ATOM      3  N   UNL     1       9.799  -0.270   0.152  0.00  0.00    -0.206 N 
ATOM      4  H   UNL     1       9.965   0.683   0.090  0.00  0.00    +0.177 HD
ENDROOT
BRANCH   3   5
ATOM      5  N   UNL     1      10.873  -1.163   0.252  0.00  0.00    -0.192 NA
ATOM      6  C   UNL     1      12.075  -0.721   0.263  0.00  0.00    +0.120 C 
BRANCH   6   7
ATOM      7  C   UNL     1      13.231  -1.682   0.370  0.00  0.00    +0.141 C 
ATOM      8  C   UNL     1      14.040  -1.581  -0.907  0.00  0.00    +0.001 C 
ATOM      9  C   UNL     1      15.356  -1.244  -0.789  0.00  0.00    -0.007 A 
ATOM     10  C   UNL     1      16.210  -1.124  -1.971  0.00  0.00    +0.009 A 
ATOM     11  C   UNL     1      17.514  -0.785  -1.805  0.00  0.00    +0.001 A 
ATOM     12  C   UNL     1      18.049  -0.553  -0.538  0.00  0.00    +0.002 A 
ATOM     13  C   UNL     1      17.310  -0.647   0.598  0.00  0.00    +0.024 A 
ATOM     14  C   UNL     1      15.947  -0.992   0.537  0.00  0.00    +0.040 A 
ATOM     15  N   UNL     1      15.231  -1.082   1.658  0.00  0.00    -0.284 N 
ATOM     16  C   UNL     1      13.948  -1.400   1.671  0.00  0.00    +0.229 C 
ATOM     17  O   UNL     1      13.347  -1.465   2.727  0.00  0.00    -0.274 OA
ATOM     18  H   UNL     1      15.673  -0.905   2.503  0.00  0.00    +0.155 HD
ENDBRANCH   6   7
ENDBRANCH   3   5
BRANCH   1  19
ATOM     19  C   UNL     1       7.378   0.225   0.033  0.00  0.00    +0.202 C 
BRANCH  19  22
ATOM     20  C   UNL     1       4.944   0.132  -0.046  0.00  0.00    +0.245 C 
ATOM     21  O   UNL     1       4.931   1.345  -0.132  0.00  0.00    -0.270 OA
ATOM     22  N   UNL     1       6.119  -0.524   0.042  0.00  0.00    -0.303 N 
ATOM     23  H   UNL     1       6.130  -1.491   0.110  0.00  0.00    +0.150 HD
BRANCH  20  33
ATOM     24  C   UNL     1      -0.015   1.356   0.072  0.00  0.00    +0.001 A 
ATOM     25  C   UNL     1       1.169   2.089   0.065  0.00  0.00    +0.001 A 
ATOM     26  C   UNL     1       2.379   1.464   0.030  0.00  0.00    +0.009 A 
ATOM     27  C   UNL     1       2.436   0.064   0.000  0.00  0.00    -0.006 A 
ATOM     28  C   UNL     1       1.233  -0.683   0.008  0.00  0.00    -0.017 A 
ATOM     29  C   UNL     1       0.003  -0.005   0.044  0.00  0.00    +0.008 A 
ATOM     30  C   UNL     1       1.289  -2.087  -0.021  0.00  0.00    +0.008 A 
ATOM     31  C   UNL     1       2.494  -2.723  -0.057  0.00  0.00    +0.001 A 
ATOM     32  C   UNL     1       3.685  -2.008  -0.064  0.00  0.00    +0.013 A 
ATOM     33  C   UNL     1       3.677  -0.621  -0.037  0.00  0.00    +0.044 A 
ENDBRANCH  20  33
ENDBRANCH  19  22
ENDBRANCH   1  19
TORSDOF 5
