REMARK  Name = ZINC20356464
REMARK  6 active torsions:
REMARK  status: ('A' for Active; 'I' for Inactive)
REMARK    1  A    between atoms: C_1  and  O_2
REMARK    2  A    between atoms: O_2  and  C_3
REMARK    3  A    between atoms: C_5  and  C_17
REMARK    4  A    between atoms: C_8  and  O_9
REMARK    5  A    between atoms: O_9  and  C_10
REMARK    6  A    between atoms: C_10  and  C_11
REMARK                            x       y       z     vdW  Elec       q    Type
REMARK                         _______ _______ _______ _____ _____    ______ ____
ROOT
ATOM      1  C   UNL     1       2.286   0.386  -4.396  0.00  0.00    +0.024 C 
ATOM      2  C   UNL     1       3.053  -0.273  -5.330  0.00  0.00    +0.081 C 
ATOM      3  C   UNL     1       3.166  -1.759  -5.346  0.00  0.00    +0.153 C 
ATOM      4  N   UNL     1       2.193  -2.557  -4.992  0.00  0.00    -0.283 NA
ATOM      5  N   UNL     1       4.426  -2.220  -5.781  0.00  0.00    -0.150 N 
ATOM      6  C   UNL     1       5.174  -1.377  -6.571  0.00  0.00    +0.182 C 
ATOM      7  N   UNL     1       4.901  -0.139  -6.899  0.00  0.00    -0.152 NA
ATOM      8  C   UNL     1       3.807   0.457  -6.379  0.00  0.00    +0.273 C 
ATOM      9  O   UNL     1       3.450   1.562  -6.755  0.00  0.00    -0.268 OA
ATOM     10  S   UNL     1       6.569  -2.390  -6.985  0.00  0.00    -0.018 S 
ATOM     11  C   UNL     1       6.121  -3.818  -6.008  0.00  0.00    +0.182 C 
ATOM     12  N   UNL     1       4.974  -3.452  -5.492  0.00  0.00    -0.149 NA
ATOM     13  N   UNL     1       6.811  -5.008  -5.838  0.00  0.00    -0.308 N 
ATOM     14  C   UNL     1       6.266  -6.075  -4.989  0.00  0.00    +0.107 C 
ATOM     15  C   UNL     1       6.216  -7.374  -5.799  0.00  0.00    +0.019 C 
ATOM     16  C   UNL     1       7.606  -7.670  -6.366  0.00  0.00    +0.003 C 
ATOM     17  C   UNL     1       8.032  -6.534  -7.299  0.00  0.00    +0.019 C 
ATOM     18  C   UNL     1       8.099  -5.228  -6.511  0.00  0.00    +0.107 C 
ATOM     19  H   UNL     1       2.319  -3.518  -5.022  0.00  0.00    +0.188 HD
ENDROOT
BRANCH   1  22
ATOM     20  C   UNL     1      -0.084  -0.669  -1.691  0.00  0.00    +0.162 A 
ATOM     21  C   UNL     1       0.461   0.032  -2.748  0.00  0.00    +0.057 A 
ATOM     22  C   UNL     1       1.702  -0.353  -3.274  0.00  0.00    -0.021 A 
ATOM     23  C   UNL     1       2.382  -1.449  -2.724  0.00  0.00    +0.012 A 
ATOM     24  C   UNL     1       1.830  -2.142  -1.670  0.00  0.00    +0.050 A 
ATOM     25  C   UNL     1       0.602  -1.755  -1.146  0.00  0.00    +0.162 A 
BRANCH  20  27
ATOM     26  C   UNL     1      -1.934   0.823  -1.784  0.00  0.00    +0.277 C 
ATOM     27  O   UNL     1      -1.287  -0.298  -1.177  0.00  0.00    -0.491 OA
ENDBRANCH  20  27
BRANCH  25  28
ATOM     28  O   UNL     1       0.066  -2.440  -0.103  0.00  0.00    -0.484 OA
BRANCH  28  29
ATOM     29  C   UNL     1       0.821  -3.541   0.406  0.00  0.00    +0.264 C 
BRANCH  29  30
ATOM     30  C   UNL     1       0.074  -4.174   1.552  0.00  0.00    -0.010 A 
ATOM     31  C   UNL     1       0.280  -3.726   2.844  0.00  0.00    +0.007 A 
ATOM     32  C   UNL     1      -0.405  -4.307   3.894  0.00  0.00    +0.000 A 
ATOM     33  C   UNL     1      -1.297  -5.335   3.654  0.00  0.00    +0.000 A 
ATOM     34  C   UNL     1      -1.504  -5.782   2.362  0.00  0.00    +0.000 A 
ATOM     35  C   UNL     1      -0.822  -5.199   1.311  0.00  0.00    +0.007 A 
ENDBRANCH  29  30
ENDBRANCH  28  29
ENDBRANCH  25  28
ENDBRANCH   1  22
TORSDOF 5
