REMARK  Name = ZINC33651464
REMARK  11 active torsions:
REMARK  status: ('A' for Active; 'I' for Inactive)
REMARK    1  A    between atoms: C_1  and  C_2
REMARK    2  A    between atoms: C_2  and  C_3
REMARK    3  A    between atoms: C_3  and  C_4
REMARK    4  A    between atoms: C_4  and  C_5
REMARK    5  A    between atoms: C_5  and  C_6
REMARK    6  A    between atoms: C_7  and  C_22
REMARK    7  A    between atoms: C_8  and  C_19
REMARK    8  A    between atoms: C_9  and  C_18
REMARK    9  A    between atoms: N_10  and  C_11
REMARK   10  A    between atoms: C_11  and  C_12
REMARK   11  A    between atoms: C_25  and  C_28
REMARK                            x       y       z     vdW  Elec       q    Type
REMARK                         _______ _______ _______ _____ _____    ______ ____
ROOT
ATOM      1  C   UNL     1      -3.176   2.979   0.725  0.00  0.00    +0.028 A 
ATOM      2  C   UNL     1      -2.067   2.357   1.202  0.00  0.00    +0.015 A 
ATOM      3  C   UNL     1      -1.298   1.930   0.019  0.00  0.00    +0.065 A 
ATOM      4  C   UNL     1      -2.018   2.343  -1.067  0.00  0.00    +0.029 A 
ATOM      5  N   UNL     1      -3.135   2.960  -0.636  0.00  0.00    -0.341 N 
ATOM      6  C   UNL     1      -1.628   2.138  -2.508  0.00  0.00    +0.064 C 
ENDROOT
BRANCH   2   7
ATOM      7  C   UNL     1      -1.702   2.150   2.624  0.00  0.00    -0.015 A 
ATOM      8  C   UNL     1      -2.496   1.340   3.437  0.00  0.00    +0.009 A 
ATOM      9  C   UNL     1      -2.155   1.144   4.756  0.00  0.00    +0.009 A 
ATOM     10  C   UNL     1      -1.022   1.763   5.283  0.00  0.00    -0.018 A 
ATOM     11  C   UNL     1      -0.231   2.576   4.472  0.00  0.00    +0.009 A 
ATOM     12  C   UNL     1      -0.569   2.769   3.151  0.00  0.00    +0.009 A 
BRANCH  10  13
ATOM     13  C   UNL     1      -0.658   1.557   6.706  0.00  0.00    -0.018 A 
ATOM     14  C   UNL     1       0.477   2.170   7.234  0.00  0.00    +0.008 A 
ATOM     15  C   UNL     1       0.808   1.978   8.560  0.00  0.00    +0.001 A 
ATOM     16  C   UNL     1       0.022   1.171   9.362  0.00  0.00    +0.000 A 
ATOM     17  C   UNL     1      -1.103   0.556   8.842  0.00  0.00    +0.001 A 
ATOM     18  C   UNL     1      -1.447   0.745   7.519  0.00  0.00    +0.008 A 
ENDBRANCH  10  13
ENDBRANCH   2   7
BRANCH   3  19
ATOM     19  C   UNL     1      -0.014   1.212   0.009  0.00  0.00    +0.244 C 
ATOM     20  O   UNL     1       0.002  -0.004   0.002  0.00  0.00    -0.270 OA
ATOM     21  N   UNL     1       1.143   1.902   0.001  0.00  0.00    -0.325 N 
ATOM     22  H   UNL     1       2.103   1.365  -0.006  0.00  0.00    +0.145 HD
ATOM     23  H   UNL     1       1.129   3.002   0.003  0.00  0.00    +0.145 HD
ENDBRANCH   3  19
BRANCH   1  24
ATOM     24  C   UNL     1      -4.270   3.588   1.563  0.00  0.00    +0.054 C 
BRANCH  24  25
ATOM     25  C   UNL     1      -5.344   2.535   1.843  0.00  0.00    +0.006 C 
BRANCH  25  26
ATOM     26  C   UNL     1      -6.455   3.154   2.694  0.00  0.00    +0.000 C 
BRANCH  26  28
ATOM     27  C   UNL     1      -8.641   2.720   3.825  0.00  0.00    +0.004 C 
ATOM     28  C   UNL     1      -7.530   2.101   2.974  0.00  0.00    -0.003 C 
ENDBRANCH  26  28
ENDBRANCH  25  26
ENDBRANCH  24  25
ENDBRANCH   1  24
BRANCH   5  29
ATOM     29  C   UNL     1      -4.160   3.536  -1.510  0.00  0.00    +0.177 C 
BRANCH  29  30
ATOM     30  C   UNL     1      -3.818   4.973  -1.806  0.00  0.00    +0.061 A 
ATOM     31  C   UNL     1      -3.717   5.395  -3.118  0.00  0.00    +0.025 A 
ATOM     32  C   UNL     1      -3.402   6.719  -3.380  0.00  0.00    +0.003 A 
ATOM     33  C   UNL     1      -3.200   7.574  -2.307  0.00  0.00    +0.020 A 
ATOM     34  C   UNL     1      -3.318   7.081  -1.021  0.00  0.00    +0.111 A 
ATOM     35  N   UNL     1      -3.624   5.815  -0.810  0.00  0.00    -0.258 NA
ENDBRANCH  29  30
ENDBRANCH   5  29
TORSDOF 9
