REMARK  Name = ZINC21264174
REMARK  17 active torsions:
REMARK  status: ('A' for Active; 'I' for Inactive)
REMARK    1  A    between atoms: C_1  and  C_2
REMARK    2  A    between atoms: C_2  and  C_4
REMARK    3  A    between atoms: C_2  and  N_10
REMARK    4  A    between atoms: N_10  and  C_11
REMARK    5  A    between atoms: N_10  and  C_23
REMARK    6  A    between atoms: C_11  and  C_12
REMARK    7  A    between atoms: C_12  and  C_13
REMARK    8  A    between atoms: C_16  and  O_21
REMARK    9  A    between atoms: C_17  and  O_19
REMARK   10  A    between atoms: O_19  and  C_20
REMARK   11  A    between atoms: O_21  and  C_22
REMARK   12  A    between atoms: C_23  and  N_25
REMARK   13  A    between atoms: N_25  and  C_26
REMARK   14  A    between atoms: C_28  and  C_34
REMARK   15  A    between atoms: C_28  and  C_35
REMARK   16  A    between atoms: C_30  and  C_32
REMARK   17  A    between atoms: C_30  and  C_33
REMARK                            x       y       z     vdW  Elec       q    Type
REMARK                         _______ _______ _______ _____ _____    ______ ____
ROOT
ATOM      1  N   UNL     1       0.015   1.184  -2.483  0.00  0.00    -0.306 N 
ENDROOT
BRANCH   1   3
ATOM      2  C   UNL     1       1.511   3.091  -2.155  0.00  0.00    +0.033 C 
ATOM      3  C   UNL     1       1.059   1.991  -3.118  0.00  0.00    +0.102 C 
BRANCH   3   4
ATOM      4  C   UNL     1       0.515   2.618  -4.376  0.00  0.00    -0.027 A 
ATOM      5  C   UNL     1      -0.737   3.203  -4.370  0.00  0.00    +0.005 A 
ATOM      6  C   UNL     1      -1.235   3.782  -5.523  0.00  0.00    +0.000 A 
ATOM      7  C   UNL     1      -0.484   3.766  -6.684  0.00  0.00    +0.000 A 
ATOM      8  C   UNL     1       0.765   3.176  -6.691  0.00  0.00    +0.000 A 
ATOM      9  C   UNL     1       1.265   2.601  -5.537  0.00  0.00    +0.005 A 
ENDBRANCH   3   4
ENDBRANCH   1   3
BRANCH   1  10
ATOM     10  C   UNL     1      -0.446   0.076  -3.095  0.00  0.00    +0.134 C 
ATOM     11  S   UNL     1      -1.578  -0.934  -2.300  0.00  0.00    -0.019 S 
BRANCH  10  12
ATOM     12  N   UNL     1      -0.017  -0.238  -4.333  0.00  0.00    -0.324 N 
ATOM     13  H   UNL     1       0.771   0.362  -4.811  0.00  0.00    +0.148 HD
BRANCH  12  14
ATOM     14  C   UNL     1      -0.601  -1.382  -5.045  0.00  0.00    +0.069 C 
ATOM     15  C   UNL     1       0.148  -2.655  -4.652  0.00  0.00    +0.009 C 
ATOM     16  C   UNL     1      -0.426  -3.860  -5.394  0.00  0.00    -0.072 C 
ATOM     17  N   UNL     1      -0.557  -3.635  -6.819  0.00  0.00    +0.386 N 
ATOM     18  C   UNL     1      -1.023  -2.358  -7.317  0.00  0.00    -0.072 C 
ATOM     19  C   UNL     1      -0.444  -1.172  -6.551  0.00  0.00    +0.009 C 
ATOM     20  C   UNL     1      -2.554  -2.282  -7.299  0.00  0.00    -0.010 C 
ATOM     21  C   UNL     1      -0.577  -2.223  -8.790  0.00  0.00    -0.010 C 
ATOM     22  C   UNL     1      -1.771  -4.253  -4.770  0.00  0.00    -0.010 C 
ATOM     23  C   UNL     1       0.542  -5.044  -5.179  0.00  0.00    -0.010 C 
ATOM     24  H   UNL     1       0.424  -3.764  -7.301  0.00  0.00    -0.084 HD
ATOM     25  H   UNL     1      -1.270  -4.359  -7.240  0.00  0.00    -0.084 HD
ENDBRANCH  12  14
ENDBRANCH  10  12
ENDBRANCH   1  10
BRANCH   1  26
ATOM     26  C   UNL     1      -0.528   1.582  -1.182  0.00  0.00    +0.112 C 
BRANCH  26  27
ATOM     27  C   UNL     1       0.293   0.934  -0.066  0.00  0.00    +0.054 C 
BRANCH  27  28
ATOM     28  C   UNL     1      -0.265   1.343   1.272  0.00  0.00    -0.042 A 
ATOM     29  C   UNL     1       0.213   2.478   1.902  0.00  0.00    +0.007 A 
ATOM     30  C   UNL     1      -0.301   2.860   3.127  0.00  0.00    +0.049 A 
ATOM     31  C   UNL     1      -1.289   2.100   3.732  0.00  0.00    +0.161 A 
ATOM     32  C   UNL     1      -1.766   0.956   3.101  0.00  0.00    +0.162 A 
ATOM     33  C   UNL     1      -1.251   0.581   1.871  0.00  0.00    +0.053 A 
BRANCH  32  34
ATOM     34  O   UNL     1      -2.736   0.207   3.691  0.00  0.00    -0.491 OA
ATOM     35  C   UNL     1      -3.178  -0.955   2.985  0.00  0.00    +0.277 C 
ENDBRANCH  32  34
BRANCH  31  36
ATOM     36  O   UNL     1      -1.791   2.473   4.940  0.00  0.00    -0.491 OA
ATOM     37  C   UNL     1      -1.254   3.659   5.528  0.00  0.00    +0.277 C 
ENDBRANCH  31  36
ENDBRANCH  27  28
ENDBRANCH  26  27
ENDBRANCH   1  26
TORSDOF 10
