REMARK  Name = ZINC13775120
REMARK  8 active torsions:
REMARK  status: ('A' for Active; 'I' for Inactive)
REMARK    1  A    between atoms: C_1  and  C_2
REMARK    2  A    between atoms: C_9  and  N_29
REMARK    3  A    between atoms: C_10  and  C_13
REMARK    4  A    between atoms: N_17  and  C_21
REMARK    5  A    between atoms: C_21  and  C_22
REMARK    6  A    between atoms: C_22  and  C_23
REMARK    7  A    between atoms: C_31  and  C_38
REMARK    8  A    between atoms: C_34  and  C_37
REMARK                            x       y       z     vdW  Elec       q    Type
REMARK                         _______ _______ _______ _____ _____    ______ ____
ROOT
ATOM      1  C   UNL     1      -2.790   1.250   0.898  0.00  0.00    +0.047 C 
ATOM      2  C   UNL     1      -1.468   1.904   0.592  0.00  0.00    -0.007 A 
ATOM      3  C   UNL     1      -0.346   1.145   0.439  0.00  0.00    +0.008 A 
ATOM      4  C   UNL     1       0.876   1.767   0.148  0.00  0.00    +0.019 A 
ATOM      5  C   UNL     1       0.940   3.112   0.026  0.00  0.00    +0.096 A 
ATOM      6  N   UNL     1      -0.175   3.881   0.183  0.00  0.00    -0.267 N 
ATOM      7  C   UNL     1      -1.381   3.302   0.466  0.00  0.00    +0.145 A 
ATOM      8  N   UNL     1      -2.483   4.037   0.622  0.00  0.00    -0.213 NA
ATOM      9  C   UNL     1      -2.460   5.357   0.510  0.00  0.00    +0.136 A 
ATOM     10  C   UNL     1      -1.240   6.011   0.218  0.00  0.00    +0.081 A 
ATOM     11  C   UNL     1      -0.077   5.221   0.054  0.00  0.00    +0.267 A 
ATOM     12  O   UNL     1       0.995   5.743  -0.199  0.00  0.00    -0.267 OA
ENDROOT
BRANCH  10  13
ATOM     13  C   UNL     1      -1.184   7.419   0.093  0.00  0.00    +0.037 C 
ATOM     14  C   UNL     1      -1.980   8.055  -0.816  0.00  0.00    +0.077 C 
ATOM     15  C   UNL     1      -2.111   9.447  -1.086  0.00  0.00    +0.258 C 
ATOM     16  O   UNL     1      -1.461  10.270  -0.467  0.00  0.00    -0.269 OA
ATOM     17  N   UNL     1      -2.957   9.820  -2.031  0.00  0.00    -0.255 N 
ATOM     18  C   UNL     1      -3.684   8.908  -2.713  0.00  0.00    +0.121 C 
ATOM     19  S   UNL     1      -4.831   9.162  -3.958  0.00  0.00    -0.027 S 
ATOM     20  S   UNL     1      -3.144   7.368  -1.985  0.00  0.00    -0.061 S 
BRANCH  17  21
ATOM     21  C   UNL     1      -3.112  11.244  -2.339  0.00  0.00    +0.119 C 
BRANCH  21  22
ATOM     22  C   UNL     1      -4.215  11.838  -1.461  0.00  0.00    +0.054 C 
BRANCH  22  23
ATOM     23  C   UNL     1      -4.375  13.303  -1.777  0.00  0.00    -0.046 A 
ATOM     24  C   UNL     1      -3.641  14.245  -1.082  0.00  0.00    +0.004 A 
ATOM     25  C   UNL     1      -3.784  15.588  -1.375  0.00  0.00    +0.000 A 
ATOM     26  C   UNL     1      -4.669  15.990  -2.358  0.00  0.00    +0.000 A 
ATOM     27  C   UNL     1      -5.408  15.048  -3.050  0.00  0.00    +0.000 A 
ATOM     28  C   UNL     1      -5.261  13.705  -2.760  0.00  0.00    +0.004 A 
ENDBRANCH  22  23
ENDBRANCH  21  22
ENDBRANCH  17  21
ENDBRANCH  10  13
BRANCH   9  29
ATOM     29  N   UNL     1      -3.617   6.087   0.677  0.00  0.00    -0.310 N 
ATOM     30  C   UNL     1      -3.530   6.946   1.867  0.00  0.00    +0.138 C 
ATOM     31  C   UNL     1      -4.808   7.782   1.980  0.00  0.00    +0.133 C 
ATOM     32  O   UNL     1      -5.940   6.909   2.023  0.00  0.00    -0.371 OA
ATOM     33  C   UNL     1      -6.055   6.058   0.879  0.00  0.00    +0.133 C 
ATOM     34  C   UNL     1      -4.790   5.205   0.755  0.00  0.00    +0.138 C 
ATOM     35  C   UNL     1      -6.221   6.914  -0.379  0.00  0.00    +0.039 C 
ATOM     36  C   UNL     1      -4.760   8.618   3.260  0.00  0.00    +0.039 C 
ENDBRANCH   9  29
TORSDOF 5
