REMARK  Name = ZINC39711646
REMARK  11 active torsions:
REMARK  status: ('A' for Active; 'I' for Inactive)
REMARK    1  A    between atoms: C_1  and  C_2
REMARK    2  A    between atoms: C_2  and  C_3
REMARK    3  A    between atoms: C_2  and  C_4
REMARK    4  A    between atoms: C_2  and  N_5
REMARK    5  A    between atoms: C_6  and  C_11
REMARK    6  A    between atoms: C_11  and  C_13
REMARK    7  A    between atoms: C_11  and  N_28
REMARK    8  A    between atoms: N_28  and  C_29
REMARK    9  A    between atoms: N_28  and  C_36
REMARK   10  A    between atoms: C_29  and  C_30
REMARK   11  A    between atoms: C_36  and  C_37
REMARK                            x       y       z     vdW  Elec       q    Type
REMARK                         _______ _______ _______ _____ _____    ______ ____
ROOT
ATOM      1  C   UNL     1       1.229  -2.211   0.136  0.00  0.00    -0.008 C 
ENDROOT
BRANCH   1   2
ATOM      2  C   UNL     1      -0.158  -1.728  -0.292  0.00  0.00    +0.088 C 
ATOM      3  C   UNL     1      -1.046  -1.720   0.936  0.00  0.00    -0.006 C 
ATOM      4  C   UNL     1      -2.179  -2.472   0.895  0.00  0.00    -0.003 A 
ATOM      5  C   UNL     1      -3.089  -2.518   2.040  0.00  0.00    +0.059 A 
ATOM      6  C   UNL     1      -4.211  -3.281   1.967  0.00  0.00    +0.167 A 
ATOM      7  C   UNL     1      -4.513  -4.027   0.808  0.00  0.00    +0.168 A 
ATOM      8  C   UNL     1      -3.688  -4.017  -0.298  0.00  0.00    +0.073 A 
ATOM      9  C   UNL     1      -2.511  -3.258  -0.308  0.00  0.00    +0.044 A 
ATOM     10  N   UNL     1      -1.726  -3.263  -1.388  0.00  0.00    -0.284 N 
ATOM     11  C   UNL     1      -0.603  -2.573  -1.465  0.00  0.00    +0.223 C 
ATOM     12  O   UNL     1       0.072  -2.617  -2.476  0.00  0.00    -0.275 OA
ATOM     13  O   UNL     1      -5.688  -4.687   1.021  0.00  0.00    -0.453 OA
ATOM     14  C   UNL     1      -5.885  -4.679   2.446  0.00  0.00    +0.466 C 
ATOM     15  O   UNL     1      -5.203  -3.490   2.885  0.00  0.00    -0.453 OA
ATOM     16  H   UNL     1      -1.994  -3.798  -2.152  0.00  0.00    +0.155 HD
ENDBRANCH   1   2
BRANCH   1  18
ATOM     17  N   UNL     1       2.349  -0.056  -0.315  0.00  0.00    -0.183 NA
ATOM     18  C   UNL     1       2.297  -1.486  -0.685  0.00  0.00    +0.205 C 
ATOM     19  N   UNL     1       3.634  -2.000  -0.360  0.00  0.00    -0.152 NA
ATOM     20  N   UNL     1       4.315  -1.079   0.097  0.00  0.00    -0.070 NA
ATOM     21  N   UNL     1       3.621   0.128   0.161  0.00  0.00    -0.179 N 
ATOM     22  H   UNL     1       3.982   0.967   0.489  0.00  0.00    +0.191 HD
BRANCH  17  24
ATOM     23  C   UNL     1       1.943   1.257   1.712  0.00  0.00    +0.029 C 
ATOM     24  C   UNL     1       1.351   0.258   0.716  0.00  0.00    +0.035 C 
ATOM     25  C   UNL     1       0.959  -1.025   1.453  0.00  0.00    +0.029 C 
ATOM     26  C   UNL     1       0.112   0.867   0.058  0.00  0.00    +0.029 C 
ENDBRANCH  17  24
ENDBRANCH   1  18
BRANCH   1  27
ATOM     27  N   UNL     1       1.335  -3.659  -0.092  0.00  0.00    +0.392 N 
ATOM     28  H   UNL     1       1.245  -3.851  -1.079  0.00  0.00    -0.080 HD
BRANCH  27  29
ATOM     29  C   UNL     1       0.267  -4.350   0.641  0.00  0.00    -0.040 C 
BRANCH  29  30
ATOM     30  C   UNL     1       0.352  -3.997   2.104  0.00  0.00    -0.046 A 
ATOM     31  C   UNL     1       1.386  -4.491   2.885  0.00  0.00    +0.005 A 
ATOM     32  C   UNL     1       1.425  -4.140   4.226  0.00  0.00    +0.020 A 
ATOM     33  C   UNL     1       0.438  -3.317   4.736  0.00  0.00    +0.111 A 
ATOM     34  N   UNL     1      -0.530  -2.866   3.963  0.00  0.00    -0.263 NA
ATOM     35  C   UNL     1      -0.595  -3.174   2.682  0.00  0.00    +0.112 A 
ENDBRANCH  29  30
ENDBRANCH  27  29
BRANCH  27  36
ATOM     36  C   UNL     1       2.642  -4.135   0.382  0.00  0.00    -0.002 C 
BRANCH  36  37
ATOM     37  C   UNL     1       2.852  -5.557  -0.069  0.00  0.00    +0.089 A 
ATOM     38  C   UNL     1       3.514  -5.942  -1.174  0.00  0.00    +0.042 A 
ATOM     39  C   UNL     1       3.468  -7.355  -1.208  0.00  0.00    +0.041 A 
ATOM     40  C   UNL     1       2.781  -7.749  -0.121  0.00  0.00    +0.195 A 
ATOM     41  O   UNL     1       2.415  -6.656   0.568  0.00  0.00    -0.470 OA
ENDBRANCH  36  37
ENDBRANCH  27  36
ENDBRANCH   1  27
TORSDOF 8
