REMARK  Name = ZINC39359174
REMARK  8 active torsions:
REMARK  status: ('A' for Active; 'I' for Inactive)
REMARK    1  A    between atoms: C_1  and  O_2
REMARK    2  A    between atoms: O_2  and  C_3
REMARK    3  A    between atoms: C_5  and  C_12
REMARK    4  A    between atoms: C_7  and  O_10
REMARK    5  A    between atoms: C_8  and  O_9
REMARK    6  A    between atoms: O_10  and  C_11
REMARK    7  A    between atoms: C_15  and  O_34
REMARK    8  A    between atoms: C_26  and  C_29
REMARK                            x       y       z     vdW  Elec       q    Type
REMARK                         _______ _______ _______ _____ _____    ______ ____
ROOT
ATOM      1  C   UNL     1       2.402   0.386  -4.230  0.00  0.00    +0.089 C 
ATOM      2  C   UNL     1       1.765   0.058  -5.547  0.00  0.00    +0.048 C 
ATOM      3  C   UNL     1       0.849   0.631  -6.297  0.00  0.00    +0.235 C 
ATOM      4  N   UNL     1       0.732  -0.029  -7.482  0.00  0.00    -0.114 NA
ATOM      5  N   UNL     1       1.456  -1.028  -7.586  0.00  0.00    -0.157 NA
ATOM      6  C   UNL     1       2.183  -1.193  -6.326  0.00  0.00    +0.245 C 
ATOM      7  N   UNL     1       3.632  -1.047  -6.480  0.00  0.00    -0.321 N 
ATOM      8  C   UNL     1       4.382  -0.615  -5.415  0.00  0.00    +0.014 C 
ATOM      9  C   UNL     1       3.883   0.065  -4.359  0.00  0.00    +0.023 C 
ATOM     10  C   UNL     1       4.713   0.516  -3.318  0.00  0.00    +0.162 C 
ATOM     11  O   UNL     1       4.219   1.119  -2.386  0.00  0.00    -0.292 OA
ATOM     12  C   UNL     1       6.196   0.270  -3.330  0.00  0.00    +0.088 C 
ATOM     13  C   UNL     1       6.666   0.159  -4.784  0.00  0.00    +0.039 C 
ATOM     14  C   UNL     1       5.859  -0.951  -5.470  0.00  0.00    +0.060 C 
ATOM     15  H   UNL     1       4.057  -1.254  -7.327  0.00  0.00    +0.148 HD
ENDROOT
BRANCH   1  18
ATOM     16  C   UNL     1       0.606  -0.608  -1.056  0.00  0.00    +0.165 A 
ATOM     17  C   UNL     1       1.173   0.160  -2.063  0.00  0.00    +0.054 A 
ATOM     18  C   UNL     1       1.787  -0.452  -3.139  0.00  0.00    -0.028 A 
ATOM     19  C   UNL     1       1.839  -1.831  -3.217  0.00  0.00    +0.054 A 
ATOM     20  C   UNL     1       1.275  -2.606  -2.215  0.00  0.00    +0.165 A 
ATOM     21  C   UNL     1       0.661  -1.994  -1.128  0.00  0.00    +0.201 A 
BRANCH  16  23
ATOM     22  C   UNL     1      -0.017   1.425   0.010  0.00  0.00    +0.277 C 
ATOM     23  O   UNL     1       0.002  -0.004   0.002  0.00  0.00    -0.491 OA
ENDBRANCH  16  23
BRANCH  21  24
ATOM     24  O   UNL     1       0.111  -2.751  -0.140  0.00  0.00    -0.501 OA
ATOM     25  H   UNL     1      -0.817  -2.978  -0.289  0.00  0.00    +0.292 HD
ENDBRANCH  21  24
BRANCH  20  26
ATOM     26  O   UNL     1       1.326  -3.963  -2.293  0.00  0.00    -0.491 OA
ATOM     27  C   UNL     1       1.977  -4.523  -3.435  0.00  0.00    +0.277 C 
ENDBRANCH  20  26
ENDBRANCH   1  18
BRANCH  13  28
ATOM     28  C   UNL     1       8.133  -0.183  -4.819  0.00  0.00    -0.006 A 
ATOM     29  C   UNL     1       9.160   0.516  -5.360  0.00  0.00    +0.011 A 
ATOM     30  C   UNL     1      10.441   0.003  -5.272  0.00  0.00    +0.008 A 
ATOM     31  C   UNL     1      10.632  -1.184  -4.646  0.00  0.00    +0.045 A 
ATOM     32  S   UNL     1       8.971  -1.611  -4.150  0.00  0.00    -0.101 S 
ENDBRANCH  13  28
BRANCH   3  33
ATOM     33  O   UNL     1       0.124   1.723  -5.940  0.00  0.00    -0.491 OA
ATOM     34  H   UNL     1      -0.507   2.014  -6.612  0.00  0.00    +0.294 HD
ENDBRANCH   3  33
TORSDOF 6
