REMARK  Name = ZINC03377798
REMARK  5 active torsions:
REMARK  status: ('A' for Active; 'I' for Inactive)
REMARK    1  A    between atoms: C_1  and  C_2
REMARK    2  A    between atoms: C_8  and  N_9
REMARK    3  A    between atoms: C_8  and  N_54
REMARK    4  A    between atoms: N_12  and  C_25
REMARK    5  A    between atoms: C_13  and  C_15
REMARK                            x       y       z     vdW  Elec       q    Type
REMARK                         _______ _______ _______ _____ _____    ______ ____
ROOT
ATOM      1  N   UNL     1      -3.324   7.130   0.075  0.00  0.00    -0.257 N 
ATOM      2  C   UNL     1      -4.583   6.647   0.084  0.00  0.00    +0.181 A 
ATOM      3  S   UNL     1      -6.021   7.576   0.103  0.00  0.00    -0.011 S 
ATOM      4  N   UNL     1      -4.505   5.301   0.074  0.00  0.00    -0.271 N 
ATOM      5  C   UNL     1      -3.170   4.945   0.060  0.00  0.00    +0.169 A 
ATOM      6  N   UNL     1      -2.451   6.034   0.066  0.00  0.00    -0.152 NA
ENDROOT
BRANCH   5   7
ATOM      7  C   UNL     1      -2.645   3.564   0.047  0.00  0.00    +0.045 A 
ATOM      8  C   UNL     1      -3.375   2.419   0.030  0.00  0.00    +0.095 A 
ATOM      9  N   UNL     1      -2.541   1.341   0.021  0.00  0.00    -0.360 N 
ATOM     10  H   UNL     1      -2.830   0.415   0.017  0.00  0.00    +0.165 HD
ATOM     11  C   UNL     1      -1.226   1.756   0.017  0.00  0.00    +0.047 A 
ATOM     12  C   UNL     1      -1.229   3.161   0.031  0.00  0.00    +0.010 A 
ATOM     13  C   UNL     1      -0.024   3.861   0.024  0.00  0.00    +0.011 A 
ATOM     14  C   UNL     1       1.167   3.169   0.008  0.00  0.00    +0.001 A 
ATOM     15  C   UNL     1       1.171   1.782   0.000  0.00  0.00    +0.002 A 
ATOM     16  C   UNL     1      -0.013   1.076   0.008  0.00  0.00    +0.026 A 
ENDBRANCH   5   7
BRANCH   4  17
ATOM     17  C   UNL     1      -5.592   4.416   0.078  0.00  0.00    +0.051 A 
ATOM     18  C   UNL     1      -5.823   3.595  -1.017  0.00  0.00    +0.028 A 
ATOM     19  C   UNL     1      -6.891   2.719  -1.008  0.00  0.00    +0.022 A 
ATOM     20  C   UNL     1      -7.737   2.668   0.086  0.00  0.00    +0.041 A 
ATOM     21  C   UNL     1      -7.512   3.490   1.176  0.00  0.00    +0.022 A 
ATOM     22  C   UNL     1      -6.442   4.363   1.175  0.00  0.00    +0.028 A 
ATOM     23 CL   UNL     1      -9.082   1.571   0.091  0.00  0.00    -0.084 Cl
ENDBRANCH   4  17
BRANCH   1  24
ATOM     24  C   UNL     1      -2.938   8.543   0.081  0.00  0.00    +0.072 C 
BRANCH  24  31
ATOM     25  C   UNL     1      -1.305  12.129   3.026  0.00  0.00    +0.005 C 
ATOM     26  C   UNL     1      -1.921  10.729   2.974  0.00  0.00    -0.031 C 
ATOM     27  C   UNL     1      -3.243  10.724   3.746  0.00  0.00    -0.001 C 
ATOM     28  C   UNL     1      -3.882   9.337   3.639  0.00  0.00    -0.018 C 
ATOM     29  C   UNL     1      -4.090   8.989   2.163  0.00  0.00    -0.076 C 
ATOM     30  C   UNL     1      -2.186  10.341   1.517  0.00  0.00    -0.073 C 
ATOM     31  N   UNL     1      -2.779   8.987   1.481  0.00  0.00    +0.393 N 
ATOM     32  H   UNL     1      -2.151   8.336   1.968  0.00  0.00    -0.079 HD
ENDBRANCH  24  31
ENDBRANCH   1  24
TORSDOF 4
