REMARK  Name = ZINC12771511
REMARK  8 active torsions:
REMARK  status: ('A' for Active; 'I' for Inactive)
REMARK    1  A    between atoms: C_1  and  C_2
REMARK    2  A    between atoms: C_2  and  N_3
REMARK    3  A    between atoms: N_3  and  C_4
REMARK    4  A    between atoms: C_7  and  S_24
REMARK    5  A    between atoms: C_9  and  N_10
REMARK    6  A    between atoms: N_10  and  S_11
REMARK    7  A    between atoms: S_11  and  C_14
REMARK    8  A    between atoms: S_24  and  C_27
REMARK                            x       y       z     vdW  Elec       q    Type
REMARK                         _______ _______ _______ _____ _____    ______ ____
ROOT
ATOM      1  C   UNL     1      -1.596  -1.710   0.268  0.00  0.00    +0.050 A 
ATOM      2  C   UNL     1      -0.476  -2.514   0.412  0.00  0.00    +0.027 A 
ATOM      3  C   UNL     1      -0.614  -3.889   0.466  0.00  0.00    +0.029 A 
ATOM      4  C   UNL     1      -1.868  -4.466   0.377  0.00  0.00    +0.099 A 
ATOM      5  C   UNL     1      -2.990  -3.671   0.233  0.00  0.00    +0.053 A 
ATOM      6  C   UNL     1      -2.861  -2.291   0.184  0.00  0.00    +0.071 A 
ENDROOT
BRANCH   4   7
ATOM      7  S   UNL     1      -2.035  -6.218   0.448  0.00  0.00    +0.091 S 
ATOM      8  O   UNL     1      -3.237  -6.496  -0.257  0.00  0.00    -0.161 OA
ATOM      9  O   UNL     1      -0.790  -6.721  -0.018  0.00  0.00    -0.161 OA
BRANCH   7  10
ATOM     10  C   UNL     1      -2.243  -6.596   2.210  0.00  0.00    +0.526 C 
ATOM     11  F   UNL     1      -3.383  -5.948   2.695  0.00  0.00    -0.150 F 
ATOM     12  F   UNL     1      -2.386  -7.978   2.376  0.00  0.00    -0.150 F 
ATOM     13  F   UNL     1      -1.119  -6.155   2.917  0.00  0.00    -0.150 F 
ENDBRANCH   7  10
ENDBRANCH   4   7
BRANCH   1  14
ATOM     14  N   UNL     1      -1.458  -0.318   0.212  0.00  0.00    -0.343 N 
ATOM     15  H   UNL     1      -2.242   0.244   0.111  0.00  0.00    +0.146 HD
BRANCH  14  17
ATOM     16  C   UNL     1      -0.257   1.813   0.220  0.00  0.00    +0.024 C 
ATOM     17  C   UNL     1      -0.129   0.291   0.307  0.00  0.00    +0.098 C 
ENDBRANCH  14  17
ENDBRANCH   1  14
BRANCH   6  18
ATOM     18  N   UNL     1      -3.996  -1.484   0.044  0.00  0.00    -0.214 N 
ATOM     19  H   UNL     1      -3.951  -0.669  -0.480  0.00  0.00    +0.174 HD
BRANCH  18  20
ATOM     20  S   UNL     1      -5.418  -1.922   0.772  0.00  0.00    +0.072 S 
ATOM     21  O   UNL     1      -6.333  -0.858   0.550  0.00  0.00    -0.150 OA
ATOM     22  O   UNL     1      -5.689  -3.256   0.366  0.00  0.00    -0.150 OA
BRANCH  20  23
ATOM     23  C   UNL     1      -5.119  -1.975   2.508  0.00  0.00    +0.109 A 
ATOM     24  C   UNL     1      -4.698  -3.150   3.103  0.00  0.00    +0.030 A 
ATOM     25  C   UNL     1      -4.457  -3.197   4.461  0.00  0.00    +0.025 A 
ATOM     26  C   UNL     1      -4.649  -2.061   5.245  0.00  0.00    +0.037 A 
ATOM     27  C   UNL     1      -5.077  -0.888   4.636  0.00  0.00    -0.016 A 
ATOM     28  C   UNL     1      -5.311  -0.843   3.280  0.00  0.00    +0.034 A 
ATOM     29  C   UNL     1      -5.188   0.145   5.733  0.00  0.00    +0.133 C 
ATOM     30  C   UNL     1      -4.775  -0.601   6.984  0.00  0.00    +0.222 C 
ATOM     31  O   UNL     1      -4.718  -0.148   8.108  0.00  0.00    -0.275 OA
ATOM     32  N   UNL     1      -4.481  -1.860   6.615  0.00  0.00    -0.285 N 
ATOM     33  H   UNL     1      -4.187  -2.549   7.231  0.00  0.00    +0.155 HD
ENDBRANCH  20  23
ENDBRANCH  18  20
ENDBRANCH   6  18
TORSDOF 7
