REMARK  Name = ZINC05807581
REMARK  12 active torsions:
REMARK  status: ('A' for Active; 'I' for Inactive)
REMARK    1  A    between atoms: C_1  and  C_2
REMARK    2  A    between atoms: C_2  and  N_70
REMARK    3  A    between atoms: C_3  and  C_4
REMARK    4  A    between atoms: C_3  and  N_70
REMARK    5  A    between atoms: C_5  and  C_6
REMARK    6  A    between atoms: C_5  and  N_70
REMARK    7  A    between atoms: C_6  and  C_7
REMARK    8  A    between atoms: C_7  and  C_8
REMARK    9  A    between atoms: C_8  and  C_9
REMARK   10  A    between atoms: C_14  and  C_15
REMARK   11  A    between atoms: C_14  and  N_72
REMARK   12  A    between atoms: C_19  and  C_30
REMARK                            x       y       z     vdW  Elec       q    Type
REMARK                         _______ _______ _______ _____ _____    ______ ____
ROOT
ATOM      1  C   UNL     1       1.481   1.517  -0.177  0.00  0.00    +0.019 C 
ENDROOT
BRANCH   1   2
ATOM      2  C   UNL     1       1.597   0.042  -0.467  0.00  0.00    +0.203 C 
ATOM      3  O   UNL     1       1.040  -0.431  -1.435  0.00  0.00    -0.277 OA
ATOM      4  N   UNL     1       2.318  -0.750   0.350  0.00  0.00    -0.271 N 
ATOM      5  C   UNL     1       2.441  -2.184   0.083  0.00  0.00    +0.126 C 
ATOM      6  C   UNL     1       2.302  -2.969   1.388  0.00  0.00    +0.090 C 
ATOM      7  C   UNL     1       1.164  -2.417   2.206  0.00  0.00    +0.222 C 
ATOM      8  O   UNL     1       0.116  -3.025   2.266  0.00  0.00    -0.275 OA
ATOM      9  N   UNL     1       1.302  -1.250   2.874  0.00  0.00    -0.284 N 
ATOM     10  C   UNL     1       2.472  -0.492   2.748  0.00  0.00    +0.055 A 
ATOM     11  C   UNL     1       2.971  -0.217   1.470  0.00  0.00    +0.057 A 
ATOM     12  C   UNL     1       4.104   0.566   1.319  0.00  0.00    +0.025 A 
ATOM     13  C   UNL     1       4.754   1.058   2.436  0.00  0.00    +0.002 A 
ATOM     14  C   UNL     1       4.280   0.769   3.703  0.00  0.00    +0.002 A 
ATOM     15  C   UNL     1       3.131  -0.008   3.865  0.00  0.00    +0.025 A 
ATOM     16  C   UNL     1       2.026  -4.440   1.069  0.00  0.00    +0.019 C 
ATOM     17  H   UNL     1       0.584  -0.936   3.446  0.00  0.00    +0.155 HD
ENDBRANCH   1   2
BRANCH   1  23
ATOM     18  C   UNL     1       0.320   4.122  -3.362  0.00  0.00    -0.014 C 
ATOM     19  C   UNL     1       0.686   2.668  -3.673  0.00  0.00    -0.015 C 
ATOM     20  C   UNL     1       1.526   2.102  -2.525  0.00  0.00    -0.078 C 
ATOM     21  C   UNL     1       0.438   3.567  -0.931  0.00  0.00    -0.078 C 
ATOM     22  C   UNL     1      -0.434   4.176  -2.031  0.00  0.00    -0.015 C 
ATOM     23  N   UNL     1       0.735   2.161  -1.278  0.00  0.00    +0.385 N 
ATOM     24  H   UNL     1      -0.149   1.659  -1.421  0.00  0.00    -0.081 HD
BRANCH  18  25
ATOM     25  C   UNL     1      -0.570   4.674  -4.478  0.00  0.00    +0.003 C 
BRANCH  25  26
ATOM     26  C   UNL     1      -0.833   6.161  -4.231  0.00  0.00    -0.002 C 
BRANCH  26  27
ATOM     27  C   UNL     1      -1.723   6.713  -5.347  0.00  0.00    -0.019 C 
BRANCH  27  28
ATOM     28  C   UNL     1      -1.986   8.200  -5.101  0.00  0.00    -0.079 C 
BRANCH  28  29
ATOM     29  N   UNL     1      -2.828   8.723  -6.197  0.00  0.00    +0.379 N 
ATOM     30  H   UNL     1      -2.399   8.473  -7.095  0.00  0.00    -0.082 HD
BRANCH  29  32
ATOM     31  C   UNL     1      -4.839   8.450  -4.785  0.00  0.00    -0.017 C 
ATOM     32  C   UNL     1      -4.178   8.126  -6.126  0.00  0.00    -0.082 C 
ENDBRANCH  29  32
BRANCH  29  33
ATOM     33  C   UNL     1      -2.922  10.195  -6.103  0.00  0.00    -0.082 C 
ATOM     34  C   UNL     1      -3.475  10.737  -7.423  0.00  0.00    -0.017 C 
ENDBRANCH  29  33
ENDBRANCH  28  29
ENDBRANCH  27  28
ENDBRANCH  26  27
ENDBRANCH  25  26
ENDBRANCH  18  25
ENDBRANCH   1  23
TORSDOF 9
