REMARK  Name = ZINC23716415
REMARK  7 active torsions:
REMARK  status: ('A' for Active; 'I' for Inactive)
REMARK    1  A    between atoms: C_1  and  C_2
REMARK    2  A    between atoms: C_3  and  C_15
REMARK    3  A    between atoms: C_4  and  C_10
REMARK    4  A    between atoms: N_17  and  C_18
REMARK    5  A    between atoms: C_23  and  C_24
REMARK    6  A    between atoms: C_24  and  C_25
REMARK    7  A    between atoms: C_24  and  C_26
REMARK                            x       y       z     vdW  Elec       q    Type
REMARK                         _______ _______ _______ _____ _____    ______ ____
ROOT
ATOM      1  C   UNL     1      -0.366   4.266   1.230  0.00  0.00    +0.061 C 
ATOM      2  C   UNL     1       0.845   5.021   0.746  0.00  0.00    +0.017 C 
ATOM      3  C   UNL     1       2.050   4.767   1.298  0.00  0.00    +0.056 C 
ATOM      4  C   UNL     1       3.241   5.550   0.783  0.00  0.00    +0.140 C 
ATOM      5  N   UNL     1       2.983   6.531  -0.285  0.00  0.00    -0.315 N 
ATOM      6  C   UNL     1       1.721   6.672  -0.735  0.00  0.00    +0.135 C 
ATOM      7  S   UNL     1       1.406   7.809  -1.975  0.00  0.00    -0.019 S 
ATOM      8  N   UNL     1       0.705   5.953  -0.242  0.00  0.00    -0.300 N 
ATOM      9  H   UNL     1       3.812   7.126  -0.696  0.00  0.00    +0.149 HD
ATOM     10  H   UNL     1      -0.286   6.146  -0.680  0.00  0.00    +0.154 HD
ENDROOT
BRANCH   4  11
ATOM     11  C   UNL     1       4.260   4.563   0.272  0.00  0.00    -0.016 A 
ATOM     12  C   UNL     1       5.402   4.294   1.001  0.00  0.00    +0.013 A 
ATOM     13  C   UNL     1       6.298   3.401   0.513  0.00  0.00    +0.045 A 
ATOM     14  S   UNL     1       5.534   2.914  -1.025  0.00  0.00    -0.105 S 
ATOM     15  C   UNL     1       4.068   3.927  -0.910  0.00  0.00    +0.051 A 
ENDBRANCH   4  11
BRANCH   3  16
ATOM     16  C   UNL     1       2.197   3.802   2.324  0.00  0.00    +0.248 C 
ATOM     17  O   UNL     1       2.198   4.149   3.491  0.00  0.00    -0.270 OA
ATOM     18  N   UNL     1       2.336   2.499   2.008  0.00  0.00    -0.281 N 
ATOM     19  H   UNL     1       2.402   2.192   0.954  0.00  0.00    +0.155 HD
BRANCH  18  20
ATOM     20  C   UNL     1       2.395   1.537   3.021  0.00  0.00    +0.037 A 
ATOM     21  C   UNL     1       3.012   1.835   4.230  0.00  0.00    +0.023 A 
ATOM     22  C   UNL     1       3.066   0.884   5.229  0.00  0.00    +0.002 A 
ATOM     23  C   UNL     1       2.514  -0.368   5.025  0.00  0.00    +0.000 A 
ATOM     24  C   UNL     1       1.904  -0.670   3.822  0.00  0.00    +0.006 A 
ATOM     25  C   UNL     1       1.843   0.279   2.819  0.00  0.00    -0.024 A 
BRANCH  25  26
ATOM     26  C   UNL     1       1.178  -0.052   1.508  0.00  0.00    +0.015 C 
ATOM     27  C   UNL     1       1.820  -1.307   0.913  0.00  0.00    +0.012 C 
ATOM     28  C   UNL     1      -0.313  -0.303   1.741  0.00  0.00    +0.012 C 
ENDBRANCH  25  26
ENDBRANCH  18  20
ENDBRANCH   3  16
TORSDOF 4
