REMARK  Name = ZINC24876331
REMARK  10 active torsions:
REMARK  status: ('A' for Active; 'I' for Inactive)
REMARK    1  A    between atoms: C_1  and  C_2
REMARK    2  A    between atoms: C_2  and  O_3
REMARK    3  A    between atoms: O_3  and  C_4
REMARK    4  A    between atoms: C_4  and  C_6
REMARK    5  A    between atoms: C_7  and  C_33
REMARK    6  A    between atoms: C_13  and  C_17
REMARK    7  A    between atoms: C_17  and  C_19
REMARK    8  A    between atoms: C_17  and  S_20
REMARK    9  A    between atoms: S_20  and  C_21
REMARK   10  A    between atoms: N_25  and  C_26
REMARK                            x       y       z     vdW  Elec       q    Type
REMARK                         _______ _______ _______ _____ _____    ______ ____
ROOT
ATOM      1  C   UNL     1       1.449  -2.344  -2.516  0.00  0.00    +0.102 A 
ATOM      2  C   UNL     1       1.649  -3.651  -2.857  0.00  0.00    -0.015 A 
ATOM      3  C   UNL     1       2.321  -3.966  -4.039  0.00  0.00    +0.076 A 
ATOM      4  C   UNL     1       2.648  -5.295  -4.604  0.00  0.00    +0.260 A 
ATOM      5  O   UNL     1       2.325  -6.317  -4.025  0.00  0.00    -0.267 OA
ATOM      6  N   UNL     1       3.313  -5.345  -5.775  0.00  0.00    -0.309 N 
ATOM      7  H   UNL     1       3.536  -6.207  -6.159  0.00  0.00    +0.170 HD
ATOM      8  C   UNL     1       3.678  -4.214  -6.428  0.00  0.00    +0.124 A 
ATOM      9  N   UNL     1       3.405  -3.027  -5.958  0.00  0.00    -0.225 NA
ATOM     10  C   UNL     1       2.755  -2.865  -4.813  0.00  0.00    +0.116 A 
ATOM     11  S   UNL     1       2.205  -1.464  -3.872  0.00  0.00    -0.062 S 
ATOM     12  C   UNL     1       1.145  -4.751  -1.958  0.00  0.00    +0.046 C 
ENDROOT
BRANCH   1  13
ATOM     13  C   UNL     1       0.776  -1.800  -1.335  0.00  0.00    +0.346 C 
ATOM     14  O   UNL     1       0.312  -2.552  -0.499  0.00  0.00    -0.244 OA
BRANCH  13  15
ATOM     15  O   UNL     1       0.671  -0.465  -1.174  0.00  0.00    -0.461 OA
BRANCH  15  17
ATOM     16  C   UNL     1      -0.019   1.526   0.010  0.00  0.00    +0.048 C 
ATOM     17  C   UNL     1       0.002  -0.004   0.002  0.00  0.00    +0.229 C 
ENDBRANCH  15  17
ENDBRANCH  13  15
ENDBRANCH   1  13
BRANCH   8  18
ATOM     18  C   UNL     1       4.420  -4.331  -7.734  0.00  0.00    +0.117 C 
ATOM     19  C   UNL     1       5.925  -4.238  -7.476  0.00  0.00    +0.027 C 
BRANCH  18  20
ATOM     20  S   UNL     1       3.913  -2.986  -8.840  0.00  0.00    -0.076 S 
BRANCH  20  21
ATOM     21  C   UNL     1       4.743  -3.342 -10.353  0.00  0.00    +0.174 A 
ATOM     22  N   UNL     1       5.532  -4.367 -10.573  0.00  0.00    -0.230 NA
ATOM     23  C   UNL     1       5.986  -4.316 -11.837  0.00  0.00    +0.131 A 
ATOM     24  C   UNL     1       5.468  -3.228 -12.431  0.00  0.00    +0.113 A 
ATOM     25  N   UNL     1       4.670  -2.602 -11.497  0.00  0.00    -0.295 N 
BRANCH  25  26
ATOM     26  C   UNL     1       3.928  -1.428 -11.685  0.00  0.00    +0.049 A 
ATOM     27  C   UNL     1       2.588  -1.386 -11.323  0.00  0.00    +0.027 A 
ATOM     28  C   UNL     1       1.859  -0.228 -11.509  0.00  0.00    +0.022 A 
ATOM     29  C   UNL     1       2.462   0.890 -12.058  0.00  0.00    +0.041 A 
ATOM     30  C   UNL     1       3.797   0.851 -12.421  0.00  0.00    +0.022 A 
ATOM     31  C   UNL     1       4.532  -0.303 -12.230  0.00  0.00    +0.027 A 
ATOM     32 CL   UNL     1       1.543   2.344 -12.292  0.00  0.00    -0.084 Cl
ENDBRANCH  25  26
ENDBRANCH  20  21
ENDBRANCH  18  20
ENDBRANCH   8  18
TORSDOF 7
