REMARK  Name = ZINC09395506
REMARK  9 active torsions:
REMARK  status: ('A' for Active; 'I' for Inactive)
REMARK    1  A    between atoms: C_3  and  N_29
REMARK    2  A    between atoms: C_5  and  O_7
REMARK    3  A    between atoms: O_7  and  C_8
REMARK    4  A    between atoms: C_8  and  C_9
REMARK    5  A    between atoms: C_9  and  C_11
REMARK    6  A    between atoms: C_9  and  O_28
REMARK    7  A    between atoms: C_11  and  N_52
REMARK    8  A    between atoms: N_14  and  S_17
REMARK    9  A    between atoms: S_17  and  C_20
REMARK                            x       y       z     vdW  Elec       q    Type
REMARK                         _______ _______ _______ _____ _____    ______ ____
ROOT
ATOM      1  C   UNL     1       1.205  10.038  -1.063  0.00  0.00    -0.061 C 
ATOM      2  C   UNL     1       0.727  11.472  -0.810  0.00  0.00    +0.091 C 
ATOM      3  N   UNL     1       1.851  12.250  -0.269  0.00  0.00    -0.180 NA
ATOM      4  C   UNL     1       2.585  11.704   0.883  0.00  0.00    +0.091 C 
ATOM      5  C   UNL     1       2.989  10.261   0.563  0.00  0.00    -0.061 C 
ATOM      6  N   UNL     1       1.777   9.500   0.190  0.00  0.00    +0.383 N 
ATOM      7  H   UNL     1       1.082   9.592   0.940  0.00  0.00    -0.082 HD
ENDROOT
BRANCH   3   8
ATOM      8  S   UNL     1       2.281  13.703  -0.939  0.00  0.00    +0.062 S 
ATOM      9  O   UNL     1       3.683  13.838  -0.750  0.00  0.00    -0.153 OA
ATOM     10  O   UNL     1       1.677  13.751  -2.224  0.00  0.00    -0.153 OA
BRANCH   8  11
ATOM     11  C   UNL     1       1.518  14.966   0.024  0.00  0.00    +0.125 A 
ATOM     12  C   UNL     1       2.297  15.834   0.766  0.00  0.00    +0.050 A 
ATOM     13  C   UNL     1       1.698  16.830   1.518  0.00  0.00    +0.043 A 
ATOM     14  C   UNL     1       0.320  16.950   1.535  0.00  0.00    +0.021 A 
ATOM     15  C   UNL     1      -0.459  16.078   0.797  0.00  0.00    +0.023 A 
ATOM     16  C   UNL     1       0.140  15.086   0.041  0.00  0.00    +0.067 A 
ATOM     17 CL   UNL     1      -0.838  13.991  -0.885  0.00  0.00    -0.082 Cl
ATOM     18 CL   UNL     1       2.676  17.924   2.445  0.00  0.00    -0.083 Cl
ENDBRANCH   8  11
ENDBRANCH   3   8
BRANCH   6  19
ATOM     19  C   UNL     1       2.112   8.071   0.018  0.00  0.00    -0.044 C 
BRANCH  19  20
ATOM     20  C   UNL     1       2.247   7.432   1.401  0.00  0.00    +0.135 C 
BRANCH  20  21
ATOM     21  O   UNL     1       1.014   7.568   2.111  0.00  0.00    -0.390 OA
ATOM     22  H   UNL     1       0.260   7.149   1.675  0.00  0.00    +0.210 HD
ENDBRANCH  20  21
BRANCH  20  23
ATOM     23  C   UNL     1       2.584   5.947   1.246  0.00  0.00    +0.258 C 
BRANCH  23  24
ATOM     24  O   UNL     1       2.824   5.376   2.534  0.00  0.00    -0.489 OA
BRANCH  24  29
ATOM     25  C   UNL     1       3.535   1.980   1.441  0.00  0.00    +0.006 A 
ATOM     26  C   UNL     1       3.779   1.365   2.655  0.00  0.00    +0.033 A 
ATOM     27  C   UNL     1       3.698   2.090   3.829  0.00  0.00    +0.130 A 
ATOM     28  C   UNL     1       3.384   3.436   3.791  0.00  0.00    +0.078 A 
ATOM     29  C   UNL     1       3.139   4.055   2.574  0.00  0.00    +0.123 A 
ATOM     30  C   UNL     1       3.215   3.323   1.398  0.00  0.00    +0.046 A 
BRANCH  27  31
ATOM     31  N   UNL     1       3.953   1.427   5.128  0.00  0.00    +0.057 N 
ATOM     32  O   UNL     1       4.234   0.243   5.162  0.00  0.00    -0.126 OA
ATOM     33  O   UNL     1       3.882   2.067   6.162  0.00  0.00    -0.126 OA
ENDBRANCH  27  31
ENDBRANCH  24  29
ENDBRANCH  23  24
ENDBRANCH  20  23
ENDBRANCH  19  20
ENDBRANCH   6  19
TORSDOF 9
