REMARK  Name = ZINC56170740
REMARK  10 active torsions:
REMARK  status: ('A' for Active; 'I' for Inactive)
REMARK    1  A    between atoms: C_1  and  C_2
REMARK    2  A    between atoms: C_5  and  O_27
REMARK    3  A    between atoms: C_6  and  N_8
REMARK    4  A    between atoms: C_9  and  C_11
REMARK    5  A    between atoms: C_11  and  C_13
REMARK    6  A    between atoms: C_11  and  N_19
REMARK    7  A    between atoms: N_19  and  C_20
REMARK    8  A    between atoms: C_20  and  C_21
REMARK    9  A    between atoms: C_24  and  C_26
REMARK   10  A    between atoms: O_27  and  C_28
REMARK                            x       y       z     vdW  Elec       q    Type
REMARK                         _______ _______ _______ _____ _____    ______ ____
ROOT
ATOM      1  C   UNL     1       0.279  -2.894   4.860  0.00  0.00    +0.172 C 
ENDROOT
BRANCH   1   2
ATOM      2  C   UNL     1      -0.928  -3.777   5.045  0.00  0.00    -0.022 A 
ATOM      3  C   UNL     1      -2.112  -3.241   5.514  0.00  0.00    +0.005 A 
ATOM      4  C   UNL     1      -3.219  -4.051   5.684  0.00  0.00    +0.000 A 
ATOM      5  C   UNL     1      -3.142  -5.398   5.383  0.00  0.00    +0.000 A 
ATOM      6  C   UNL     1      -1.958  -5.935   4.912  0.00  0.00    +0.000 A 
ATOM      7  C   UNL     1      -0.852  -5.123   4.739  0.00  0.00    +0.005 A 
ENDBRANCH   1   2
BRANCH   1   9
ATOM      8  N   UNL     1       0.050  -2.795   2.399  0.00  0.00    -0.281 N 
ATOM      9  C   UNL     1       0.149  -2.130   3.568  0.00  0.00    +0.239 C 
ATOM     10  O   UNL     1       0.134  -0.917   3.579  0.00  0.00    -0.273 OA
ATOM     11  H   UNL     1      -0.002  -3.763   2.395  0.00  0.00    +0.155 HD
BRANCH   8  17
ATOM     12  C   UNL     1      -1.308   1.189  -0.143  0.00  0.00    +0.044 C 
ATOM     13  C   UNL     1      -0.627  -0.153  -0.071  0.00  0.00    -0.048 A 
ATOM     14  C   UNL     1      -0.029  -0.685  -1.199  0.00  0.00    +0.007 A 
ATOM     15  C   UNL     1       0.596  -1.917  -1.139  0.00  0.00    +0.048 A 
ATOM     16  C   UNL     1       0.625  -2.622   0.054  0.00  0.00    +0.141 A 
ATOM     17  C   UNL     1       0.024  -2.086   1.191  0.00  0.00    +0.076 A 
ATOM     18  C   UNL     1      -0.597  -0.847   1.124  0.00  0.00    +0.030 A 
BRANCH  16  19
ATOM     19  O   UNL     1       1.239  -3.833   0.115  0.00  0.00    -0.493 OA
ATOM     20  C   UNL     1       1.834  -4.320  -1.090  0.00  0.00    +0.277 C 
ENDBRANCH  16  19
ENDBRANCH   8  17
ENDBRANCH   1   9
BRANCH   1  21
ATOM     21  N   UNL     1       0.369  -1.948   5.981  0.00  0.00    -0.298 NA
ATOM     22  H   UNL     1       0.819  -1.091   5.696  0.00  0.00    +0.123 HD
BRANCH  21  23
ATOM     23  C   UNL     1       1.065  -2.553   7.125  0.00  0.00    +0.124 C 
BRANCH  23  24
ATOM     24  C   UNL     1       1.138  -1.555   8.252  0.00  0.00    +0.004 A 
ATOM     25  C   UNL     1       0.263  -1.347   9.266  0.00  0.00    +0.013 A 
ATOM     26  C   UNL     1       0.539  -0.366  10.199  0.00  0.00    +0.011 A 
ATOM     27  C   UNL     1       1.677   0.361  10.072  0.00  0.00    -0.013 A 
ATOM     28  S   UNL     1       2.404  -0.346   8.603  0.00  0.00    -0.097 S 
ATOM     29  C   UNL     1       2.196   1.472  10.948  0.00  0.00    +0.051 C 
ENDBRANCH  23  24
ENDBRANCH  21  23
ENDBRANCH   1  21
TORSDOF 7
