REMARK  Name = ZINC41113646
REMARK  13 active torsions:
REMARK  status: ('A' for Active; 'I' for Inactive)
REMARK    1  A    between atoms: C_1  and  C_2
REMARK    2  A    between atoms: C_5  and  C_8
REMARK    3  A    between atoms: C_8  and  C_10
REMARK    4  A    between atoms: C_8  and  C_13
REMARK    5  A    between atoms: C_10  and  C_11
REMARK    6  A    between atoms: C_10  and  C_12
REMARK    7  A    between atoms: C_17  and  C_29
REMARK    8  A    between atoms: N_19  and  C_24
REMARK    9  A    between atoms: C_20  and  C_23
REMARK   10  A    between atoms: C_24  and  C_25
REMARK   11  A    between atoms: C_25  and  N_26
REMARK   12  A    between atoms: N_26  and  C_27
REMARK   13  A    between atoms: N_26  and  C_28
REMARK                            x       y       z     vdW  Elec       q    Type
REMARK                         _______ _______ _______ _____ _____    ______ ____
ROOT
ATOM      1  C   UNL     1      -1.522  -4.573   0.641  0.00  0.00    +0.223 C 
ATOM      2  O   UNL     1      -2.377  -3.798   1.012  0.00  0.00    -0.275 OA
ATOM      3  N   UNL     1      -1.591  -5.872   0.993  0.00  0.00    -0.298 N 
ATOM      4  C   UNL     1      -0.632  -6.851   0.458  0.00  0.00    +0.126 C 
ATOM      5  C   UNL     1      -0.032  -7.636   1.630  0.00  0.00    +0.071 C 
ATOM      6  N   UNL     1      -1.117  -8.207   2.440  0.00  0.00    -0.296 NA
ATOM      7  C   UNL     1      -1.947  -7.153   3.037  0.00  0.00    +0.071 C 
ATOM      8  C   UNL     1      -2.622  -6.348   1.928  0.00  0.00    +0.126 C 
ATOM      9  C   UNL     1      -3.014  -7.788   3.931  0.00  0.00    +0.026 C 
ATOM     10  C   UNL     1       0.811  -6.696   2.495  0.00  0.00    +0.026 C 
ENDROOT
BRANCH   1  11
ATOM     11  C   UNL     1      -0.382  -4.084  -0.214  0.00  0.00    +0.108 C 
BRANCH  11  16
ATOM     12  C   UNL     1      -1.984  -4.134  -5.766  0.00  0.00    +0.044 C 
ATOM     13  C   UNL     1      -1.566  -4.121  -4.319  0.00  0.00    -0.050 A 
ATOM     14  C   UNL     1      -0.487  -4.878  -3.904  0.00  0.00    +0.003 A 
ATOM     15  C   UNL     1      -0.104  -4.866  -2.576  0.00  0.00    +0.004 A 
ATOM     16  C   UNL     1      -0.799  -4.096  -1.663  0.00  0.00    -0.035 A 
ATOM     17  C   UNL     1      -1.878  -3.338  -2.077  0.00  0.00    +0.004 A 
ATOM     18  C   UNL     1      -2.259  -3.347  -3.406  0.00  0.00    +0.003 A 
ENDBRANCH  11  16
BRANCH  11  19
ATOM     19  C   UNL     1      -0.011  -2.658   0.197  0.00  0.00    -0.001 C 
ATOM     20  C   UNL     1       0.303  -2.625   1.694  0.00  0.00    +0.008 C 
ATOM     21  C   UNL     1       1.218  -2.202  -0.592  0.00  0.00    +0.008 C 
ENDBRANCH  11  19
ENDBRANCH   1  11
BRANCH   6  22
ATOM     22  C   UNL     1      -0.585  -9.107   3.472  0.00  0.00    +0.066 C 
BRANCH  22  23
ATOM     23  C   UNL     1       0.074 -10.315   2.805  0.00  0.00    -0.064 C 
BRANCH  23  24
ATOM     24  N   UNL     1       0.493 -11.275   3.835  0.00  0.00    +0.377 N 
ATOM     25  C   UNL     1       1.017 -12.487   3.190  0.00  0.00    -0.097 C 
ATOM     26  C   UNL     1       1.541 -10.672   4.669  0.00  0.00    -0.097 C 
ATOM     27  H   UNL     1      -0.299 -11.517   4.412  0.00  0.00    -0.083 HD
ENDBRANCH  23  24
ENDBRANCH  22  23
ENDBRANCH   6  22
TORSDOF 6
