REMARK  Name = ZINC19941619
REMARK  10 active torsions:
REMARK  status: ('A' for Active; 'I' for Inactive)
REMARK    1  A    between atoms: C_1  and  C_2
REMARK    2  A    between atoms: C_6  and  N_9
REMARK    3  A    between atoms: C_7  and  C_8
REMARK    4  A    between atoms: N_12  and  C_15
REMARK    5  A    between atoms: C_15  and  C_17
REMARK    6  A    between atoms: C_15  and  C_31
REMARK    7  A    between atoms: C_21  and  C_30
REMARK    8  A    between atoms: C_23  and  C_29
REMARK    9  A    between atoms: N_35  and  C_36
REMARK   10  A    between atoms: C_36  and  C_37
REMARK                            x       y       z     vdW  Elec       q    Type
REMARK                         _______ _______ _______ _____ _____    ______ ____
ROOT
ATOM      1  C   UNL     1       3.733   2.135  -0.020  0.00  0.00    +0.162 C 
ENDROOT
BRANCH   1   2
ATOM      2  C   UNL     1       2.358   1.523  -0.104  0.00  0.00    +0.042 A 
ATOM      3  C   UNL     1       1.265   2.322  -0.163  0.00  0.00    +0.021 A 
ATOM      4  C   UNL     1      -0.056   1.696  -0.243  0.00  0.00    -0.001 A 
ATOM      5  C   UNL     1      -1.221   2.469  -0.300  0.00  0.00    +0.013 A 
ATOM      6  C   UNL     1      -2.438   1.854  -0.379  0.00  0.00    -0.050 A 
ATOM      7  C   UNL     1      -2.530   0.469  -0.394  0.00  0.00    +0.008 A 
ATOM      8  C   UNL     1      -1.396  -0.312  -0.333  0.00  0.00    -0.026 A 
ATOM      9  C   UNL     1      -0.145   0.292  -0.257  0.00  0.00    +0.052 A 
ATOM     10  N   UNL     1       1.005  -0.465  -0.195  0.00  0.00    -0.322 N 
ATOM     11  H   UNL     1       0.943  -1.563  -0.206  0.00  0.00    +0.169 HD
ATOM     12  C   UNL     1       2.214   0.119  -0.121  0.00  0.00    +0.254 A 
ATOM     13  O   UNL     1       3.210  -0.581  -0.068  0.00  0.00    -0.268 OA
ATOM     14  C   UNL     1      -1.511  -1.815  -0.350  0.00  0.00    +0.046 C 
ATOM     15  C   UNL     1      -3.692   2.686  -0.445  0.00  0.00    +0.044 C 
ENDBRANCH   1   2
BRANCH   1  19
ATOM     16  N   UNL     1       6.232   1.745  -3.403  0.00  0.00    -0.327 N 
ATOM     17  C   UNL     1       4.863   1.220  -3.494  0.00  0.00    +0.120 C 
ATOM     18  C   UNL     1       3.997   1.870  -2.412  0.00  0.00    +0.104 C 
ATOM     19  N   UNL     1       4.578   1.591  -1.091  0.00  0.00    -0.286 NA
ATOM     20  C   UNL     1       5.947   2.116  -1.000  0.00  0.00    +0.104 C 
ATOM     21  C   UNL     1       6.813   1.467  -2.082  0.00  0.00    +0.120 C 
BRANCH  16  27
ATOM     22  C   UNL     1       9.087   2.497  -7.332  0.00  0.00    +0.044 C 
ATOM     23  C   UNL     1       8.432   1.570  -6.341  0.00  0.00    -0.046 A 
ATOM     24  C   UNL     1       8.627   0.204  -6.441  0.00  0.00    +0.004 A 
ATOM     25  C   UNL     1       8.029  -0.650  -5.533  0.00  0.00    +0.002 A 
ATOM     26  C   UNL     1       7.238  -0.142  -4.521  0.00  0.00    +0.023 A 
ATOM     27  C   UNL     1       7.036   1.228  -4.422  0.00  0.00    +0.033 A 
ATOM     28  C   UNL     1       7.638   2.084  -5.335  0.00  0.00    -0.027 A 
ATOM     29  C   UNL     1       7.427   3.572  -5.228  0.00  0.00    +0.046 C 
ENDBRANCH  16  27
ENDBRANCH   1  19
BRANCH   1  30
ATOM     30  C   UNL     1       4.347   1.810   1.318  0.00  0.00    +0.173 A 
ATOM     31  N   UNL     1       4.838   0.654   1.693  0.00  0.00    -0.111 NA
ATOM     32  N   UNL     1       5.269   0.779   2.901  0.00  0.00    -0.023 NA
ATOM     33  N   UNL     1       5.059   1.982   3.308  0.00  0.00    -0.044 NA
ATOM     34  N   UNL     1       4.492   2.649   2.360  0.00  0.00    -0.225 N 
BRANCH  34  35
ATOM     35  C   UNL     1       4.083   4.055   2.410  0.00  0.00    +0.179 C 
BRANCH  35  36
ATOM     36  C   UNL     1       2.645   4.150   2.925  0.00  0.00    +0.140 C 
ATOM     37  C   UNL     1       2.166   5.616   2.871  0.00  0.00    +0.035 C 
ATOM     38  C   UNL     1       1.347   5.743   4.185  0.00  0.00    +0.031 C 
ATOM     39  C   UNL     1       2.152   4.811   5.125  0.00  0.00    +0.160 C 
ATOM     40  O   UNL     1       2.589   3.725   4.291  0.00  0.00    -0.375 OA
ENDBRANCH  35  36
ENDBRANCH  34  35
ENDBRANCH   1  30
TORSDOF 6
