REMARK  Name = ZINC16927065
REMARK  10 active torsions:
REMARK  status: ('A' for Active; 'I' for Inactive)
REMARK    1  A    between atoms: C_1  and  C_2
REMARK    2  A    between atoms: C_2  and  C_4
REMARK    3  A    between atoms: C_2  and  S_16
REMARK    4  A    between atoms: N_6  and  C_7
REMARK    5  A    between atoms: C_12  and  C_13
REMARK    6  A    between atoms: C_13  and  C_14
REMARK    7  A    between atoms: C_13  and  C_15
REMARK    8  A    between atoms: S_16  and  C_17
REMARK    9  A    between atoms: N_30  and  C_31
REMARK   10  A    between atoms: C_31  and  C_32
REMARK                            x       y       z     vdW  Elec       q    Type
REMARK                         _______ _______ _______ _____ _____    ______ ____
ROOT
ATOM      1  C   UNL     1      -2.333  -0.144   1.581  0.00  0.00    +0.198 A 
ATOM      2  N   UNL     1      -1.684   0.539   2.492  0.00  0.00    -0.120 NA
ATOM      3  N   UNL     1      -2.541   0.735   3.581  0.00  0.00    -0.109 NA
ATOM      4  C   UNL     1      -3.692   0.165   3.303  0.00  0.00    +0.240 A 
ATOM      5  N   UNL     1      -3.594  -0.389   2.056  0.00  0.00    -0.256 N 
ATOM      6  C   UNL     1      -4.676  -1.062   1.492  0.00  0.00    +0.064 A 
ATOM      7  C   UNL     1      -4.585  -1.630   0.231  0.00  0.00    +0.027 A 
ATOM      8  C   UNL     1      -5.673  -2.292  -0.305  0.00  0.00    +0.002 A 
ATOM      9  C   UNL     1      -6.857  -2.394   0.408  0.00  0.00    +0.001 A 
ATOM     10  C   UNL     1      -6.965  -1.835   1.664  0.00  0.00    +0.015 A 
ATOM     11  C   UNL     1      -5.874  -1.165   2.215  0.00  0.00    +0.064 A 
ATOM     12  C   UNL     1      -5.948  -0.554   3.555  0.00  0.00    +0.263 A 
ATOM     13  O   UNL     1      -6.970  -0.623   4.211  0.00  0.00    -0.267 OA
ATOM     14  N   UNL     1      -4.860   0.075   4.045  0.00  0.00    -0.272 N 
ENDROOT
BRANCH   1  15
ATOM     15  S   UNL     1      -1.698  -0.652   0.018  0.00  0.00    -0.073 S 
BRANCH  15  17
ATOM     16  C   UNL     1      -0.021   1.509   0.031  0.00  0.00    +0.029 C 
ATOM     17  C   UNL     1       0.003  -0.020   0.010  0.00  0.00    +0.137 C 
BRANCH  17  18
ATOM     18  C   UNL     1       0.708  -0.495  -1.235  0.00  0.00    +0.230 C 
ATOM     19  O   UNL     1       0.067  -0.779  -2.224  0.00  0.00    -0.274 OA
ATOM     20  N   UNL     1       2.051  -0.602  -1.248  0.00  0.00    -0.284 N 
ATOM     21  H   UNL     1       2.570  -0.300  -0.486  0.00  0.00    +0.155 HD
BRANCH  20  22
ATOM     22  C   UNL     1       2.698  -1.151  -2.361  0.00  0.00    +0.037 A 
ATOM     23  C   UNL     1       2.021  -2.030  -3.196  0.00  0.00    +0.023 A 
ATOM     24  C   UNL     1       2.662  -2.570  -4.294  0.00  0.00    +0.002 A 
ATOM     25  C   UNL     1       3.977  -2.235  -4.562  0.00  0.00    +0.000 A 
ATOM     26  C   UNL     1       4.654  -1.361  -3.732  0.00  0.00    +0.006 A 
ATOM     27  C   UNL     1       4.016  -0.812  -2.636  0.00  0.00    -0.024 A 
BRANCH  27  28
ATOM     28  C   UNL     1       4.753   0.146  -1.737  0.00  0.00    +0.015 C 
ATOM     29  C   UNL     1       6.045  -0.507  -1.244  0.00  0.00    +0.012 C 
ATOM     30  C   UNL     1       5.090   1.420  -2.515  0.00  0.00    +0.012 C 
ENDBRANCH  27  28
ENDBRANCH  20  22
ENDBRANCH  17  18
ENDBRANCH  15  17
ENDBRANCH   1  15
BRANCH  14  31
ATOM     31  C   UNL     1      -4.920   0.689   5.374  0.00  0.00    +0.163 C 
BRANCH  31  32
ATOM     32  C   UNL     1      -5.401   2.112   5.249  0.00  0.00    -0.028 A 
ATOM     33  C   UNL     1      -4.491   3.136   5.064  0.00  0.00    +0.005 A 
ATOM     34  C   UNL     1      -4.933   4.441   4.950  0.00  0.00    +0.000 A 
ATOM     35  C   UNL     1      -6.285   4.721   5.019  0.00  0.00    +0.000 A 
ATOM     36  C   UNL     1      -7.195   3.697   5.203  0.00  0.00    +0.000 A 
ATOM     37  C   UNL     1      -6.753   2.392   5.313  0.00  0.00    +0.005 A 
ENDBRANCH  31  32
ENDBRANCH  14  31
TORSDOF 7
