REMARK  Name = ZINC02642256
REMARK  8 active torsions:
REMARK  status: ('A' for Active; 'I' for Inactive)
REMARK    1  A    between atoms: C_1  and  C_2
REMARK    2  A    between atoms: C_6  and  N_9
REMARK    3  A    between atoms: C_10  and  C_12
REMARK    4  A    between atoms: C_12  and  S_13
REMARK    5  A    between atoms: S_13  and  C_14
REMARK    6  A    between atoms: C_17  and  C_26
REMARK    7  A    between atoms: N_18  and  C_19
REMARK    8  A    between atoms: C_19  and  C_20
REMARK                            x       y       z     vdW  Elec       q    Type
REMARK                         _______ _______ _______ _____ _____    ______ ____
ROOT
ATOM      1  C   UNL     1       0.775  -4.461   1.550  0.00  0.00    +0.192 A 
ATOM      2  N   UNL     1      -0.130  -4.336   0.605  0.00  0.00    -0.122 NA
ATOM      3  N   UNL     1      -0.510  -3.112   0.518  0.00  0.00    -0.128 NA
ATOM      4  C   UNL     1       0.128  -2.380   1.402  0.00  0.00    +0.165 A 
ATOM      5  N   UNL     1       0.975  -3.221   2.086  0.00  0.00    -0.300 N 
ENDROOT
BRANCH   4   6
ATOM      6  C   UNL     1      -0.029  -0.926   1.616  0.00  0.00    +0.019 A 
ATOM      7  C   UNL     1      -0.604  -0.129   0.625  0.00  0.00    +0.013 A 
ATOM      8  C   UNL     1      -0.748   1.227   0.831  0.00  0.00    +0.021 A 
ATOM      9  C   UNL     1      -0.323   1.799   2.018  0.00  0.00    +0.041 A 
ATOM     10  C   UNL     1       0.249   1.014   3.006  0.00  0.00    +0.021 A 
ATOM     11  C   UNL     1       0.398  -0.344   2.811  0.00  0.00    +0.013 A 
ATOM     12 CL   UNL     1      -0.507   3.506   2.271  0.00  0.00    -0.084 Cl
ENDBRANCH   4   6
BRANCH   1  13
ATOM     13  S   UNL     1       1.585  -5.950   2.031  0.00  0.00    -0.077 S 
BRANCH  13  14
ATOM     14  C   UNL     1       0.808  -7.115   0.884  0.00  0.00    +0.173 C 
BRANCH  14  16
ATOM     15  N   UNL     1       0.928  -9.533   0.373  0.00  0.00    -0.282 N 
ATOM     16  C   UNL     1       1.363  -8.497   1.117  0.00  0.00    +0.228 C 
ATOM     17  O   UNL     1       2.201  -8.676   1.975  0.00  0.00    -0.275 OA
ATOM     18  H   UNL     1       0.314  -9.378  -0.361  0.00  0.00    +0.155 HD
BRANCH  15  24
ATOM     19  C   UNL     1      -0.128 -14.268   1.184  0.00  0.00    +0.045 C 
ATOM     20  C   UNL     1       0.871 -13.147   1.060  0.00  0.00    -0.030 A 
ATOM     21  C   UNL     1       2.220 -13.402   1.230  0.00  0.00    +0.006 A 
ATOM     22  C   UNL     1       3.140 -12.377   1.117  0.00  0.00    +0.022 A 
ATOM     23  C   UNL     1       2.716 -11.093   0.828  0.00  0.00    +0.064 A 
ATOM     24  C   UNL     1       1.362 -10.832   0.661  0.00  0.00    +0.071 A 
ATOM     25  C   UNL     1       0.439 -11.866   0.775  0.00  0.00    +0.066 A 
ATOM     26 CL   UNL     1      -1.254 -11.546   0.561  0.00  0.00    -0.081 Cl
ATOM     27 CL   UNL     1       3.873  -9.808   0.680  0.00  0.00    -0.082 Cl
ENDBRANCH  15  24
ENDBRANCH  14  16
ENDBRANCH  13  14
ENDBRANCH   1  13
BRANCH   5  28
ATOM     28  C   UNL     1       1.897  -2.862   3.166  0.00  0.00    +0.157 C 
BRANCH  28  29
ATOM     29  C   UNL     1       1.192  -3.025   4.514  0.00  0.00    +0.138 C 
ATOM     30  C   UNL     1       2.117  -2.539   5.651  0.00  0.00    +0.035 C 
ATOM     31  C   UNL     1       1.846  -3.586   6.766  0.00  0.00    +0.031 C 
ATOM     32  C   UNL     1       1.605  -4.861   5.920  0.00  0.00    +0.160 C 
ATOM     33  O   UNL     1       0.908  -4.409   4.749  0.00  0.00    -0.375 OA
ENDBRANCH  28  29
ENDBRANCH   5  28
TORSDOF 7
