REMARK  Name = ZINC44730042
REMARK  6 active torsions:
REMARK  status: ('A' for Active; 'I' for Inactive)
REMARK    1  A    between atoms: C_1  and  C_2
REMARK    2  A    between atoms: C_4  and  C_8
REMARK    3  A    between atoms: C_5  and  C_7
REMARK    4  A    between atoms: C_8  and  C_10
REMARK    5  A    between atoms: C_8  and  N_11
REMARK    6  A    between atoms: N_11  and  C_12
REMARK                            x       y       z     vdW  Elec       q    Type
REMARK                         _______ _______ _______ _____ _____    ______ ____
ROOT
ATOM      1  N   UNL     1      -2.801  -3.072   0.487  0.00  0.00    +0.394 N 
ATOM      2  H   UNL     1      -3.322  -2.428  -0.089  0.00  0.00    -0.083 HD
ATOM      3  H   UNL     1      -3.273  -3.964   0.505  0.00  0.00    -0.083 HD
ENDROOT
BRANCH   1   4
ATOM      4  C   UNL     1      -2.708  -2.540   1.853  0.00  0.00    +0.050 C 
ATOM      5  C   UNL     1      -4.086  -2.324   2.434  0.00  0.00    -0.031 A 
ATOM      6  C   UNL     1      -5.144  -1.526   2.061  0.00  0.00    +0.006 A 
ATOM      7  C   UNL     1      -6.312  -1.536   2.803  0.00  0.00    +0.020 A 
ATOM      8  C   UNL     1      -6.412  -2.351   3.918  0.00  0.00    +0.043 A 
ATOM      9  C   UNL     1      -5.352  -3.152   4.293  0.00  0.00    +0.043 A 
ATOM     10  C   UNL     1      -4.173  -3.146   3.550  0.00  0.00    +0.037 A 
ATOM     11  N   UNL     1      -2.983  -3.853   3.723  0.00  0.00    -0.286 N 
ATOM     12  C   UNL     1      -2.072  -3.558   2.776  0.00  0.00    +0.208 C 
ATOM     13  O   UNL     1      -0.954  -4.019   2.679  0.00  0.00    -0.277 OA
ATOM     14 CL   UNL     1      -7.876  -2.364   4.850  0.00  0.00    -0.083 Cl
ATOM     15  H   UNL     1      -2.829  -4.485   4.443  0.00  0.00    +0.155 HD
ENDBRANCH   1   4
BRANCH   1  16
ATOM     16  C   UNL     1      -1.451  -3.243  -0.066  0.00  0.00    -0.039 C 
ATOM     17  C   UNL     1      -1.542  -3.934  -1.428  0.00  0.00    -0.009 C 
BRANCH  16  21
ATOM     18  C   UNL     1      -0.733   1.776  -0.556  0.00  0.00    +0.086 C 
ATOM     19  C   UNL     1      -0.502   0.292  -0.441  0.00  0.00    +0.102 A 
ATOM     20  C   UNL     1      -1.458  -0.644  -0.294  0.00  0.00    +0.046 A 
ATOM     21  C   UNL     1      -0.800  -1.894  -0.229  0.00  0.00    -0.021 A 
ATOM     22  C   UNL     1       0.517  -1.648  -0.340  0.00  0.00    +0.104 A 
ATOM     23  O   UNL     1       0.692  -0.323  -0.473  0.00  0.00    -0.465 OA
ATOM     24  C   UNL     1       1.612  -2.683  -0.322  0.00  0.00    +0.086 C 
ENDBRANCH  16  21
ENDBRANCH   1  16
TORSDOF 3
