REMARK  Name = ZINC20386552
REMARK  9 active torsions:
REMARK  status: ('A' for Active; 'I' for Inactive)
REMARK    1  A    between atoms: C_1  and  C_2
REMARK    2  A    between atoms: C_2  and  C_3
REMARK    3  A    between atoms: C_3  and  C_5
REMARK    4  A    between atoms: C_3  and  N_21
REMARK    5  A    between atoms: C_9  and  N_10
REMARK    6  A    between atoms: N_16  and  C_19
REMARK    7  A    between atoms: C_19  and  C_20
REMARK    8  A    between atoms: N_24  and  C_25
REMARK    9  A    between atoms: C_29  and  C_31
REMARK                            x       y       z     vdW  Elec       q    Type
REMARK                         _______ _______ _______ _____ _____    ______ ____
ROOT
ATOM      1  C   UNL     1       1.044  -0.933  -0.157  0.00  0.00    +0.107 C 
ENDROOT
BRANCH   1   2
ATOM      2  C   UNL     1      -0.385  -0.998   0.317  0.00  0.00    +0.007 A 
ATOM      3  C   UNL     1      -0.763  -1.943   1.268  0.00  0.00    -0.034 A 
ATOM      4  C   UNL     1      -2.072  -1.942   1.644  0.00  0.00    -0.021 A 
ATOM      5  S   UNL     1      -2.787  -0.632   0.690  0.00  0.00    -0.077 S 
ATOM      6  C   UNL     1      -1.308  -0.131  -0.178  0.00  0.00    +0.090 A 
ATOM      7  C   UNL     1      -2.720  -2.851   2.636  0.00  0.00    -0.035 C 
ATOM      8  N   UNL     1      -1.805  -3.981   2.891  0.00  0.00    +0.383 N 
ATOM      9  C   UNL     1      -0.447  -3.494   3.172  0.00  0.00    -0.074 C 
ATOM     10  C   UNL     1       0.196  -2.952   1.893  0.00  0.00    +0.018 C 
ATOM     11  H   UNL     1      -1.763  -4.605   1.986  0.00  0.00    -0.081 HD
BRANCH   6  12
ATOM     12  N   UNL     1      -1.143   0.888  -1.124  0.00  0.00    -0.317 N 
ATOM     13  C   UNL     1      -0.226   1.897  -1.054  0.00  0.00    +0.092 A 
ATOM     14  C   UNL     1      -0.372   2.675  -2.147  0.00  0.00    +0.019 A 
ATOM     15  C   UNL     1      -1.422   2.133  -2.914  0.00  0.00    +0.019 A 
ATOM     16  C   UNL     1      -1.875   1.041  -2.266  0.00  0.00    +0.092 A 
ENDBRANCH   6  12
BRANCH   8  17
ATOM     17  C   UNL     1      -2.300  -4.822   3.989  0.00  0.00    -0.082 C 
ATOM     18  C   UNL     1      -2.269  -4.026   5.295  0.00  0.00    -0.017 C 
ENDBRANCH   8  17
ENDBRANCH   1   2
BRANCH   1  19
ATOM     19  N   UNL     1       1.500  -2.276  -0.522  0.00  0.00    -0.292 N 
ATOM     20  C   UNL     1       1.597  -2.625  -1.820  0.00  0.00    +0.304 C 
ATOM     21  O   UNL     1       1.306  -1.825  -2.688  0.00  0.00    -0.252 OA
ATOM     22  N   UNL     1       2.016  -3.861  -2.156  0.00  0.00    -0.269 N 
ATOM     23  H   UNL     1       1.762  -3.001   0.263  0.00  0.00    +0.151 HD
ATOM     24  H   UNL     1       2.376  -4.550  -1.378  0.00  0.00    +0.156 HD
BRANCH  22  25
ATOM     25  C   UNL     1       1.992  -4.269  -3.495  0.00  0.00    +0.035 A 
ATOM     26  C   UNL     1       1.106  -3.678  -4.386  0.00  0.00    +0.024 A 
ATOM     27  C   UNL     1       1.088  -4.077  -5.708  0.00  0.00    +0.017 A 
ATOM     28  C   UNL     1       1.945  -5.074  -6.142  0.00  0.00    +0.021 A 
ATOM     29  C   UNL     1       2.825  -5.668  -5.255  0.00  0.00    -0.035 A 
ATOM     30  C   UNL     1       2.850  -5.268  -3.933  0.00  0.00    +0.027 A 
ATOM     31  C   UNL     1       3.757  -6.752  -5.732  0.00  0.00    +0.045 C 
ATOM     32 BR   UNL     1       1.913  -5.623  -7.951  0.00  0.00    -0.050 Br
ENDBRANCH  22  25
ENDBRANCH   1  19
BRANCH   1  34
ATOM     33  C   UNL     1       3.356  -0.198   0.444  0.00  0.00    +0.006 C 
ATOM     34  C   UNL     1       1.929  -0.382   0.964  0.00  0.00    +0.024 C 
ENDBRANCH   1  34
TORSDOF 6
