REMARK  Name = ZINC21775232
REMARK  12 active torsions:
REMARK  status: ('A' for Active; 'I' for Inactive)
REMARK    1  A    between atoms: C_1  and  C_2
REMARK    2  A    between atoms: C_4  and  C_35
REMARK    3  A    between atoms: C_5  and  C_34
REMARK    4  A    between atoms: C_6  and  S_9
REMARK    5  A    between atoms: C_7  and  C_8
REMARK    6  A    between atoms: S_9  and  N_12
REMARK    7  A    between atoms: N_12  and  C_13
REMARK    8  A    between atoms: C_13  and  C_14
REMARK    9  A    between atoms: C_14  and  C_16
REMARK   10  A    between atoms: C_14  and  N_27
REMARK   11  A    between atoms: N_25  and  C_26
REMARK   12  A    between atoms: N_30  and  C_33
REMARK                            x       y       z     vdW  Elec       q    Type
REMARK                         _______ _______ _______ _____ _____    ______ ____
ROOT
ATOM      1  C   UNL     1       2.406  -1.425   4.793  0.00  0.00    +0.102 C 
ENDROOT
BRANCH   1   2
ATOM      2  C   UNL     1       1.743  -0.272   4.085  0.00  0.00    -0.029 A 
ATOM      3  C   UNL     1       0.462  -0.413   3.581  0.00  0.00    +0.007 A 
ATOM      4  C   UNL     1      -0.141   0.642   2.931  0.00  0.00    +0.024 A 
ATOM      5  C   UNL     1       0.532   1.855   2.776  0.00  0.00    +0.033 A 
ATOM      6  C   UNL     1       1.811   1.992   3.286  0.00  0.00    -0.026 A 
ATOM      7  C   UNL     1       2.412   0.926   3.937  0.00  0.00    +0.010 A 
ATOM      8  C   UNL     1       2.586   3.280   3.167  0.00  0.00    +0.038 C 
ATOM      9  C   UNL     1       1.933   4.178   2.113  0.00  0.00    +0.024 C 
ATOM     10  C   UNL     1       0.424   4.206   2.386  0.00  0.00    +0.105 C 
ATOM     11  N   UNL     1      -0.129   2.881   2.102  0.00  0.00    -0.333 N 
ATOM     12  C   UNL     1      -1.572   2.843   2.372  0.00  0.00    +0.129 C 
ENDBRANCH   1   2
BRANCH   1  13
ATOM     13  N   UNL     1       2.646  -2.514   3.837  0.00  0.00    -0.298 NA
ATOM     14  C   UNL     1       3.045  -1.985   2.525  0.00  0.00    +0.066 C 
ATOM     15  C   UNL     1       3.362  -3.149   1.583  0.00  0.00    -0.064 C 
ATOM     16  N   UNL     1       2.180  -4.014   1.462  0.00  0.00    +0.379 N 
ATOM     17  C   UNL     1       1.782  -4.543   2.774  0.00  0.00    -0.064 C 
ATOM     18  C   UNL     1       1.464  -3.379   3.716  0.00  0.00    +0.066 C 
ATOM     19  C   UNL     1       2.420  -5.103   0.506  0.00  0.00    -0.096 C 
ATOM     20  H   UNL     1       1.350  -3.403   1.076  0.00  0.00    -0.082 HD
ENDBRANCH   1  13
BRANCH   1  21
ATOM     21  C   UNL     1       1.496  -1.925   5.917  0.00  0.00    +0.129 C 
BRANCH  21  22
ATOM     22  N   UNL     1       2.175  -2.991   6.657  0.00  0.00    -0.188 NA
ATOM     23  H   UNL     1       2.864  -3.671   6.134  0.00  0.00    +0.148 HD
BRANCH  22  24
ATOM     24  S   UNL     1       1.725  -3.334   8.213  0.00  0.00    +0.059 S 
ATOM     25  O   UNL     1       2.539  -4.418   8.642  0.00  0.00    -0.153 OA
ATOM     26  O   UNL     1       1.682  -2.095   8.906  0.00  0.00    -0.153 OA
BRANCH  24  32
ATOM     27  C   UNL     1      -1.731  -7.255   8.203  0.00  0.00    +0.044 C 
ATOM     28  C   UNL     1      -1.468  -5.772   8.155  0.00  0.00    -0.045 A 
ATOM     29  C   UNL     1      -2.525  -4.885   8.068  0.00  0.00    +0.007 A 
ATOM     30  C   UNL     1      -2.284  -3.525   8.025  0.00  0.00    -0.045 A 
ATOM     31  C   UNL     1      -0.986  -3.051   8.069  0.00  0.00    -0.021 A 
ATOM     32  C   UNL     1       0.071  -3.938   8.157  0.00  0.00    +0.112 A 
ATOM     33  C   UNL     1      -0.170  -5.299   8.195  0.00  0.00    -0.021 A 
ATOM     34  C   UNL     1       0.982  -6.266   8.285  0.00  0.00    +0.046 C 
ATOM     35  C   UNL     1      -0.723  -1.568   8.022  0.00  0.00    +0.046 C 
ATOM     36  C   UNL     1      -3.436  -2.558   7.929  0.00  0.00    +0.044 C 
ENDBRANCH  24  32
ENDBRANCH  22  24
ENDBRANCH  21  22
ENDBRANCH   1  21
TORSDOF 6
