REMARK  Name = ZINC08985609
REMARK  8 active torsions:
REMARK  status: ('A' for Active; 'I' for Inactive)
REMARK    1  A    between atoms: C_1  and  C_2
REMARK    2  A    between atoms: C_2  and  C_4
REMARK    3  A    between atoms: C_2  and  S_15
REMARK    4  A    between atoms: N_6  and  C_7
REMARK    5  A    between atoms: C_12  and  C_13
REMARK    6  A    between atoms: S_15  and  C_16
REMARK    7  A    between atoms: C_19  and  C_22
REMARK    8  A    between atoms: N_20  and  N_21
REMARK                            x       y       z     vdW  Elec       q    Type
REMARK                         _______ _______ _______ _____ _____    ______ ____
ROOT
ATOM      1  S   UNL     1      -0.015   1.754   0.033  0.00  0.00    -0.072 S 
ENDROOT
BRANCH   1   2
ATOM      2  C   UNL     1       0.014  -0.008   0.035  0.00  0.00    +0.209 A 
ATOM      3  N   UNL     1       1.082  -0.771   0.019  0.00  0.00    -0.121 NA
ATOM      4  N   UNL     1       0.735  -2.009   0.029  0.00  0.00    -0.132 NA
ATOM      5  C   UNL     1      -0.565  -2.108   0.044  0.00  0.00    +0.154 A 
ATOM      6  N   UNL     1      -1.070  -0.838   0.049  0.00  0.00    -0.228 N 
BRANCH   5   7
ATOM      7  C   UNL     1      -1.362  -3.387   0.055  0.00  0.00    +0.059 C 
ATOM      8  C   UNL     1      -1.006  -4.200   1.301  0.00  0.00    +0.011 C 
ATOM      9  C   UNL     1      -1.815  -5.498   1.312  0.00  0.00    +0.001 C 
ATOM     10  C   UNL     1      -1.488  -6.314   0.059  0.00  0.00    +0.000 C 
ATOM     11  C   UNL     1      -1.844  -5.501  -1.187  0.00  0.00    +0.001 C 
ATOM     12  C   UNL     1      -1.035  -4.203  -1.198  0.00  0.00    +0.011 C 
ENDBRANCH   5   7
BRANCH   6  13
ATOM     13  N   UNL     1      -2.387  -0.474   0.064  0.00  0.00    -0.295 N 
ATOM     14  H   UNL     1      -2.746  -0.378  -0.874  0.00  0.00    +0.163 HD
ATOM     15  H   UNL     1      -2.937  -1.130   0.597  0.00  0.00    +0.163 HD
ENDBRANCH   6  13
ENDBRANCH   1   2
BRANCH   1  17
ATOM     16  C   UNL     1       2.394   1.597   1.313  0.00  0.00    +0.029 C 
ATOM     17  C   UNL     1       1.763   2.097   0.012  0.00  0.00    +0.137 C 
BRANCH  17  18
ATOM     18  C   UNL     1       1.986   3.582  -0.116  0.00  0.00    +0.230 C 
ATOM     19  O   UNL     1       1.132   4.358   0.257  0.00  0.00    -0.274 OA
ATOM     20  N   UNL     1       3.135   4.047  -0.646  0.00  0.00    -0.284 N 
ATOM     21  H   UNL     1       3.844   3.430  -0.884  0.00  0.00    +0.155 HD
BRANCH  20  22
ATOM     22  C   UNL     1       3.303   5.415  -0.852  0.00  0.00    +0.051 A 
ATOM     23  C   UNL     1       2.750   6.328   0.036  0.00  0.00    +0.024 A 
ATOM     24  C   UNL     1       2.922   7.682  -0.167  0.00  0.00    +0.002 A 
ATOM     25  C   UNL     1       3.638   8.142  -1.260  0.00  0.00    +0.001 A 
ATOM     26  C   UNL     1       4.189   7.251  -2.156  0.00  0.00    +0.021 A 
ATOM     27  C   UNL     1       4.028   5.878  -1.961  0.00  0.00    +0.073 A 
BRANCH  27  28
ATOM     28  C   UNL     1       4.598   4.947  -2.887  0.00  0.00    +0.101 C 
ATOM     29  N   UNL     1       5.051   4.208  -3.622  0.00  0.00    -0.191 NA
ENDBRANCH  27  28
ENDBRANCH  20  22
ENDBRANCH  17  18
ENDBRANCH   1  17
TORSDOF 7
