REMARK  Name = ZINC17072194
REMARK  6 active torsions:
REMARK  status: ('A' for Active; 'I' for Inactive)
REMARK    1  A    between atoms: C_1  and  C_2
REMARK    2  A    between atoms: C_2  and  N_3
REMARK    3  A    between atoms: C_5  and  C_9
REMARK    4  A    between atoms: C_6  and  C_8
REMARK    5  A    between atoms: N_10  and  N_11
REMARK    6  A    between atoms: C_12  and  C_14
REMARK                            x       y       z     vdW  Elec       q    Type
REMARK                         _______ _______ _______ _____ _____    ______ ____
ROOT
ATOM      1  N   UNL     1      -1.228  -0.507  -0.685  0.00  0.00    -0.202 N 
ATOM      2  C   UNL     1      -1.244  -1.810  -1.030  0.00  0.00    +0.271 C 
ATOM      3  O   UNL     1      -0.197  -2.417  -1.164  0.00  0.00    -0.268 OA
ATOM      4  H   UNL     1      -2.057  -0.005  -0.648  0.00  0.00    +0.178 HD
ENDROOT
BRANCH   2   5
ATOM      5  C   UNL     1      -2.523  -2.497  -1.245  0.00  0.00    +0.095 A 
ATOM      6  C   UNL     1      -2.746  -3.817  -1.492  0.00  0.00    +0.068 A 
ATOM      7  C   UNL     1      -4.062  -4.285  -1.668  0.00  0.00    +0.008 A 
ATOM      8  C   UNL     1      -4.495  -5.610  -1.927  0.00  0.00    +0.010 A 
ATOM      9  C   UNL     1      -5.815  -5.893  -2.076  0.00  0.00    +0.001 A 
ATOM     10  C   UNL     1      -6.787  -4.905  -1.982  0.00  0.00    +0.001 A 
ATOM     11  C   UNL     1      -6.409  -3.601  -1.731  0.00  0.00    +0.016 A 
ATOM     12  C   UNL     1      -5.073  -3.299  -1.577  0.00  0.00    +0.021 A 
ATOM     13  S   UNL     1      -4.168  -1.806  -1.253  0.00  0.00    -0.082 S 
ATOM     14 CL   UNL     1      -1.410  -4.921  -1.587  0.00  0.00    -0.082 Cl
ENDBRANCH   2   5
BRANCH   1  16
ATOM     15  C   UNL     1      -0.006   1.358   0.017  0.00  0.00    +0.141 C 
ATOM     16  N   UNL     1      -0.014   0.122  -0.379  0.00  0.00    -0.187 NA
BRANCH  15  19
ATOM     17  N   UNL     1      -3.359   2.418   0.915  0.00  0.00    -0.271 N 
ATOM     18  C   UNL     1      -2.449   1.441   0.733  0.00  0.00    +0.118 A 
ATOM     19  C   UNL     1      -1.275   2.041   0.329  0.00  0.00    +0.035 A 
ATOM     20  C   UNL     1      -1.516   3.431   0.265  0.00  0.00    +0.069 A 
ATOM     21  N   UNL     1      -2.756   3.645   0.614  0.00  0.00    -0.176 NA
ATOM     22  C   UNL     1      -0.516   4.484  -0.136  0.00  0.00    +0.068 C 
BRANCH  17  24
ATOM     23  C   UNL     1      -5.018   3.089   2.582  0.00  0.00    +0.029 C 
ATOM     24  C   UNL     1      -4.746   2.228   1.347  0.00  0.00    +0.140 C 
ENDBRANCH  17  24
ENDBRANCH  15  19
ENDBRANCH   1  16
TORSDOF 4
