REMARK  Name = ZINC08687986
REMARK  9 active torsions:
REMARK  status: ('A' for Active; 'I' for Inactive)
REMARK    1  A    between atoms: C_1  and  C_2
REMARK    2  A    between atoms: C_5  and  S_23
REMARK    3  A    between atoms: C_7  and  N_8
REMARK    4  A    between atoms: N_10  and  C_11
REMARK    5  A    between atoms: C_16  and  C_21
REMARK    6  A    between atoms: C_18  and  C_20
REMARK    7  A    between atoms: S_23  and  N_26
REMARK    8  A    between atoms: N_26  and  C_27
REMARK    9  A    between atoms: N_26  and  C_28
REMARK                            x       y       z     vdW  Elec       q    Type
REMARK                         _______ _______ _______ _____ _____    ______ ____
ROOT
ATOM      1  N   UNL     1       0.025  -0.015   2.417  0.00  0.00    -0.295 N 
ATOM      2  C   UNL     1      -0.058  -0.705   3.595  0.00  0.00    +0.143 C 
ATOM      3  N   UNL     1      -0.160  -0.028   4.778  0.00  0.00    -0.364 N 
ATOM      4  S   UNL     1      -0.035  -2.365   3.588  0.00  0.00    -0.016 SA
ATOM      5  H   UNL     1      -0.568   0.735   2.251  0.00  0.00    +0.154 HD
ATOM      6  H   UNL     1      -0.173   0.942   4.782  0.00  0.00    +0.162 HD
ENDROOT
BRANCH   3   7
ATOM      7  C   UNL     1      -0.248  -0.767   6.040  0.00  0.00    +0.084 C 
ATOM      8  C   UNL     1      -1.705  -1.152   6.304  0.00  0.00    +0.025 C 
ATOM      9  C   UNL     1      -2.559   0.114   6.394  0.00  0.00    +0.002 C 
ATOM     10  C   UNL     1      -2.049   0.994   7.537  0.00  0.00    +0.004 C 
ATOM     11  C   UNL     1      -0.592   1.379   7.272  0.00  0.00    -0.009 C 
ATOM     12  C   UNL     1       0.262   0.113   7.183  0.00  0.00    +0.011 C 
ATOM     13  C   UNL     1       1.719   0.498   6.918  0.00  0.00    +0.010 C 
ATOM     14  C   UNL     1      -0.081   2.259   8.415  0.00  0.00    +0.008 C 
ENDBRANCH   3   7
BRANCH   1  21
ATOM     15  C   UNL     1      -0.100   1.235  -0.136  0.00  0.00    +0.045 C 
ATOM     16  C   UNL     1       0.938   0.194   0.191  0.00  0.00    -0.029 A 
ATOM     17  C   UNL     1       1.870  -0.176  -0.759  0.00  0.00    +0.007 A 
ATOM     18  C   UNL     1       2.824  -1.132  -0.460  0.00  0.00    +0.029 A 
ATOM     19  C   UNL     1       2.848  -1.720   0.792  0.00  0.00    +0.107 A 
ATOM     20  C   UNL     1       1.919  -1.355   1.746  0.00  0.00    +0.052 A 
ATOM     21  C   UNL     1       0.964  -0.391   1.450  0.00  0.00    +0.038 A 
BRANCH  19  22
ATOM     22  S   UNL     1       4.064  -2.938   1.168  0.00  0.00    +0.060 S 
ATOM     23  O   UNL     1       3.534  -3.729   2.223  0.00  0.00    -0.153 OA
ATOM     24  O   UNL     1       4.475  -3.498  -0.071  0.00  0.00    -0.153 OA
BRANCH  22  25
ATOM     25  N   UNL     1       5.378  -2.143   1.787  0.00  0.00    -0.183 NA
ATOM     26  C   UNL     1       5.480  -1.909   3.230  0.00  0.00    +0.131 C 
ATOM     27  C   UNL     1       6.439  -1.674   0.892  0.00  0.00    +0.131 C 
ENDBRANCH  22  25
ENDBRANCH  19  22
ENDBRANCH   1  21
TORSDOF 4
