REMARK  Name = ZINC02947243
REMARK  4 active torsions:
REMARK  status: ('A' for Active; 'I' for Inactive)
REMARK    1  A    between atoms: C_1  and  C_2
REMARK    2  A    between atoms: C_5  and  C_8
REMARK    3  A    between atoms: C_11  and  N_12
REMARK    4  A    between atoms: N_12  and  C_13
REMARK                            x       y       z     vdW  Elec       q    Type
REMARK                         _______ _______ _______ _____ _____    ______ ____
ROOT
ATOM      1  C   UNL     1       0.059  -4.250  -0.021  0.00  0.00    +0.232 C 
ATOM      2  N   UNL     1       0.069  -4.990   1.051  0.00  0.00    -0.204 NA
ATOM      3  C   UNL     1       0.086  -6.307   0.684  0.00  0.00    +0.165 C 
ATOM      4  C   UNL     1       0.100  -7.406   1.518  0.00  0.00    +0.107 C 
ATOM      5  C   UNL     1       0.085  -6.305  -0.784  0.00  0.00    +0.366 C 
ATOM      6  O   UNL     1       0.097  -7.272  -1.524  0.00  0.00    -0.243 OA
ATOM      7  O   UNL     1       0.063  -5.003  -1.139  0.00  0.00    -0.402 OA
ENDROOT
BRANCH   1  12
ATOM      8  C   UNL     1      -0.018   1.503   0.010  0.00  0.00    +0.044 C 
ATOM      9  C   UNL     1       0.002  -0.004   0.002  0.00  0.00    -0.050 A 
ATOM     10  C   UNL     1       0.006  -0.686  -1.202  0.00  0.00    +0.004 A 
ATOM     11  C   UNL     1       0.024  -2.065  -1.217  0.00  0.00    +0.013 A 
ATOM     12  C   UNL     1       0.040  -2.773  -0.013  0.00  0.00    +0.037 A 
ATOM     13  C   UNL     1       0.036  -2.079   1.198  0.00  0.00    +0.013 A 
ATOM     14  C   UNL     1       0.023  -0.699   1.198  0.00  0.00    +0.004 A 
ENDBRANCH   1  12
BRANCH   4  15
ATOM     15  N   UNL     1       0.115  -8.660   0.990  0.00  0.00    -0.318 N 
ATOM     16  H   UNL     1       0.116  -8.782   0.027  0.00  0.00    +0.152 HD
BRANCH  15  17
ATOM     17  C   UNL     1       0.129  -9.774   1.834  0.00  0.00    +0.044 A 
ATOM     18  C   UNL     1       0.122  -9.602   3.213  0.00  0.00    +0.024 A 
ATOM     19  C   UNL     1       0.136 -10.704   4.044  0.00  0.00    +0.002 A 
ATOM     20  C   UNL     1       0.158 -11.978   3.506  0.00  0.00    +0.001 A 
ATOM     21  C   UNL     1       0.165 -12.153   2.135  0.00  0.00    +0.016 A 
ATOM     22  C   UNL     1       0.144 -11.055   1.297  0.00  0.00    +0.034 A 
ATOM     23  I   UNL     1       0.146 -11.321  -0.781  0.00  0.00    -0.042 I 
ENDBRANCH  15  17
ENDBRANCH   4  15
TORSDOF 3
