REMARK  Name = ZINC20356270
REMARK  6 active torsions:
REMARK  status: ('A' for Active; 'I' for Inactive)
REMARK    1  A    between atoms: C_1  and  O_2
REMARK    2  A    between atoms: O_2  and  C_3
REMARK    3  A    between atoms: C_5  and  C_18
REMARK    4  A    between atoms: C_8  and  O_9
REMARK    5  A    between atoms: O_9  and  C_10
REMARK    6  A    between atoms: C_10  and  C_11
REMARK                            x       y       z     vdW  Elec       q    Type
REMARK                         _______ _______ _______ _____ _____    ______ ____
ROOT
ATOM      1  C   UNL     1       2.274   0.464  -4.343  0.00  0.00    +0.024 C 
ATOM      2  C   UNL     1       2.476  -0.148  -5.560  0.00  0.00    +0.081 C 
ATOM      3  C   UNL     1       1.987  -1.529  -5.835  0.00  0.00    +0.153 C 
ATOM      4  N   UNL     1       0.891  -2.018  -5.318  0.00  0.00    -0.283 NA
ATOM      5  N   UNL     1       2.823  -2.255  -6.709  0.00  0.00    -0.150 N 
ATOM      6  C   UNL     1       3.634  -1.535  -7.558  0.00  0.00    +0.182 C 
ATOM      7  N   UNL     1       3.802  -0.236  -7.592  0.00  0.00    -0.152 NA
ATOM      8  C   UNL     1       3.187   0.534  -6.670  0.00  0.00    +0.273 C 
ATOM      9  O   UNL     1       3.218   1.752  -6.743  0.00  0.00    -0.268 OA
ATOM     10  S   UNL     1       4.377  -2.812  -8.538  0.00  0.00    -0.018 S 
ATOM     11  C   UNL     1       3.646  -4.210  -7.697  0.00  0.00    +0.182 C 
ATOM     12  N   UNL     1       2.892  -3.629  -6.798  0.00  0.00    -0.149 NA
ATOM     13  N   UNL     1       3.830  -5.562  -7.936  0.00  0.00    -0.308 N 
ATOM     14  C   UNL     1       3.182  -6.658  -7.200  0.00  0.00    +0.107 C 
ATOM     15  C   UNL     1       3.706  -7.982  -7.795  0.00  0.00    +0.020 C 
ATOM     16  C   UNL     1       5.046  -7.561  -8.454  0.00  0.00    +0.020 C 
ATOM     17  C   UNL     1       4.702  -6.141  -8.975  0.00  0.00    +0.107 C 
ATOM     18  H   UNL     1       0.618  -2.924  -5.531  0.00  0.00    +0.188 HD
ENDROOT
BRANCH   1  21
ATOM     19  C   UNL     1       0.389  -0.401  -1.222  0.00  0.00    +0.162 A 
ATOM     20  C   UNL     1       0.900   0.326  -2.278  0.00  0.00    +0.057 A 
ATOM     21  C   UNL     1       1.727  -0.301  -3.220  0.00  0.00    -0.021 A 
ATOM     22  C   UNL     1       2.029  -1.664  -3.084  0.00  0.00    +0.012 A 
ATOM     23  C   UNL     1       1.513  -2.380  -2.028  0.00  0.00    +0.050 A 
ATOM     24  C   UNL     1       0.698  -1.755  -1.092  0.00  0.00    +0.162 A 
BRANCH  19  26
ATOM     25  C   UNL     1      -0.689   1.593  -0.501  0.00  0.00    +0.277 C 
ATOM     26  O   UNL     1      -0.414   0.204  -0.306  0.00  0.00    -0.491 OA
ENDBRANCH  19  26
BRANCH  24  27
ATOM     27  O   UNL     1       0.197  -2.466  -0.050  0.00  0.00    -0.484 OA
BRANCH  27  28
ATOM     28  C   UNL     1       0.553  -3.848   0.024  0.00  0.00    +0.266 C 
BRANCH  28  29
ATOM     29  C   UNL     1      -0.090  -4.469   1.237  0.00  0.00    +0.008 A 
ATOM     30  C   UNL     1      -0.888  -3.702   2.065  0.00  0.00    +0.008 A 
ATOM     31  C   UNL     1      -1.478  -4.271   3.178  0.00  0.00    +0.000 A 
ATOM     32  C   UNL     1      -1.272  -5.608   3.462  0.00  0.00    +0.001 A 
ATOM     33  C   UNL     1      -0.475  -6.376   2.635  0.00  0.00    +0.020 A 
ATOM     34  C   UNL     1       0.112  -5.808   1.518  0.00  0.00    +0.047 A 
ATOM     35 CL   UNL     1       1.108  -6.774   0.475  0.00  0.00    -0.083 Cl
ENDBRANCH  28  29
ENDBRANCH  27  28
ENDBRANCH  24  27
ENDBRANCH   1  21
TORSDOF 5
