REMARK  Name = ZINC39839534
REMARK  5 active torsions:
REMARK  status: ('A' for Active; 'I' for Inactive)
REMARK    1  A    between atoms: C_1  and  C_2
REMARK    2  A    between atoms: C_2  and  C_3
REMARK    3  A    between atoms: C_6  and  C_9
REMARK    4  A    between atoms: N_24  and  C_25
REMARK    5  A    between atoms: C_25  and  C_26
REMARK                            x       y       z     vdW  Elec       q    Type
REMARK                         _______ _______ _______ _____ _____    ______ ____
ROOT
ATOM      1  C   UNL     1       2.797  -1.919   4.683  0.00  0.00    +0.145 C 
ATOM      2  C   UNL     1       2.995  -0.804   5.658  0.00  0.00    +0.072 A 
ATOM      3  C   UNL     1       3.725   0.463   5.541  0.00  0.00    +0.199 A 
ATOM      4  O   UNL     1       4.170   0.882   4.487  0.00  0.00    -0.287 OA
ATOM      5  C   UNL     1       3.869   1.187   6.829  0.00  0.00    +0.066 A 
ATOM      6  C   UNL     1       4.702   2.301   6.923  0.00  0.00    +0.035 A 
ATOM      7  C   UNL     1       4.828   2.957   8.129  0.00  0.00    +0.042 A 
ATOM      8  C   UNL     1       4.127   2.509   9.241  0.00  0.00    +0.023 A 
ATOM      9  C   UNL     1       3.300   1.412   9.159  0.00  0.00    +0.048 A 
ATOM     10  C   UNL     1       3.154   0.732   7.950  0.00  0.00    +0.140 A 
ATOM     11  O   UNL     1       2.328  -0.337   7.894  0.00  0.00    -0.450 OA
ATOM     12  C   UNL     1       2.347  -1.140   6.812  0.00  0.00    +0.199 A 
ATOM     13  C   UNL     1       1.725  -2.463   6.625  0.00  0.00    +0.283 C 
ATOM     14  O   UNL     1       1.076  -3.051   7.467  0.00  0.00    -0.267 OA
ATOM     15  N   UNL     1       1.983  -2.926   5.384  0.00  0.00    -0.281 N 
ATOM     16 CL   UNL     1       5.863   4.345   8.257  0.00  0.00    -0.084 Cl
ENDROOT
BRANCH   1  20
ATOM     17  C   UNL     1       0.731  -0.503   1.223  0.00  0.00    -0.048 A 
ATOM     18  C   UNL     1       2.097  -0.710   1.176  0.00  0.00    +0.004 A 
ATOM     19  C   UNL     1       2.766  -1.167   2.296  0.00  0.00    +0.006 A 
ATOM     20  C   UNL     1       2.068  -1.419   3.463  0.00  0.00    -0.022 A 
ATOM     21  C   UNL     1       0.702  -1.212   3.510  0.00  0.00    +0.006 A 
ATOM     22  C   UNL     1       0.034  -0.750   2.391  0.00  0.00    +0.004 A 
BRANCH  17  24
ATOM     23  C   UNL     1      -0.019   1.526   0.010  0.00  0.00    +0.009 C 
ATOM     24  C   UNL     1       0.002  -0.004   0.002  0.00  0.00    +0.032 C 
ENDBRANCH  17  24
ENDBRANCH   1  20
BRANCH  15  25
ATOM     25  C   UNL     1       1.532  -4.205   4.829  0.00  0.00    +0.140 C 
BRANCH  25  26
ATOM     26  C   UNL     1       2.576  -5.284   5.120  0.00  0.00    +0.136 C 
ATOM     27  C   UNL     1       2.134  -6.639   4.512  0.00  0.00    +0.035 C 
ATOM     28  C   UNL     1       3.506  -7.346   4.338  0.00  0.00    +0.031 C 
ATOM     29  C   UNL     1       4.441  -6.166   3.996  0.00  0.00    +0.160 C 
ATOM     30  O   UNL     1       3.817  -4.966   4.471  0.00  0.00    -0.375 OA
ENDBRANCH  25  26
ENDBRANCH  15  25
TORSDOF 4
