REMARK  Name = ZINC34787172
REMARK  11 active torsions:
REMARK  status: ('A' for Active; 'I' for Inactive)
REMARK    1  A    between atoms: C_1  and  C_2
REMARK    2  A    between atoms: C_5  and  N_8
REMARK    3  A    between atoms: N_8  and  N_9
REMARK    4  A    between atoms: N_9  and  N_28
REMARK    5  A    between atoms: C_12  and  C_27
REMARK    6  A    between atoms: C_13  and  C_26
REMARK    7  A    between atoms: C_20  and  C_25
REMARK    8  A    between atoms: C_22  and  C_24
REMARK    9  A    between atoms: N_28  and  C_29
REMARK   10  A    between atoms: C_32  and  O_35
REMARK   11  A    between atoms: O_35  and  C_36
REMARK                            x       y       z     vdW  Elec       q    Type
REMARK                         _______ _______ _______ _____ _____    ______ ____
ROOT
ATOM      1  N   UNL     1       0.379  -4.998   1.502  0.00  0.00    -0.151 N 
ATOM      2  C   UNL     1      -0.698  -5.406   2.268  0.00  0.00    +0.170 A 
ATOM      3  C   UNL     1      -0.932  -6.790   2.500  0.00  0.00    +0.054 A 
ATOM      4  C   UNL     1      -0.184  -7.948   2.042  0.00  0.00    -0.028 A 
ATOM      5  C   UNL     1      -0.597  -9.175   2.390  0.00  0.00    -0.008 A 
ATOM      6  S   UNL     1      -2.048  -8.861   3.377  0.00  0.00    -0.073 S 
ATOM      7  C   UNL     1      -2.060  -7.090   3.296  0.00  0.00    +0.116 A 
ATOM      8  N   UNL     1      -2.832  -6.138   3.782  0.00  0.00    -0.203 NA
ATOM      9  C   UNL     1      -2.564  -4.866   3.533  0.00  0.00    +0.254 A 
ATOM     10  N   UNL     1      -1.518  -4.514   2.797  0.00  0.00    -0.192 NA
ATOM     11  N   UNL     1      -3.395  -3.876   4.058  0.00  0.00    -0.202 N 
ATOM     12  C   UNL     1      -4.492  -4.080   4.833  0.00  0.00    +0.045 A 
ATOM     13  C   UNL     1      -5.014  -2.869   5.131  0.00  0.00    +0.048 A 
ATOM     14  C   UNL     1      -4.215  -1.893   4.522  0.00  0.00    +0.061 A 
ATOM     15  N   UNL     1      -3.244  -2.494   3.885  0.00  0.00    -0.169 NA
ATOM     16  C   UNL     1      -4.434  -0.404   4.594  0.00  0.00    +0.067 C 
ATOM     17  C   UNL     1      -5.030  -5.415   5.280  0.00  0.00    +0.066 C 
ATOM     18  C   UNL     1       0.018 -10.503   2.031  0.00  0.00    +0.052 C 
ATOM     19  C   UNL     1       1.042  -7.771   1.184  0.00  0.00    +0.045 C 
ENDROOT
BRANCH   1  20
ATOM     20  N   UNL     1       0.169  -4.226   0.352  0.00  0.00    -0.246 N 
ATOM     21  H   UNL     1      -0.029  -4.659  -0.493  0.00  0.00    +0.172 HD
BRANCH  20  26
ATOM     22  C   UNL     1       0.473   1.429   0.638  0.00  0.00    +0.044 C 
ATOM     23  C   UNL     1       0.392  -0.074   0.562  0.00  0.00    -0.050 A 
ATOM     24  C   UNL     1       0.228  -0.695  -0.662  0.00  0.00    +0.005 A 
ATOM     25  C   UNL     1       0.154  -2.072  -0.736  0.00  0.00    +0.025 A 
ATOM     26  C   UNL     1       0.244  -2.834   0.423  0.00  0.00    +0.046 A 
ATOM     27  C   UNL     1       0.408  -2.207   1.651  0.00  0.00    +0.025 A 
ATOM     28  C   UNL     1       0.487  -0.829   1.717  0.00  0.00    +0.005 A 
ENDBRANCH  20  26
ENDBRANCH   1  20
BRANCH   1  29
ATOM     29  N   UNL     1       1.681  -5.357   1.876  0.00  0.00    -0.246 N 
ATOM     30  H   UNL     1       2.197  -5.959   1.318  0.00  0.00    +0.172 HD
BRANCH  29  31
ATOM     31  C   UNL     1       2.235  -4.848   3.056  0.00  0.00    +0.046 A 
ATOM     32  C   UNL     1       1.450  -4.105   3.928  0.00  0.00    +0.028 A 
ATOM     33  C   UNL     1       1.999  -3.603   5.092  0.00  0.00    +0.047 A 
ATOM     34  C   UNL     1       3.333  -3.839   5.389  0.00  0.00    +0.120 A 
ATOM     35  C   UNL     1       4.117  -4.580   4.518  0.00  0.00    +0.047 A 
ATOM     36  C   UNL     1       3.569  -5.089   3.357  0.00  0.00    +0.028 A 
BRANCH  34  37
ATOM     37  O   UNL     1       3.872  -3.343   6.535  0.00  0.00    -0.495 OA
ATOM     38  C   UNL     1       5.252  -3.625   6.778  0.00  0.00    +0.277 C 
ENDBRANCH  34  37
ENDBRANCH  29  31
ENDBRANCH   1  29
TORSDOF 5
