REMARK  Name = ZINC12442397
REMARK  6 active torsions:
REMARK  status: ('A' for Active; 'I' for Inactive)
REMARK    1  A    between atoms: C_1  and  C_2
REMARK    2  A    between atoms: C_2  and  C_3
REMARK    3  A    between atoms: C_2  and  N_4
REMARK    4  A    between atoms: C_15  and  C_17
REMARK    5  A    between atoms: C_20  and  O_23
REMARK    6  A    between atoms: O_23  and  C_24
REMARK                            x       y       z     vdW  Elec       q    Type
REMARK                         _______ _______ _______ _____ _____    ______ ____
ROOT
ATOM      1  N   UNL     1       0.713  -0.491   1.192  0.00  0.00    -0.264 NA
ATOM      2  C   UNL     1       0.673  -1.958   1.266  0.00  0.00    +0.130 C 
ATOM      3  C   UNL     1       1.559  -2.432   2.389  0.00  0.00    +0.051 A 
ATOM      4  C   UNL     1       2.518  -1.597   2.937  0.00  0.00    +0.130 A 
ATOM      5  C   UNL     1       3.330  -2.047   3.980  0.00  0.00    +0.047 A 
ATOM      6  C   UNL     1       3.197  -3.313   4.469  0.00  0.00    +0.015 A 
ATOM      7  C   UNL     1       2.243  -4.178   3.915  0.00  0.00    +0.019 A 
ATOM      8  C   UNL     1       1.404  -3.719   2.882  0.00  0.00    +0.147 A 
ATOM      9  O   UNL     1       0.436  -4.529   2.387  0.00  0.00    -0.421 OA
ATOM     10  C   UNL     1       0.652  -5.862   2.478  0.00  0.00    +0.345 A 
ATOM     11  O   UNL     1       0.321  -6.614   1.580  0.00  0.00    -0.245 OA
ATOM     12  C   UNL     1       1.301  -6.371   3.697  0.00  0.00    +0.067 A 
ATOM     13  C   UNL     1       2.110  -5.508   4.393  0.00  0.00    +0.027 A 
ATOM     14  O   UNL     1       2.683  -0.330   2.474  0.00  0.00    -0.476 OA
ATOM     15  C   UNL     1       2.108  -0.020   1.203  0.00  0.00    +0.319 C 
ENDROOT
BRANCH  12  16
ATOM     16  C   UNL     1       1.090  -7.764   4.155  0.00  0.00    -0.011 A 
ATOM     17  C   UNL     1       2.158  -8.661   4.181  0.00  0.00    +0.012 A 
ATOM     18  C   UNL     1       1.957  -9.957   4.608  0.00  0.00    +0.046 A 
ATOM     19  C   UNL     1       0.694 -10.369   5.011  0.00  0.00    +0.120 A 
ATOM     20  C   UNL     1      -0.371  -9.479   4.986  0.00  0.00    +0.046 A 
ATOM     21  C   UNL     1      -0.176  -8.180   4.566  0.00  0.00    +0.012 A 
BRANCH  19  22
ATOM     22  O   UNL     1       0.500 -11.647   5.431  0.00  0.00    -0.495 OA
ATOM     23  C   UNL     1      -0.824 -12.004   5.831  0.00  0.00    +0.277 C 
ENDBRANCH  19  22
ENDBRANCH  12  16
BRANCH   1  25
ATOM     24  C   UNL     1      -0.019   1.526   0.010  0.00  0.00    +0.024 C 
ATOM     25  C   UNL     1       0.002  -0.004   0.002  0.00  0.00    +0.054 C 
ATOM     26  C   UNL     1       0.718  -0.497  -1.257  0.00  0.00    +0.024 C 
ENDBRANCH   1  25
TORSDOF 3
