REMARK  Name = ZINC39573681
REMARK  5 active torsions:
REMARK  status: ('A' for Active; 'I' for Inactive)
REMARK    1  A    between atoms: C_1  and  C_2
REMARK    2  A    between atoms: C_2  and  C_3
REMARK    3  A    between atoms: C_11  and  C_15
REMARK    4  A    between atoms: C_15  and  C_16
REMARK    5  A    between atoms: N_24  and  C_25
REMARK                            x       y       z     vdW  Elec       q    Type
REMARK                         _______ _______ _______ _____ _____    ______ ____
ROOT
ATOM      1  C   UNL     1      -1.433  -0.534   0.013  0.00  0.00    -0.010 C 
ATOM      2  C   UNL     1      -2.133  -0.113  -1.277  0.00  0.00    +0.008 C 
ATOM      3  C   UNL     1      -1.360  -0.631  -2.498  0.00  0.00    +0.033 C 
ATOM      4  C   UNL     1      -1.178  -2.134  -2.294  0.00  0.00    -0.042 C 
ATOM      5  C   UNL     1      -1.545  -3.071  -3.168  0.00  0.00    +0.071 C 
ATOM      6  C   UNL     1      -1.476  -4.495  -2.743  0.00  0.00    +0.111 C 
ATOM      7  N   UNL     1      -1.859  -5.479  -3.521  0.00  0.00    -0.227 NA
ATOM      8  C   UNL     1      -2.320  -5.168  -4.733  0.00  0.00    +0.131 C 
ATOM      9  N   UNL     1      -2.425  -3.957  -5.215  0.00  0.00    -0.161 NA
ATOM     10  C   UNL     1      -2.085  -2.838  -4.549  0.00  0.00    +0.271 C 
ATOM     11  O   UNL     1      -2.206  -1.724  -5.029  0.00  0.00    -0.268 OA
ATOM     12  S   UNL     1      -0.809  -4.446  -1.110  0.00  0.00    -0.097 S 
ATOM     13  C   UNL     1      -0.558  -2.633  -0.987  0.00  0.00    +0.080 C 
ATOM     14  C   UNL     1      -1.406  -2.059   0.149  0.00  0.00    +0.022 C 
ENDROOT
BRANCH   1  16
ATOM     15  C   UNL     1      -0.019   1.526   0.010  0.00  0.00    +0.004 C 
ATOM     16  C   UNL     1       0.002  -0.004   0.002  0.00  0.00    +0.000 C 
ENDBRANCH   1  16
BRANCH   8  17
ATOM     17  C   UNL     1      -2.754  -6.306  -5.621  0.00  0.00    +0.148 C 
BRANCH  17  18
ATOM     18  C   UNL     1      -3.239  -5.758  -6.938  0.00  0.00    +0.118 A 
ATOM     19  N   UNL     1      -4.467  -5.411  -7.194  0.00  0.00    -0.232 NA
ATOM     20  C   UNL     1      -4.557  -4.961  -8.472  0.00  0.00    +0.089 A 
ATOM     21  C   UNL     1      -5.611  -4.475  -9.251  0.00  0.00    +0.030 A 
ATOM     22  C   UNL     1      -5.382  -4.088 -10.540  0.00  0.00    +0.002 A 
ATOM     23  C   UNL     1      -4.110  -4.173 -11.090  0.00  0.00    +0.002 A 
ATOM     24  C   UNL     1      -3.055  -4.649 -10.340  0.00  0.00    +0.028 A 
ATOM     25  C   UNL     1      -3.269  -5.046  -9.027  0.00  0.00    +0.069 A 
ATOM     26  N   UNL     1      -2.457  -5.548  -8.031  0.00  0.00    -0.330 N 
ATOM     27  C   UNL     1      -1.019  -5.810  -8.132  0.00  0.00    +0.150 C 
ENDBRANCH  17  18
ENDBRANCH   8  17
TORSDOF 3
