REMARK  Name = ZINC08414520
REMARK  7 active torsions:
REMARK  status: ('A' for Active; 'I' for Inactive)
REMARK    1  A    between atoms: C_1  and  C_2
REMARK    2  A    between atoms: C_9  and  C_11
REMARK    3  A    between atoms: C_14  and  N_17
REMARK    4  A    between atoms: C_21  and  N_68
REMARK    5  A    between atoms: C_25  and  C_27
REMARK    6  A    between atoms: C_25  and  C_28
REMARK    7  A    between atoms: C_25  and  N_68
REMARK                            x       y       z     vdW  Elec       q    Type
REMARK                         _______ _______ _______ _____ _____    ______ ____
ROOT
ATOM      1  N   UNL     1       4.028   7.147  -2.400  0.00  0.00    -0.212 N 
ATOM      2  C   UNL     1       4.300   7.947  -1.361  0.00  0.00    +0.225 C 
ATOM      3  O   UNL     1       4.495   9.142  -1.427  0.00  0.00    -0.275 OA
ATOM      4  C   UNL     1       4.327   7.123  -0.089  0.00  0.00    +0.090 C 
ATOM      5  C   UNL     1       4.017   5.695  -0.582  0.00  0.00    +0.026 C 
ATOM      6  C   UNL     1       3.851   5.860  -2.077  0.00  0.00    +0.213 C 
ATOM      7  O   UNL     1       3.597   4.969  -2.858  0.00  0.00    -0.277 OA
ENDROOT
BRANCH   1  11
ATOM      8  C   UNL     1       3.757   8.549  -6.319  0.00  0.00    +0.007 A 
ATOM      9  C   UNL     1       2.805   8.932  -5.371  0.00  0.00    +0.012 A 
ATOM     10  C   UNL     1       2.898   8.467  -4.077  0.00  0.00    +0.024 A 
ATOM     11  C   UNL     1       3.937   7.618  -3.715  0.00  0.00    +0.044 A 
ATOM     12  C   UNL     1       4.889   7.239  -4.654  0.00  0.00    +0.024 A 
ATOM     13  C   UNL     1       4.799   7.696  -5.951  0.00  0.00    +0.012 A 
BRANCH   8  22
ATOM     14  C   UNL     1       3.313  11.156 -13.718  0.00  0.00    +0.044 C 
ATOM     15  C   UNL     1       3.143  10.824 -12.258  0.00  0.00    -0.049 A 
ATOM     16  C   UNL     1       2.082  11.355 -11.537  0.00  0.00    +0.005 A 
ATOM     17  C   UNL     1       1.902  11.075 -10.219  0.00  0.00    +0.029 A 
ATOM     18  C   UNL     1       2.799  10.223  -9.530  0.00  0.00    +0.079 A 
ATOM     19  C   UNL     1       3.869   9.698 -10.291  0.00  0.00    +0.040 A 
ATOM     20  C   UNL     1       4.042   9.988 -11.622  0.00  0.00    +0.020 A 
ATOM     21  S   UNL     1       4.740   8.717  -9.093  0.00  0.00    -0.067 S 
ATOM     22  C   UNL     1       3.661   9.046  -7.707  0.00  0.00    +0.109 A 
ATOM     23  N   UNL     1       2.763   9.848  -8.236  0.00  0.00    -0.239 NA
ENDBRANCH   8  22
ENDBRANCH   1  11
BRANCH   5  24
ATOM     24  N   UNL     1       2.768   5.202   0.028  0.00  0.00    +0.389 N 
ATOM     25  H   UNL     1       1.967   5.559  -0.505  0.00  0.00    -0.084 HD
ATOM     26  H   UNL     1       2.710   5.537   0.997  0.00  0.00    -0.084 HD
BRANCH  24  27
ATOM     27  C   UNL     1       2.740   3.728   0.020  0.00  0.00    -0.068 C 
ATOM     28  C   UNL     1       3.477   3.196   1.251  0.00  0.00    -0.013 C 
BRANCH  27  29
ATOM     29  C   UNL     1       1.286   3.252   0.052  0.00  0.00    -0.041 C 
ATOM     30  C   UNL     1       1.250   1.723   0.048  0.00  0.00    +0.009 C 
ATOM     31  C   UNL     1      -0.204   1.248   0.079  0.00  0.00    -0.010 C 
ATOM     32  C   UNL     1      -0.942   1.779  -1.152  0.00  0.00    +0.007 C 
ATOM     33  C   UNL     1      -0.905   3.308  -1.147  0.00  0.00    -0.010 C 
ATOM     34  C   UNL     1       0.549   3.784  -1.179  0.00  0.00    +0.009 C 
ATOM     35  C   UNL     1      -1.585   3.831   0.119  0.00  0.00    +0.007 C 
ATOM     36  C   UNL     1      -0.848   3.300   1.350  0.00  0.00    -0.010 C 
ATOM     37  C   UNL     1      -0.884   1.770   1.346  0.00  0.00    +0.007 C 
ATOM     38  C   UNL     1       0.606   3.775   1.319  0.00  0.00    +0.009 C 
ENDBRANCH  27  29
ENDBRANCH  24  27
ENDBRANCH   5  24
TORSDOF 5
