REMARK  Name = ZINC59417006
REMARK  8 active torsions:
REMARK  status: ('A' for Active; 'I' for Inactive)
REMARK    1  A    between atoms: C_1  and  C_2
REMARK    2  A    between atoms: C_9  and  S_12
REMARK    3  A    between atoms: S_12  and  C_13
REMARK    4  A    between atoms: C_13  and  C_14
REMARK    5  A    between atoms: C_18  and  C_21
REMARK    6  A    between atoms: C_24  and  N_27
REMARK    7  A    between atoms: N_27  and  C_28
REMARK    8  A    between atoms: N_27  and  C_29
REMARK                            x       y       z     vdW  Elec       q    Type
REMARK                         _______ _______ _______ _____ _____    ______ ____
ROOT
ATOM      1  C   UNL     1       0.121  -6.455   5.175  0.00  0.00    +0.145 C 
ATOM      2  C   UNL     1       0.063  -6.021   6.656  0.00  0.00    +0.116 C 
ATOM      3  N   UNL     1      -0.816  -7.019   7.307  0.00  0.00    -0.285 NA
ATOM      4  C   UNL     1      -1.203  -7.972   6.242  0.00  0.00    +0.218 C 
ATOM      5  O   UNL     1      -1.079  -7.244   5.000  0.00  0.00    -0.352 OA
ATOM      6  H   UNL     1      -0.334  -7.491   8.057  0.00  0.00    +0.125 HD
ENDROOT
BRANCH   4   7
ATOM      7  C   UNL     1      -2.625  -8.428   6.442  0.00  0.00    -0.004 A 
ATOM      8  C   UNL     1      -3.543  -7.582   7.038  0.00  0.00    +0.009 A 
ATOM      9  C   UNL     1      -4.848  -7.996   7.223  0.00  0.00    +0.023 A 
ATOM     10  C   UNL     1      -5.237  -9.264   6.810  0.00  0.00    +0.029 A 
ATOM     11  C   UNL     1      -4.312 -10.111   6.212  0.00  0.00    +0.023 A 
ATOM     12  C   UNL     1      -3.011  -9.688   6.025  0.00  0.00    +0.009 A 
BRANCH  10  13
ATOM     13  N   UNL     1      -6.555  -9.686   6.996  0.00  0.00    -0.336 N 
ATOM     14  C   UNL     1      -7.497  -8.844   7.738  0.00  0.00    +0.129 C 
ATOM     15  C   UNL     1      -6.997 -10.972   6.450  0.00  0.00    +0.129 C 
ENDBRANCH  10  13
ENDBRANCH   4   7
BRANCH   1  16
ATOM     16  C   UNL     1       0.102  -5.234   4.255  0.00  0.00    +0.110 C 
BRANCH  16  17
ATOM     17  S   UNL     1       0.109  -5.780   2.525  0.00  0.00    -0.085 S 
BRANCH  17  26
ATOM     18  C   UNL     1      -0.001   1.432  -0.086  0.00  0.00    +0.044 C 
ATOM     19  C   UNL     1       0.021  -0.075  -0.077  0.00  0.00    -0.048 A 
ATOM     20  C   UNL     1       0.031  -0.770  -1.277  0.00  0.00    +0.005 A 
ATOM     21  C   UNL     1       0.051  -2.150  -1.286  0.00  0.00    +0.028 A 
ATOM     22  C   UNL     1       0.063  -2.847  -0.088  0.00  0.00    +0.067 A 
ATOM     23  C   UNL     1       0.053  -2.148   1.131  0.00  0.00    +0.090 A 
ATOM     24  C   UNL     1       0.038  -0.751   1.122  0.00  0.00    +0.033 A 
ATOM     25  N   UNL     1       0.068  -3.075   2.124  0.00  0.00    -0.222 NA
ATOM     26  C   UNL     1       0.085  -4.278   1.604  0.00  0.00    +0.167 A 
ATOM     27  N   UNL     1       0.083  -4.193   0.240  0.00  0.00    -0.333 N 
ATOM     28  H   UNL     1       0.093  -4.937  -0.383  0.00  0.00    +0.168 HD
ENDBRANCH  17  26
ENDBRANCH  16  17
ENDBRANCH   1  16
TORSDOF 5
