REMARK  Name = ZINC66812535
REMARK  9 active torsions:
REMARK  status: ('A' for Active; 'I' for Inactive)
REMARK    1  A    between atoms: C_1  and  C_2
REMARK    2  A    between atoms: C_2  and  O_3
REMARK    3  A    between atoms: O_3  and  C_4
REMARK    4  A    between atoms: C_4  and  C_6
REMARK    5  A    between atoms: C_7  and  C_27
REMARK    6  A    between atoms: C_11  and  C_15
REMARK    7  A    between atoms: C_20  and  C_23
REMARK    8  A    between atoms: C_23  and  O_25
REMARK    9  A    between atoms: O_25  and  C_26
REMARK                            x       y       z     vdW  Elec       q    Type
REMARK                         _______ _______ _______ _____ _____    ______ ____
ROOT
ATOM      1  C   UNL     1      -2.861  -2.421   0.665  0.00  0.00    +0.102 A 
ATOM      2  C   UNL     1      -3.213  -3.732   0.546  0.00  0.00    -0.017 A 
ATOM      3  C   UNL     1      -4.560  -4.080   0.382  0.00  0.00    +0.051 A 
ATOM      4  C   UNL     1      -5.148  -5.372   0.239  0.00  0.00    +0.133 A 
ATOM      5  N   UNL     1      -6.459  -5.472   0.094  0.00  0.00    -0.217 NA
ATOM      6  C   UNL     1      -7.249  -4.414   0.078  0.00  0.00    +0.129 A 
ATOM      7  N   UNL     1      -6.768  -3.192   0.206  0.00  0.00    -0.225 NA
ATOM      8  C   UNL     1      -5.474  -2.997   0.354  0.00  0.00    +0.115 A 
ATOM      9  S   UNL     1      -4.430  -1.577   0.560  0.00  0.00    -0.062 S 
ATOM     10  C   UNL     1      -8.734  -4.606  -0.091  0.00  0.00    +0.088 C 
ATOM     11  N   UNL     1      -4.358  -6.504   0.250  0.00  0.00    -0.314 N 
ATOM     12  C   UNL     1      -3.946  -7.117   1.520  0.00  0.00    +0.106 C 
ATOM     13  C   UNL     1      -4.336  -8.598   1.502  0.00  0.00    +0.020 C 
ATOM     14  C   UNL     1      -3.739  -9.264   0.261  0.00  0.00    +0.018 C 
ATOM     15  C   UNL     1      -4.304  -8.600  -0.998  0.00  0.00    +0.115 C 
ATOM     16  C   UNL     1      -3.919  -7.123  -1.008  0.00  0.00    +0.121 C 
ATOM     17  C   UNL     1      -2.156  -4.805   0.589  0.00  0.00    +0.046 C 
ENDROOT
BRANCH   1  18
ATOM     18  C   UNL     1      -1.524  -1.846   0.843  0.00  0.00    +0.346 C 
ATOM     19  O   UNL     1      -0.551  -2.574   0.894  0.00  0.00    -0.244 OA
BRANCH  18  20
ATOM     20  O   UNL     1      -1.373  -0.510   0.949  0.00  0.00    -0.461 OA
BRANCH  20  22
ATOM     21  C   UNL     1      -0.070   1.507   1.220  0.00  0.00    +0.048 C 
ATOM     22  C   UNL     1      -0.042  -0.019   1.120  0.00  0.00    +0.229 C 
ENDBRANCH  20  22
ENDBRANCH  18  20
ENDBRANCH   1  18
BRANCH  15  23
ATOM     23  C   UNL     1      -3.740  -9.278  -2.220  0.00  0.00    +0.311 C 
ATOM     24  O   UNL     1      -3.095  -8.643  -3.020  0.00  0.00    -0.250 OA
BRANCH  23  25
ATOM     25  O   UNL     1      -3.955 -10.588  -2.420  0.00  0.00    -0.468 OA
ATOM     26  C   UNL     1      -3.392 -11.165  -3.599  0.00  0.00    +0.280 C 
ENDBRANCH  23  25
ENDBRANCH  15  23
TORSDOF 5
