REMARK  Name = ZINC00180775
REMARK  3 active torsions:
REMARK  status: ('A' for Active; 'I' for Inactive)
REMARK    1  A    between atoms: C_3  and  N_21
REMARK    2  A    between atoms: C_6  and  C_7
REMARK    3  A    between atoms: N_9  and  C_14
REMARK                            x       y       z     vdW  Elec       q    Type
REMARK                         _______ _______ _______ _____ _____    ______ ____
ROOT
ATOM      1  C   UNL     1      -2.618   3.997  -0.033  0.00  0.00    +0.170 C 
ATOM      2  N   UNL     1      -3.622   3.057  -0.567  0.00  0.00    -0.254 N 
ATOM      3  C   UNL     1      -4.728   2.827   0.129  0.00  0.00    +0.231 C 
ATOM      4  O   UNL     1      -5.580   2.065  -0.279  0.00  0.00    -0.274 OA
ATOM      5  C   UNL     1      -4.891   3.554   1.454  0.00  0.00    +0.167 C 
ATOM      6  S   UNL     1      -3.167   4.155   1.721  0.00  0.00    -0.124 S 
ENDROOT
BRANCH   2   7
ATOM      7  C   UNL     1      -3.409   2.416  -1.793  0.00  0.00    +0.038 A 
ATOM      8  C   UNL     1      -3.401   1.029  -1.861  0.00  0.00    +0.025 A 
ATOM      9  C   UNL     1      -3.195   0.399  -3.072  0.00  0.00    +0.022 A 
ATOM     10  C   UNL     1      -2.987   1.148  -4.217  0.00  0.00    +0.041 A 
ATOM     11  C   UNL     1      -2.989   2.531  -4.151  0.00  0.00    +0.022 A 
ATOM     12  C   UNL     1      -3.199   3.166  -2.943  0.00  0.00    +0.025 A 
ATOM     13 CL   UNL     1      -2.723   0.353  -5.737  0.00  0.00    -0.084 Cl
ENDBRANCH   2   7
BRANCH   1  19
ATOM     14  C   UNL     1      -1.057   2.041  -0.106  0.00  0.00    +0.008 A 
ATOM     15  C   UNL     1       0.215   1.505  -0.177  0.00  0.00    +0.033 A 
ATOM     16  C   UNL     1       1.313   2.341  -0.267  0.00  0.00    +0.126 A 
ATOM     17  C   UNL     1       1.139   3.712  -0.281  0.00  0.00    +0.033 A 
ATOM     18  C   UNL     1      -0.133   4.248  -0.205  0.00  0.00    +0.008 A 
ATOM     19  C   UNL     1      -1.231   3.413  -0.116  0.00  0.00    -0.017 A 
BRANCH  16  20
ATOM     20  N   UNL     1       2.675   1.767  -0.349  0.00  0.00    +0.056 N 
ATOM     21  O   UNL     1       2.829   0.559  -0.336  0.00  0.00    -0.126 OA
ATOM     22  O   UNL     1       3.642   2.503  -0.428  0.00  0.00    -0.126 OA
ENDBRANCH  16  20
ENDBRANCH   1  19
TORSDOF 3
