REMARK  Name = ZINC08919837
REMARK  10 active torsions:
REMARK  status: ('A' for Active; 'I' for Inactive)
REMARK    1  A    between atoms: C_1  and  C_2
REMARK    2  A    between atoms: C_2  and  C_3
REMARK    3  A    between atoms: C_3  and  N_66
REMARK    4  A    between atoms: N_13  and  C_28
REMARK    5  A    between atoms: C_14  and  S_16
REMARK    6  A    between atoms: S_16  and  C_17
REMARK    7  A    between atoms: C_17  and  C_18
REMARK    8  A    between atoms: N_20  and  C_21
REMARK    9  A    between atoms: C_24  and  C_27
REMARK   10  A    between atoms: C_31  and  C_34
REMARK                            x       y       z     vdW  Elec       q    Type
REMARK                         _______ _______ _______ _____ _____    ______ ____
ROOT
ATOM      1  C   UNL     1       3.226 -12.871   0.926  0.00  0.00    -0.074 C 
ATOM      2  C   UNL     1       4.002 -11.727   0.269  0.00  0.00    +0.018 C 
ATOM      3  C   UNL     1       3.018 -10.607  -0.057  0.00  0.00    -0.026 A 
ATOM      4  C   UNL     1       1.693 -10.866  -0.093  0.00  0.00    -0.021 A 
ATOM      5  S   UNL     1       0.933  -9.318  -0.496  0.00  0.00    -0.075 S 
ATOM      6  C   UNL     1       2.400  -8.325  -0.617  0.00  0.00    +0.117 A 
ATOM      7  C   UNL     1       3.435  -9.234  -0.338  0.00  0.00    +0.076 A 
ATOM      8  C   UNL     1       4.761  -8.696  -0.365  0.00  0.00    +0.268 A 
ATOM      9  O   UNL     1       5.722  -9.410  -0.136  0.00  0.00    -0.267 OA
ATOM     10  N   UNL     1       4.932  -7.392  -0.648  0.00  0.00    -0.255 N 
ATOM     11  C   UNL     1       3.866  -6.576  -0.907  0.00  0.00    +0.178 A 
ATOM     12  N   UNL     1       2.636  -7.046  -0.883  0.00  0.00    -0.215 NA
ATOM     13  C   UNL     1       1.034 -12.187   0.156  0.00  0.00    -0.035 C 
ATOM     14  N   UNL     1       2.078 -13.238   0.073  0.00  0.00    +0.383 N 
ATOM     15  H   UNL     1       2.396 -13.316  -0.900  0.00  0.00    -0.081 HD
ENDROOT
BRANCH  10  16
ATOM     16  C   UNL     1       6.228  -6.859  -0.676  0.00  0.00    +0.052 A 
ATOM     17  C   UNL     1       7.005  -6.981  -1.820  0.00  0.00    +0.026 A 
ATOM     18  C   UNL     1       8.280  -6.451  -1.847  0.00  0.00    +0.005 A 
ATOM     19  C   UNL     1       8.787  -5.808  -0.732  0.00  0.00    -0.050 A 
ATOM     20  C   UNL     1       8.017  -5.690   0.411  0.00  0.00    +0.005 A 
ATOM     21  C   UNL     1       6.739  -6.214   0.442  0.00  0.00    +0.026 A 
ATOM     22  C   UNL     1      10.181  -5.236  -0.762  0.00  0.00    +0.044 C 
ENDBRANCH  10  16
BRANCH  14  23
ATOM     23  C   UNL     1       1.522 -14.539   0.503  0.00  0.00    -0.079 C 
BRANCH  23  25
ATOM     24  C   UNL     1       0.565 -15.846   2.406  0.00  0.00    +0.002 C 
ATOM     25  C   UNL     1       1.135 -14.491   1.983  0.00  0.00    -0.022 C 
ENDBRANCH  23  25
ENDBRANCH  14  23
BRANCH  11  26
ATOM     26  S   UNL     1       4.142  -4.875  -1.271  0.00  0.00    -0.078 S 
BRANCH  26  27
ATOM     27  C   UNL     1       2.434  -4.325  -1.516  0.00  0.00    +0.173 C 
BRANCH  27  28
ATOM     28  C   UNL     1       2.422  -2.856  -1.849  0.00  0.00    +0.227 C 
ATOM     29  O   UNL     1       3.465  -2.240  -1.913  0.00  0.00    -0.275 OA
ATOM     30  N   UNL     1       1.252  -2.225  -2.074  0.00  0.00    -0.285 N 
ATOM     31  H   UNL     1       0.415  -2.697  -1.944  0.00  0.00    +0.155 HD
BRANCH  30  32
ATOM     32  C   UNL     1       1.246  -0.891  -2.494  0.00  0.00    +0.033 A 
ATOM     33  C   UNL     1       2.310  -0.389  -3.233  0.00  0.00    +0.023 A 
ATOM     34  C   UNL     1       2.301   0.928  -3.647  0.00  0.00    +0.005 A 
ATOM     35  C   UNL     1       1.234   1.748  -3.327  0.00  0.00    -0.050 A 
ATOM     36  C   UNL     1       0.173   1.251  -2.591  0.00  0.00    +0.005 A 
ATOM     37  C   UNL     1       0.176  -0.065  -2.174  0.00  0.00    +0.023 A 
ATOM     38  C   UNL     1       1.227   3.185  -3.780  0.00  0.00    +0.044 C 
ENDBRANCH  30  32
ENDBRANCH  27  28
ENDBRANCH  26  27
ENDBRANCH  11  26
TORSDOF 7
