REMARK  Name = ZINC66438928
REMARK  7 active torsions:
REMARK  status: ('A' for Active; 'I' for Inactive)
REMARK    1  A    between atoms: C_1  and  C_2
REMARK    2  A    between atoms: C_5  and  N_9
REMARK    3  A    between atoms: C_10  and  C_12
REMARK    4  A    between atoms: C_12  and  C_13
REMARK    5  A    between atoms: C_13  and  N_14
REMARK    6  A    between atoms: C_15  and  C_17
REMARK    7  A    between atoms: C_23  and  C_25
REMARK                            x       y       z     vdW  Elec       q    Type
REMARK                         _______ _______ _______ _____ _____    ______ ____
ROOT
ATOM      1  C   UNL     1      -0.249  -6.854  -2.618  0.00  0.00    +0.113 C 
ENDROOT
BRANCH   1   2
ATOM      2  N   UNL     1      -0.338  -8.316  -2.623  0.00  0.00    -0.315 N 
ATOM      3  C   UNL     1      -0.432  -8.981  -3.792  0.00  0.00    +0.217 C 
ATOM      4  O   UNL     1      -0.443  -8.369  -4.839  0.00  0.00    -0.276 OA
ATOM      5  H   UNL     1      -0.329  -8.806  -1.786  0.00  0.00    +0.149 HD
BRANCH   3   6
ATOM      6  C   UNL     1      -0.523 -10.485  -3.797  0.00  0.00    +0.086 C 
ATOM      7  C   UNL     1      -1.773 -10.918  -4.566  0.00  0.00    +0.013 C 
ATOM      8  C   UNL     1      -1.689 -10.406  -6.006  0.00  0.00    +0.001 C 
ATOM      9  C   UNL     1      -0.447 -10.990  -6.682  0.00  0.00    +0.001 C 
ATOM     10  C   UNL     1       0.803 -10.558  -5.913  0.00  0.00    +0.013 C 
ATOM     11  C   UNL     1       0.719 -11.069  -4.474  0.00  0.00    +0.105 C 
BRANCH  11  12
ATOM     12  C   UNL     1       1.969 -10.637  -3.705  0.00  0.00    +0.394 C 
ATOM     13  F   UNL     1       1.838 -11.001  -2.360  0.00  0.00    -0.170 F 
ATOM     14  F   UNL     1       3.093 -11.266  -4.251  0.00  0.00    -0.170 F 
ATOM     15  F   UNL     1       2.119  -9.249  -3.800  0.00  0.00    -0.170 F 
ENDBRANCH  11  12
ENDBRANCH   3   6
ENDBRANCH   1   2
BRANCH   1  16
ATOM     16  C   UNL     1      -0.152  -6.354  -1.175  0.00  0.00    +0.115 C 
BRANCH  16  18
ATOM     17  N   UNL     1       0.033  -4.185  -0.001  0.00  0.00    -0.284 N 
ATOM     18  C   UNL     1      -0.061  -4.850  -1.169  0.00  0.00    +0.219 C 
ATOM     19  O   UNL     1      -0.072  -4.238  -2.216  0.00  0.00    -0.275 OA
ATOM     20  H   UNL     1       0.124  -4.676   0.831  0.00  0.00    +0.155 HD
BRANCH  17  25
ATOM     21  C   UNL     1      -0.105   1.488   0.055  0.00  0.00    +0.044 C 
ATOM     22  C   UNL     1      -0.068  -0.019   0.040  0.00  0.00    -0.049 A 
ATOM     23  C   UNL     1      -0.653  -0.714  -1.002  0.00  0.00    +0.005 A 
ATOM     24  C   UNL     1      -0.622  -2.095  -1.019  0.00  0.00    +0.025 A 
ATOM     25  C   UNL     1      -0.000  -2.786   0.013  0.00  0.00    +0.052 A 
ATOM     26  C   UNL     1       0.588  -2.085   1.059  0.00  0.00    +0.062 A 
ATOM     27  C   UNL     1       0.557  -0.703   1.067  0.00  0.00    +0.025 A 
ATOM     28 CL   UNL     1       1.366  -2.944   2.351  0.00  0.00    -0.082 Cl
ENDBRANCH  17  25
ENDBRANCH  16  18
ENDBRANCH   1  16
TORSDOF 6
