REMARK  Name = ZINC12559197
REMARK  9 active torsions:
REMARK  status: ('A' for Active; 'I' for Inactive)
REMARK    1  A    between atoms: C_2  and  C_8
REMARK    2  A    between atoms: N_9  and  N_10
REMARK    3  A    between atoms: C_11  and  C_13
REMARK    4  A    between atoms: C_13  and  O_15
REMARK    5  A    between atoms: C_13  and  C_16
REMARK    6  A    between atoms: C_16  and  O_18
REMARK    7  A    between atoms: C_16  and  C_19
REMARK    8  A    between atoms: N_21  and  N_22
REMARK    9  A    between atoms: C_23  and  C_24
REMARK                            x       y       z     vdW  Elec       q    Type
REMARK                         _______ _______ _______ _____ _____    ______ ____
ROOT
ATOM      1  C   UNL     1       3.427   7.811   0.010  0.00  0.00    +0.239 C 
ENDROOT
BRANCH   1   3
ATOM      2  N   UNL     1       2.279   5.621   0.009  0.00  0.00    -0.205 N 
ATOM      3  C   UNL     1       3.440   6.304   0.002  0.00  0.00    +0.264 C 
ATOM      4  O   UNL     1       4.496   5.707  -0.011  0.00  0.00    -0.271 OA
ATOM      5  H   UNL     1       1.435   6.098   0.020  0.00  0.00    +0.177 HD
BRANCH   2   7
ATOM      6  C   UNL     1       1.173   3.561   0.009  0.00  0.00    +0.138 C 
ATOM      7  N   UNL     1       2.291   4.220   0.002  0.00  0.00    -0.188 NA
BRANCH   6   9
ATOM      8  C   UNL     1      -0.017   1.375   0.010  0.00  0.00    +0.011 A 
ATOM      9  C   UNL     1       1.185   2.087   0.002  0.00  0.00    -0.005 A 
ATOM     10  C   UNL     1       2.399   1.396  -0.013  0.00  0.00    +0.011 A 
ATOM     11  C   UNL     1       2.404   0.017  -0.021  0.00  0.00    +0.020 A 
ATOM     12  C   UNL     1       1.209  -0.683  -0.014  0.00  0.00    +0.041 A 
ATOM     13  C   UNL     1       0.002  -0.004   0.002  0.00  0.00    +0.020 A 
ATOM     14 CL   UNL     1       1.224  -2.419  -0.024  0.00  0.00    -0.084 Cl
ENDBRANCH   6   9
ENDBRANCH   2   7
ENDBRANCH   1   3
BRANCH   1  15
ATOM     15  O   UNL     1       4.764   8.300  -0.118  0.00  0.00    -0.379 OA
ATOM     16  H   UNL     1       5.356   8.016   0.592  0.00  0.00    +0.211 HD
ENDBRANCH   1  15
BRANCH   1  17
ATOM     17  C   UNL     1       2.826   8.310   1.325  0.00  0.00    +0.239 C 
BRANCH  17  18
ATOM     18  C   UNL     1       2.813   9.816   1.333  0.00  0.00    +0.264 C 
ATOM     19  O   UNL     1       1.757  10.414   1.346  0.00  0.00    -0.271 OA
ATOM     20  N   UNL     1       3.974  10.500   1.326  0.00  0.00    -0.205 N 
ATOM     21  H   UNL     1       4.818  10.023   1.315  0.00  0.00    +0.177 HD
BRANCH  20  22
ATOM     22  N   UNL     1       3.962  11.901   1.333  0.00  0.00    -0.188 NA
ATOM     23  C   UNL     1       5.080  12.560   1.326  0.00  0.00    +0.138 C 
BRANCH  23  24
ATOM     24  C   UNL     1       5.068  14.034   1.333  0.00  0.00    -0.005 A 
ATOM     25  C   UNL     1       3.854  14.725   1.354  0.00  0.00    +0.011 A 
ATOM     26  C   UNL     1       3.849  16.104   1.361  0.00  0.00    +0.020 A 
ATOM     27  C   UNL     1       5.044  16.804   1.348  0.00  0.00    +0.041 A 
ATOM     28  C   UNL     1       6.251  16.125   1.327  0.00  0.00    +0.020 A 
ATOM     29  C   UNL     1       6.270  14.746   1.326  0.00  0.00    +0.011 A 
ATOM     30 CL   UNL     1       5.029  18.540   1.357  0.00  0.00    -0.084 Cl
ENDBRANCH  23  24
ENDBRANCH  20  22
ENDBRANCH  17  18
BRANCH  17  31
ATOM     31  O   UNL     1       1.489   7.821   1.453  0.00  0.00    -0.379 OA
ATOM     32  H   UNL     1       0.897   8.105   0.743  0.00  0.00    +0.211 HD
ENDBRANCH  17  31
ENDBRANCH   1  17
TORSDOF 9
