REMARK  Name = ZINC09429459
REMARK  6 active torsions:
REMARK  status: ('A' for Active; 'I' for Inactive)
REMARK    1  A    between atoms: C_1  and  C_2
REMARK    2  A    between atoms: C_7  and  S_17
REMARK    3  A    between atoms: C_12  and  C_14
REMARK    4  A    between atoms: S_17  and  N_20
REMARK    5  A    between atoms: C_24  and  C_27
REMARK    6  A    between atoms: N_29  and  C_30
REMARK                            x       y       z     vdW  Elec       q    Type
REMARK                         _______ _______ _______ _____ _____    ______ ____
ROOT
ATOM      1  S   UNL     1      -3.893   1.720  -0.002  0.00  0.00    +0.061 S 
ATOM      2  O   UNL     1      -4.101   2.601   1.093  0.00  0.00    -0.153 OA
ATOM      3  O   UNL     1      -3.782   2.183  -1.341  0.00  0.00    -0.153 OA
ENDROOT
BRANCH   1   9
ATOM      4  C   UNL     1      -9.712  -2.287  -2.167  0.00  0.00    +0.029 C 
ATOM      5  C   UNL     1      -8.361  -2.631  -1.536  0.00  0.00    +0.083 C 
ATOM      6  C   UNL     1      -7.235  -1.841  -2.222  0.00  0.00    +0.059 C 
ATOM      7  C   UNL     1      -6.634  -0.999  -1.119  0.00  0.00    -0.022 A 
ATOM      8  C   UNL     1      -5.595  -0.088  -1.138  0.00  0.00    +0.034 A 
ATOM      9  C   UNL     1      -5.222   0.564   0.023  0.00  0.00    +0.106 A 
ATOM     10  C   UNL     1      -5.898   0.309   1.202  0.00  0.00    +0.030 A 
ATOM     11  C   UNL     1      -6.938  -0.595   1.225  0.00  0.00    +0.026 A 
ATOM     12  C   UNL     1      -7.317  -1.261   0.058  0.00  0.00    +0.040 A 
ATOM     13  N   UNL     1      -8.331  -2.204  -0.135  0.00  0.00    -0.268 N 
ATOM     14  C   UNL     1      -9.160  -2.655   0.828  0.00  0.00    +0.223 C 
ATOM     15  O   UNL     1      -9.002  -2.303   1.978  0.00  0.00    -0.275 OA
BRANCH  14  16
ATOM     16  C   UNL     1     -10.282  -3.597   0.476  0.00  0.00    +0.076 C 
ATOM     17  C   UNL     1     -11.711  -3.137   0.775  0.00  0.00    +0.013 C 
ATOM     18  C   UNL     1     -11.064  -4.228   1.630  0.00  0.00    +0.013 C 
ENDBRANCH  14  16
ENDBRANCH   1   9
BRANCH   1  19
ATOM     19  N   UNL     1      -2.505   0.878   0.324  0.00  0.00    -0.176 NA
ATOM     20  C   UNL     1      -1.716   0.286  -0.764  0.00  0.00    +0.109 C 
ATOM     21  C   UNL     1      -0.267   0.769  -0.643  0.00  0.00    +0.018 C 
ATOM     22  C   UNL     1       0.257   0.451   0.759  0.00  0.00    +0.015 C 
ATOM     23  C   UNL     1      -0.587   1.189   1.801  0.00  0.00    +0.091 C 
ATOM     24  C   UNL     1      -2.039   0.710   1.708  0.00  0.00    +0.122 C 
BRANCH  23  25
ATOM     25  C   UNL     1      -0.051   0.901   3.179  0.00  0.00    +0.218 C 
ATOM     26  O   UNL     1      -0.759   0.368   4.007  0.00  0.00    -0.275 OA
ATOM     27  N   UNL     1       1.217   1.235   3.492  0.00  0.00    -0.312 N 
ATOM     28  H   UNL     1       1.784   1.661   2.830  0.00  0.00    +0.149 HD
BRANCH  27  29
ATOM     29  C   UNL     1       1.739   0.955   4.832  0.00  0.00    +0.073 C 
ATOM     30  C   UNL     1       1.409   2.124   5.783  0.00  0.00    +0.022 C 
ATOM     31  C   UNL     1       2.658   2.238   6.692  0.00  0.00    +0.002 C 
ATOM     32  C   UNL     1       3.822   1.949   5.713  0.00  0.00    +0.002 C 
ATOM     33  C   UNL     1       3.273   0.843   4.788  0.00  0.00    +0.022 C 
ENDBRANCH  27  29
ENDBRANCH  23  25
ENDBRANCH   1  19
TORSDOF 5
