REMARK  Name = ZINC04016932
REMARK  8 active torsions:
REMARK  status: ('A' for Active; 'I' for Inactive)
REMARK    1  A    between atoms: C_1  and  C_2
REMARK    2  A    between atoms: C_3  and  C_24
REMARK    3  A    between atoms: C_4  and  N_14
REMARK    4  A    between atoms: C_6  and  C_8
REMARK    5  A    between atoms: N_14  and  N_15
REMARK    6  A    between atoms: C_16  and  C_17
REMARK    7  A    between atoms: C_16  and  C_18
REMARK    8  A    between atoms: C_24  and  C_25
REMARK                            x       y       z     vdW  Elec       q    Type
REMARK                         _______ _______ _______ _____ _____    ______ ____
ROOT
ATOM      1  C   UNL     1       2.633   2.045  -3.666  0.00  0.00    +0.066 C 
ATOM      2  C   UNL     1       1.437   1.342  -3.079  0.00  0.00    +0.047 A 
ATOM      3  C   UNL     1       0.524   2.039  -2.311  0.00  0.00    +0.019 A 
ATOM      4  C   UNL     1      -0.571   1.348  -1.785  0.00  0.00    +0.146 A 
ATOM      5  N   UNL     1      -0.697   0.050  -2.041  0.00  0.00    -0.211 NA
ATOM      6  C   UNL     1       0.201  -0.582  -2.782  0.00  0.00    +0.162 A 
ATOM      7  N   UNL     1       1.249   0.049  -3.294  0.00  0.00    -0.232 NA
ENDROOT
BRANCH   6   8
ATOM      8  C   UNL     1       0.029  -2.031  -3.048  0.00  0.00    +0.019 A 
ATOM      9  C   UNL     1       0.958  -2.714  -3.830  0.00  0.00    +0.011 A 
ATOM     10  C   UNL     1       0.796  -4.064  -4.069  0.00  0.00    +0.001 A 
ATOM     11  C   UNL     1      -0.293  -4.736  -3.544  0.00  0.00    +0.000 A 
ATOM     12  C   UNL     1      -1.222  -4.062  -2.771  0.00  0.00    +0.001 A 
ATOM     13  C   UNL     1      -1.066  -2.713  -2.521  0.00  0.00    +0.011 A 
ENDBRANCH   6   8
BRANCH   4  14
ATOM     14  N   UNL     1      -1.514   2.008  -1.014  0.00  0.00    -0.220 N 
ATOM     15  H   UNL     1      -1.415   2.956  -0.832  0.00  0.00    +0.176 HD
BRANCH  14  16
ATOM     16  N   UNL     1      -2.611   1.306  -0.497  0.00  0.00    -0.186 NA
ATOM     17  C   UNL     1      -3.554   1.944   0.128  0.00  0.00    +0.063 C 
ATOM     18  C   UNL     1      -4.636   1.177   0.844  0.00  0.00    +0.068 C 
BRANCH  17  19
ATOM     19  C   UNL     1      -3.566   3.419   0.136  0.00  0.00    -0.003 A 
ATOM     20  C   UNL     1      -3.985   4.111   1.275  0.00  0.00    +0.010 A 
ATOM     21  C   UNL     1      -3.989   5.490   1.277  0.00  0.00    +0.001 A 
ATOM     22  C   UNL     1      -3.589   6.188   0.151  0.00  0.00    +0.000 A 
ATOM     23  C   UNL     1      -3.178   5.509  -0.982  0.00  0.00    +0.001 A 
ATOM     24  C   UNL     1      -3.164   4.130  -0.997  0.00  0.00    +0.010 A 
ENDBRANCH  17  19
ENDBRANCH  14  16
ENDBRANCH   4  14
BRANCH   3  25
ATOM     25  C   UNL     1       0.705   3.512  -2.046  0.00  0.00    +0.067 C 
BRANCH  25  26
ATOM     26  C   UNL     1       1.517   3.700  -0.790  0.00  0.00    -0.030 C 
ATOM     27  C   UNL     1       2.610   4.422  -0.818  0.00  0.00    +0.004 C 
ENDBRANCH  25  26
ENDBRANCH   3  25
TORSDOF 6
