REMARK  Name = ZINC10122675
REMARK  9 active torsions:
REMARK  status: ('A' for Active; 'I' for Inactive)
REMARK    1  A    between atoms: C_1  and  C_2
REMARK    2  A    between atoms: C_2  and  C_3
REMARK    3  A    between atoms: C_3  and  C_4
REMARK    4  A    between atoms: C_4  and  N_5
REMARK    5  A    between atoms: C_6  and  C_8
REMARK    6  A    between atoms: C_13  and  N_14
REMARK    7  A    between atoms: N_14  and  C_15
REMARK    8  A    between atoms: C_15  and  N_17
REMARK    9  A    between atoms: C_18  and  C_20
REMARK                            x       y       z     vdW  Elec       q    Type
REMARK                         _______ _______ _______ _____ _____    ______ ____
ROOT
ATOM      1  C   UNL     1       4.736   0.931  -0.224  0.00  0.00    +0.058 A 
ATOM      2  C   UNL     1       5.952   1.609  -0.332  0.00  0.00    +0.015 A 
ATOM      3  C   UNL     1       5.974   2.987  -0.318  0.00  0.00    +0.001 A 
ATOM      4  C   UNL     1       4.795   3.705  -0.197  0.00  0.00    +0.002 A 
ATOM      5  C   UNL     1       3.586   3.049  -0.095  0.00  0.00    +0.024 A 
ATOM      6  C   UNL     1       3.544   1.661  -0.102  0.00  0.00    +0.045 A 
ENDROOT
BRANCH   1   8
ATOM      7  N   UNL     1       5.857  -1.242  -0.246  0.00  0.00    -0.311 N 
ATOM      8  C   UNL     1       4.704  -0.543  -0.240  0.00  0.00    +0.246 C 
ATOM      9  O   UNL     1       3.639  -1.129  -0.247  0.00  0.00    -0.270 OA
ATOM     10  H   UNL     1       6.707  -0.775  -0.240  0.00  0.00    +0.149 HD
BRANCH   7  11
ATOM     11  C   UNL     1       5.826  -2.707  -0.261  0.00  0.00    +0.104 C 
BRANCH  11  12
ATOM     12  C   UNL     1       7.257  -3.247  -0.265  0.00  0.00    +0.018 C 
BRANCH  12  14
ATOM     13  C   UNL     1       8.656  -5.317  -0.285  0.00  0.00    +0.004 C 
ATOM     14  C   UNL     1       7.225  -4.777  -0.281  0.00  0.00    -0.002 C 
ENDBRANCH  12  14
ENDBRANCH  11  12
ENDBRANCH   7  11
ENDBRANCH   1   8
BRANCH   6  15
ATOM     15  N   UNL     1       2.325   0.997   0.007  0.00  0.00    -0.296 N 
ATOM     16  H   UNL     1       2.228   0.261   0.630  0.00  0.00    +0.154 HD
BRANCH  15  17
ATOM     17  C   UNL     1       1.280   1.378  -0.754  0.00  0.00    +0.141 C 
ATOM     18  S   UNL     1       1.414   2.754  -1.765  0.00  0.00    -0.018 S 
BRANCH  17  19
ATOM     19  N   UNL     1       0.130   0.677  -0.720  0.00  0.00    -0.261 N 
ATOM     20  C   UNL     1      -0.913   1.054  -1.485  0.00  0.00    +0.285 C 
ATOM     21  O   UNL     1      -0.818   2.032  -2.203  0.00  0.00    -0.266 OA
ATOM     22  H   UNL     1       0.054  -0.103  -0.147  0.00  0.00    +0.157 HD
BRANCH  20  23
ATOM     23  C   UNL     1      -2.161   0.288  -1.452  0.00  0.00    +0.191 A 
ATOM     24  C   UNL     1      -3.289   0.560  -2.174  0.00  0.00    +0.056 A 
ATOM     25  C   UNL     1      -4.231  -0.422  -1.835  0.00  0.00    +0.058 A 
ATOM     26  C   UNL     1      -3.645  -1.242  -0.931  0.00  0.00    +0.171 A 
ATOM     27  O   UNL     1      -2.396  -0.813  -0.709  0.00  0.00    -0.444 OA
ATOM     28 BR   UNL     1      -4.454  -2.748  -0.124  0.00  0.00    -0.008 Br
ENDBRANCH  20  23
ENDBRANCH  17  19
ENDBRANCH  15  17
ENDBRANCH   6  15
TORSDOF 8
