REMARK  Name = ZINC39605105
REMARK  10 active torsions:
REMARK  status: ('A' for Active; 'I' for Inactive)
REMARK    1  A    between atoms: C_1  and  C_2
REMARK    2  A    between atoms: C_2  and  C_3
REMARK    3  A    between atoms: C_2  and  O_4
REMARK    4  A    between atoms: O_4  and  C_5
REMARK    5  A    between atoms: C_5  and  C_6
REMARK    6  A    between atoms: C_6  and  C_7
REMARK    7  A    between atoms: C_7  and  N_8
REMARK    8  A    between atoms: C_9  and  C_11
REMARK    9  A    between atoms: C_22  and  C_24
REMARK   10  A    between atoms: C_27  and  C_31
REMARK                            x       y       z     vdW  Elec       q    Type
REMARK                         _______ _______ _______ _____ _____    ______ ____
ROOT
ATOM      1  C   UNL     1       1.402  -2.883   8.486  0.00  0.00    +0.100 C 
ATOM      2  C   UNL     1       2.308  -1.640   8.637  0.00  0.00    +0.121 C 
ATOM      3  N   UNL     1       1.658  -0.828   9.692  0.00  0.00    -0.296 N 
ATOM      4  C   UNL     1       1.182  -1.824  10.682  0.00  0.00    +0.115 C 
ATOM      5  C   UNL     1       0.667  -3.002   9.831  0.00  0.00    -0.004 C 
ATOM      6  C   UNL     1      -0.839  -2.882   9.623  0.00  0.00    -0.010 C 
ATOM      7  C   UNL     1      -1.551  -3.060  10.967  0.00  0.00    -0.082 C 
ATOM      8  N   UNL     1      -1.218  -4.374  11.529  0.00  0.00    +0.379 N 
ATOM      9  C   UNL     1       0.221  -4.447  11.813  0.00  0.00    -0.082 C 
ATOM     10  C   UNL     1       1.008  -4.328  10.505  0.00  0.00    -0.010 C 
ATOM     11  C   UNL     1       1.528   0.512   9.740  0.00  0.00    +0.247 C 
ATOM     12  O   UNL     1       1.860   1.190   8.787  0.00  0.00    -0.270 OA
ATOM     13  H   UNL     1      -1.735  -4.514  12.384  0.00  0.00    -0.086 HD
ATOM     14  H   UNL     1      -1.466  -5.094  10.868  0.00  0.00    -0.086 HD
ENDROOT
BRANCH  11  15
ATOM     15  C   UNL     1       0.981   1.159  10.952  0.00  0.00    +0.040 A 
ATOM     16  C   UNL     1       1.004   0.487  12.175  0.00  0.00    +0.014 A 
ATOM     17  C   UNL     1       0.493   1.095  13.303  0.00  0.00    +0.016 A 
ATOM     18  C   UNL     1      -0.042   2.368  13.225  0.00  0.00    +0.090 A 
ATOM     19  C   UNL     1      -0.068   3.042  12.015  0.00  0.00    +0.136 A 
ATOM     20  C   UNL     1       0.446   2.445  10.879  0.00  0.00    +0.052 A 
ATOM     21  F   UNL     1      -0.593   4.285  11.945  0.00  0.00    -0.205 F 
BRANCH  18  22
ATOM     22  C   UNL     1      -0.598   3.026  14.462  0.00  0.00    +0.420 C 
ATOM     23  F   UNL     1      -0.462   2.160  15.552  0.00  0.00    -0.166 F 
ATOM     24  F   UNL     1       0.103   4.210  14.716  0.00  0.00    -0.166 F 
ATOM     25  F   UNL     1      -1.952   3.319  14.265  0.00  0.00    -0.166 F 
ENDBRANCH  18  22
ENDBRANCH  11  15
BRANCH   1  27
ATOM     26  N   UNL     1      -0.130  -3.745   6.746  0.00  0.00    -0.315 N 
ATOM     27  C   UNL     1       0.415  -2.679   7.365  0.00  0.00    +0.218 C 
ATOM     28  O   UNL     1       0.112  -1.557   7.021  0.00  0.00    -0.275 OA
ATOM     29  H   UNL     1       0.113  -4.643   7.021  0.00  0.00    +0.149 HD
BRANCH  26  30
ATOM     30  C   UNL     1      -1.089  -3.547   5.656  0.00  0.00    +0.106 C 
BRANCH  30  31
ATOM     31  C   UNL     1      -1.552  -4.907   5.131  0.00  0.00    +0.047 C 
BRANCH  31  32
ATOM     32  C   UNL     1      -2.554  -4.701   3.993  0.00  0.00    +0.161 C 
BRANCH  32  33
ATOM     33  O   UNL     1      -2.986  -5.971   3.502  0.00  0.00    -0.377 OA
BRANCH  33  35
ATOM     34  C   UNL     1      -3.183  -5.862   1.096  0.00  0.00    +0.037 C 
ATOM     35  C   UNL     1      -3.929  -5.891   2.432  0.00  0.00    +0.112 C 
ATOM     36  C   UNL     1      -4.853  -7.109   2.473  0.00  0.00    +0.037 C 
ENDBRANCH  33  35
ENDBRANCH  32  33
ENDBRANCH  31  32
ENDBRANCH  30  31
ENDBRANCH  26  30
ENDBRANCH   1  27
TORSDOF 8
