REMARK  Name = ZINC39217433
REMARK  8 active torsions:
REMARK  status: ('A' for Active; 'I' for Inactive)
REMARK    1  A    between atoms: C_1  and  C_2
REMARK    2  A    between atoms: C_8  and  C_10
REMARK    3  A    between atoms: N_12  and  C_26
REMARK    4  A    between atoms: C_13  and  C_16
REMARK    5  A    between atoms: C_19  and  O_24
REMARK    6  A    between atoms: C_20  and  O_22
REMARK    7  A    between atoms: O_22  and  C_23
REMARK    8  A    between atoms: O_24  and  C_25
REMARK                            x       y       z     vdW  Elec       q    Type
REMARK                         _______ _______ _______ _____ _____    ______ ____
ROOT
ATOM      1  C   UNL     1      -1.353  -0.691   1.919  0.00  0.00    +0.055 C 
ATOM      2  N   UNL     1      -2.385  -0.208   1.357  0.00  0.00    -0.187 NA
ATOM      3  N   UNL     1      -3.547  -0.283   2.123  0.00  0.00    -0.217 N 
ATOM      4  C   UNL     1      -3.226  -0.925   3.408  0.00  0.00    +0.134 C 
ATOM      5  C   UNL     1      -1.717  -1.222   3.287  0.00  0.00    +0.082 C 
ENDROOT
BRANCH   1  13
ATOM      6  C   UNL     1      -0.018   1.503   0.010  0.00  0.00    +0.040 C 
ATOM      7  C   UNL     1       0.002  -0.004   0.002  0.00  0.00    -0.054 C 
ATOM      8  C   UNL     1       0.005  -0.637  -1.160  0.00  0.00    +0.023 C 
ATOM      9  C   UNL     1       0.034  -2.113  -1.190  0.00  0.00    +0.026 C 
ATOM     10  N   UNL     1       0.413  -2.800  -0.030  0.00  0.00    -0.285 N 
ATOM     11  C   UNL     1       0.436  -2.165   1.152  0.00  0.00    +0.230 C 
ATOM     12  O   UNL     1       0.809  -2.774   2.133  0.00  0.00    -0.274 OA
ATOM     13  C   UNL     1       0.024  -0.735   1.310  0.00  0.00    +0.147 C 
ATOM     14  C   UNL     1      -0.295  -2.779  -2.300  0.00  0.00    +0.033 C 
ATOM     15  H   UNL     1       0.660  -3.737  -0.081  0.00  0.00    +0.155 HD
ENDBRANCH   1  13
BRANCH   4  16
ATOM     16  C   UNL     1      -3.502   0.012   4.555  0.00  0.00    -0.021 A 
ATOM     17  C   UNL     1      -3.219   1.359   4.428  0.00  0.00    +0.009 A 
ATOM     18  C   UNL     1      -3.471   2.224   5.477  0.00  0.00    +0.050 A 
ATOM     19  C   UNL     1      -4.008   1.740   6.659  0.00  0.00    +0.162 A 
ATOM     20  C   UNL     1      -4.294   0.384   6.787  0.00  0.00    +0.162 A 
ATOM     21  C   UNL     1      -4.044  -0.476   5.729  0.00  0.00    +0.055 A 
BRANCH  20  22
ATOM     22  O   UNL     1      -4.822  -0.095   7.945  0.00  0.00    -0.491 OA
ATOM     23  C   UNL     1      -5.089  -1.498   8.004  0.00  0.00    +0.277 C 
ENDBRANCH  20  22
BRANCH  19  24
ATOM     24  O   UNL     1      -4.256   2.589   7.692  0.00  0.00    -0.491 OA
ATOM     25  C   UNL     1      -3.938   3.967   7.490  0.00  0.00    +0.277 C 
ENDBRANCH  19  24
ENDBRANCH   4  16
BRANCH   3  26
ATOM     26  C   UNL     1      -4.808   0.176   1.735  0.00  0.00    +0.052 A 
ATOM     27  C   UNL     1      -5.891   0.048   2.596  0.00  0.00    +0.025 A 
ATOM     28  C   UNL     1      -7.136   0.502   2.209  0.00  0.00    +0.002 A 
ATOM     29  C   UNL     1      -7.306   1.085   0.966  0.00  0.00    +0.000 A 
ATOM     30  C   UNL     1      -6.230   1.214   0.106  0.00  0.00    +0.002 A 
ATOM     31  C   UNL     1      -4.981   0.767   0.489  0.00  0.00    +0.025 A 
ENDBRANCH   3  26
TORSDOF 5
