REMARK  Name = ZINC63926015
REMARK  5 active torsions:
REMARK  status: ('A' for Active; 'I' for Inactive)
REMARK    1  A    between atoms: C_4  and  N_7
REMARK    2  A    between atoms: C_8  and  C_29
REMARK    3  A    between atoms: C_10  and  C_14
REMARK    4  A    between atoms: N_16  and  N_17
REMARK    5  A    between atoms: C_18  and  C_20
REMARK                            x       y       z     vdW  Elec       q    Type
REMARK                         _______ _______ _______ _____ _____    ______ ____
ROOT
ATOM      1  C   UNL     1       6.129  -3.669   0.107  0.00  0.00    +0.260 C 
ATOM      2  O   UNL     1       7.339  -3.694   0.240  0.00  0.00    -0.269 OA
ATOM      3  N   UNL     1       5.444  -4.820  -0.041  0.00  0.00    -0.230 N 
ATOM      4  H   UNL     1       4.475  -4.806  -0.082  0.00  0.00    +0.173 HD
ENDROOT
BRANCH   1   7
ATOM      5  N   UNL     1       3.768  -0.773   0.107  0.00  0.00    -0.237 N 
ATOM      6  C   UNL     1       3.942  -2.235   0.102  0.00  0.00    +0.234 C 
ATOM      7  C   UNL     1       5.442  -2.433   0.108  0.00  0.00    +0.061 C 
ATOM      8  H   UNL     1       5.253   0.723   0.108  0.00  0.00    +0.169 HD
ATOM      9  C   UNL     1       5.999  -1.206   0.114  0.00  0.00    +0.098 C 
ATOM     10  N   UNL     1       5.058  -0.227   0.108  0.00  0.00    -0.270 N 
BRANCH   5  14
ATOM     11  C   UNL     1       0.167   1.318   0.097  0.00  0.00    +0.000 A 
ATOM     12  C   UNL     1       1.349   1.982   0.369  0.00  0.00    +0.002 A 
ATOM     13  C   UNL     1       2.545   1.291   0.373  0.00  0.00    +0.025 A 
ATOM     14  C   UNL     1       2.560  -0.071   0.104  0.00  0.00    +0.049 A 
ATOM     15  C   UNL     1       1.370  -0.735  -0.169  0.00  0.00    +0.025 A 
ATOM     16  C   UNL     1       0.178  -0.038  -0.171  0.00  0.00    +0.002 A 
ENDBRANCH   5  14
BRANCH   6  17
ATOM     17  C   UNL     1       3.314  -2.852   1.353  0.00  0.00    +0.414 C 
ATOM     18  F   UNL     1       1.928  -2.664   1.321  0.00  0.00    -0.168 F 
ATOM     19  F   UNL     1       3.598  -4.222   1.390  0.00  0.00    -0.168 F 
ATOM     20  F   UNL     1       3.841  -2.236   2.493  0.00  0.00    -0.168 F 
ENDBRANCH   6  17
ENDBRANCH   1   7
BRANCH   3  21
ATOM     21  N   UNL     1       6.131  -6.037  -0.136  0.00  0.00    -0.230 N 
ATOM     22  C   UNL     1       5.446  -7.188  -0.283  0.00  0.00    +0.258 C 
ATOM     23  O   UNL     1       4.231  -7.171  -0.335  0.00  0.00    -0.269 OA
ATOM     24  H   UNL     1       7.100  -6.051  -0.095  0.00  0.00    +0.173 HD
BRANCH  22  25
ATOM     25  C   UNL     1       6.165  -8.463  -0.383  0.00  0.00    +0.044 C 
ATOM     26  C   UNL     1       5.619  -9.717  -0.541  0.00  0.00    +0.008 A 
ATOM     27  C   UNL     1       4.283 -10.179  -0.653  0.00  0.00    +0.010 A 
ATOM     28  C   UNL     1       4.029 -11.496  -0.803  0.00  0.00    +0.001 A 
ATOM     29  C   UNL     1       5.049 -12.460  -0.855  0.00  0.00    +0.002 A 
ATOM     30  C   UNL     1       6.354 -12.126  -0.757  0.00  0.00    +0.026 A 
ATOM     31  C   UNL     1       6.720 -10.710  -0.592  0.00  0.00    +0.043 A 
ATOM     32  N   UNL     1       7.875 -10.117  -0.474  0.00  0.00    -0.380 N 
ATOM     33  C   UNL     1       7.663  -8.672  -0.340  0.00  0.00    +0.154 C 
ATOM     34  H   UNL     1       8.737 -10.561  -0.479  0.00  0.00    +0.160 HD
ENDBRANCH  22  25
ENDBRANCH   3  21
TORSDOF 5
