REMARK  Name = ZINC17297465
REMARK  8 active torsions:
REMARK  status: ('A' for Active; 'I' for Inactive)
REMARK    1  A    between atoms: C_1  and  C_2
REMARK    2  A    between atoms: C_2  and  O_3
REMARK    3  A    between atoms: O_3  and  C_4
REMARK    4  A    between atoms: C_4  and  C_6
REMARK    5  A    between atoms: C_10  and  N_11
REMARK    6  A    between atoms: C_13  and  C_24
REMARK    7  A    between atoms: C_17  and  O_22
REMARK    8  A    between atoms: O_22  and  C_23
REMARK                            x       y       z     vdW  Elec       q    Type
REMARK                         _______ _______ _______ _____ _____    ______ ____
ROOT
ATOM      1  N   UNL     1      -3.023  -2.508   2.484  0.00  0.00    -0.319 N 
ATOM      2  C   UNL     1      -3.796  -2.853   3.498  0.00  0.00    +0.212 A 
ATOM      3  C   UNL     1      -3.309  -2.777   4.887  0.00  0.00    +0.097 A 
ATOM      4  C   UNL     1      -4.259  -2.617   5.886  0.00  0.00    +0.030 A 
ATOM      5  C   UNL     1      -5.627  -2.571   5.509  0.00  0.00    +0.022 A 
ATOM      6  C   UNL     1      -6.608  -2.208   6.441  0.00  0.00    +0.057 A 
ATOM      7  C   UNL     1      -7.931  -2.146   6.051  0.00  0.00    +0.121 A 
ATOM      8  C   UNL     1      -8.291  -2.441   4.739  0.00  0.00    +0.049 A 
ATOM      9  C   UNL     1      -7.335  -2.808   3.816  0.00  0.00    +0.050 A 
ATOM     10  C   UNL     1      -6.001  -2.887   4.190  0.00  0.00    +0.138 A 
ATOM     11  O   UNL     1      -5.066  -3.285   3.296  0.00  0.00    -0.439 OA
ATOM     12  H   UNL     1      -2.149  -2.121   2.650  0.00  0.00    +0.169 HD
ENDROOT
BRANCH   1  17
ATOM     13  C   UNL     1      -2.789  -2.399   0.017  0.00  0.00    +0.093 A 
ATOM     14  C   UNL     1      -3.482  -2.711  -1.222  0.00  0.00    -0.021 A 
ATOM     15  C   UNL     1      -4.713  -3.256  -1.099  0.00  0.00    -0.004 A 
ATOM     16  S   UNL     1      -4.994  -3.375   0.646  0.00  0.00    -0.075 S 
ATOM     17  C   UNL     1      -3.448  -2.694   1.219  0.00  0.00    +0.095 A 
ATOM     18  C   UNL     1      -5.636  -3.667  -2.206  0.00  0.00    +0.043 C 
ATOM     19  C   UNL     1      -5.136  -3.038  -3.514  0.00  0.00    +0.005 C 
ATOM     20  C   UNL     1      -3.629  -3.287  -3.634  0.00  0.00    +0.005 C 
ATOM     21  C   UNL     1      -2.880  -2.449  -2.599  0.00  0.00    +0.037 C 
BRANCH  13  22
ATOM     22  C   UNL     1      -1.493  -1.824   0.010  0.00  0.00    +0.342 C 
ATOM     23  O   UNL     1      -0.510  -2.541   0.006  0.00  0.00    -0.245 OA
BRANCH  22  24
ATOM     24  O   UNL     1      -1.351  -0.482   0.009  0.00  0.00    -0.461 OA
BRANCH  24  26
ATOM     25  C   UNL     1      -0.055   1.558   0.001  0.00  0.00    +0.048 C 
ATOM     26  C   UNL     1      -0.016   0.028   0.002  0.00  0.00    +0.229 C 
ENDBRANCH  24  26
ENDBRANCH  22  24
ENDBRANCH  13  22
ENDBRANCH   1  17
BRANCH   3  27
ATOM     27  C   UNL     1      -1.873  -2.866   5.202  0.00  0.00    +0.247 C 
ATOM     28  O   UNL     1      -1.055  -2.919   4.303  0.00  0.00    -0.270 OA
ATOM     29  N   UNL     1      -1.465  -2.888   6.487  0.00  0.00    -0.325 N 
ATOM     30  H   UNL     1      -2.118  -2.921   7.203  0.00  0.00    +0.145 HD
ATOM     31  H   UNL     1      -0.518  -2.872   6.695  0.00  0.00    +0.145 HD
ENDBRANCH   3  27
BRANCH   7  32
ATOM     32  O   UNL     1      -8.886  -1.796   6.953  0.00  0.00    -0.495 OA
ATOM     33  C   UNL     1     -10.236  -1.752   6.484  0.00  0.00    +0.277 C 
ENDBRANCH   7  32
TORSDOF 6
