REMARK  Name = ZINC35672070
REMARK  15 active torsions:
REMARK  status: ('A' for Active; 'I' for Inactive)
REMARK    1  A    between atoms: C_1  and  C_2
REMARK    2  A    between atoms: C_5  and  O_9
REMARK    3  A    between atoms: C_6  and  C_8
REMARK    4  A    between atoms: O_9  and  C_10
REMARK    5  A    between atoms: C_10  and  C_11
REMARK    6  A    between atoms: C_13  and  C_36
REMARK    7  A    between atoms: C_14  and  N_16
REMARK    8  A    between atoms: N_16  and  C_17
REMARK    9  A    between atoms: C_17  and  C_18
REMARK   10  A    between atoms: C_18  and  C_20
REMARK   11  A    between atoms: C_18  and  N_30
REMARK   12  A    between atoms: C_22  and  O_28
REMARK   13  A    between atoms: C_25  and  O_26
REMARK   14  A    between atoms: O_26  and  C_27
REMARK   15  A    between atoms: O_28  and  C_29
REMARK                            x       y       z     vdW  Elec       q    Type
REMARK                         _______ _______ _______ _____ _____    ______ ____
ROOT
ATOM      1  N   UNL     1       2.816  -8.525   0.327  0.00  0.00    -0.314 N 
ATOM      2  H   UNL     1       3.244  -8.806   1.151  0.00  0.00    +0.149 HD
ENDROOT
BRANCH   1   6
ATOM      3  C   UNL     1       0.857  -5.690  -0.391  0.00  0.00    +0.237 A 
ATOM      4  N   UNL     1       1.106  -5.463   0.863  0.00  0.00    -0.198 NA
ATOM      5  C   UNL     1       1.877  -6.479   1.345  0.00  0.00    +0.201 A 
ATOM      6  C   UNL     1       2.088  -7.354   0.293  0.00  0.00    +0.225 A 
ATOM      7  O   UNL     1       1.438  -6.841  -0.768  0.00  0.00    -0.421 OA
BRANCH   5   8
ATOM      8  C   UNL     1       2.374  -6.614   2.681  0.00  0.00    +0.124 C 
ATOM      9  N   UNL     1       2.768  -6.721   3.741  0.00  0.00    -0.189 NA
ENDBRANCH   5   8
BRANCH   3  10
ATOM     10  C   UNL     1       0.034  -4.800  -1.286  0.00  0.00    +0.324 C 
BRANCH  10  11
ATOM     11  O   UNL     1       0.886  -3.843  -1.919  0.00  0.00    -0.482 OA
BRANCH  11  16
ATOM     12  C   UNL     1      -1.553  -0.172  -5.426  0.00  0.00    +0.044 C 
ATOM     13  C   UNL     1      -0.900  -1.154  -4.488  0.00  0.00    -0.050 A 
ATOM     14  C   UNL     1      -1.667  -2.108  -3.844  0.00  0.00    +0.007 A 
ATOM     15  C   UNL     1      -1.072  -3.009  -2.983  0.00  0.00    +0.046 A 
ATOM     16  C   UNL     1       0.298  -2.957  -2.765  0.00  0.00    +0.124 A 
ATOM     17  C   UNL     1       1.065  -2.000  -3.413  0.00  0.00    -0.009 A 
ATOM     18  C   UNL     1       0.465  -1.104  -4.277  0.00  0.00    +0.010 A 
ATOM     19  C   UNL     1       2.553  -1.941  -3.179  0.00  0.00    +0.047 C 
ENDBRANCH  11  16
ENDBRANCH  10  11
ENDBRANCH   3  10
ENDBRANCH   1   6
BRANCH   1  20
ATOM     20  C   UNL     1       2.943  -9.343  -0.881  0.00  0.00    +0.094 C 
BRANCH  20  21
ATOM     21  C   UNL     1       3.893 -10.511  -0.608  0.00  0.00    -0.017 C 
BRANCH  21  22
ATOM     22  N   UNL     1       3.424 -11.260   0.566  0.00  0.00    +0.385 N 
ATOM     23  C   UNL     1       4.267 -12.447   0.756  0.00  0.00    -0.078 C 
ATOM     24  C   UNL     1       3.833 -13.186   2.024  0.00  0.00    -0.019 C 
ATOM     25  C   UNL     1       2.370 -13.615   1.883  0.00  0.00    -0.004 C 
ATOM     26  C   UNL     1       1.510 -12.378   1.610  0.00  0.00    -0.019 C 
ATOM     27  C   UNL     1       2.029 -11.668   0.358  0.00  0.00    -0.078 C 
ATOM     28  H   UNL     1       3.483 -10.673   1.384  0.00  0.00    -0.081 HD
ENDBRANCH  21  22
BRANCH  21  29
ATOM     29  C   UNL     1       5.279  -9.980  -0.344  0.00  0.00    -0.014 A 
ATOM     30  C   UNL     1       5.740  -9.867   0.954  0.00  0.00    +0.051 A 
ATOM     31  C   UNL     1       7.015  -9.380   1.196  0.00  0.00    +0.121 A 
ATOM     32  C   UNL     1       7.828  -9.005   0.137  0.00  0.00    +0.049 A 
ATOM     33  C   UNL     1       7.367  -9.118  -1.161  0.00  0.00    +0.049 A 
ATOM     34  C   UNL     1       6.093  -9.611  -1.404  0.00  0.00    +0.122 A 
BRANCH  34  35
ATOM     35  O   UNL     1       5.642  -9.728  -2.681  0.00  0.00    -0.495 OA
ATOM     36  C   UNL     1       6.534  -9.329  -3.724  0.00  0.00    +0.277 C 
ENDBRANCH  34  35
BRANCH  31  37
ATOM     37  O   UNL     1       7.468  -9.268   2.474  0.00  0.00    -0.495 OA
ATOM     38  C   UNL     1       8.791  -8.758   2.650  0.00  0.00    +0.277 C 
ENDBRANCH  31  37
ENDBRANCH  21  29
ENDBRANCH  20  21
ENDBRANCH   1  20
TORSDOF 11
