REMARK  Name = ZINC38705067
REMARK  11 active torsions:
REMARK  status: ('A' for Active; 'I' for Inactive)
REMARK    1  A    between atoms: C_1  and  C_2
REMARK    2  A    between atoms: C_2  and  C_3
REMARK    3  A    between atoms: C_6  and  C_9
REMARK    4  A    between atoms: C_12  and  C_24
REMARK    5  A    between atoms: N_19  and  C_20
REMARK    6  A    between atoms: C_20  and  C_21
REMARK    7  A    between atoms: C_21  and  O_22
REMARK    8  A    between atoms: O_22  and  C_23
REMARK    9  A    between atoms: C_25  and  C_32
REMARK   10  A    between atoms: C_27  and  C_31
REMARK   11  A    between atoms: C_29  and  O_30
REMARK                            x       y       z     vdW  Elec       q    Type
REMARK                         _______ _______ _______ _____ _____    ______ ____
ROOT
ATOM      1  C   UNL     1       2.496  -1.717   4.539  0.00  0.00    +0.141 C 
ATOM      2  C   UNL     1       2.991  -0.684   5.514  0.00  0.00    +0.035 A 
ATOM      3  C   UNL     1       3.796   0.439   5.735  0.00  0.00    +0.102 A 
ATOM      4  N   UNL     1       3.659   0.779   7.002  0.00  0.00    -0.173 NA
ATOM      5  N   UNL     1       2.848  -0.018   7.602  0.00  0.00    -0.272 N 
ATOM      6  H   UNL     1       2.598   0.043   8.537  0.00  0.00    +0.189 HD
ATOM      7  C   UNL     1       2.390  -0.962   6.727  0.00  0.00    +0.126 A 
ATOM      8  C   UNL     1       1.528  -2.137   6.562  0.00  0.00    +0.266 C 
ATOM      9  O   UNL     1       0.858  -2.636   7.446  0.00  0.00    -0.268 OA
ATOM     10  N   UNL     1       1.582  -2.585   5.293  0.00  0.00    -0.283 N 
ENDROOT
BRANCH   3  11
ATOM     11  C   UNL     1       4.647   1.122   4.729  0.00  0.00    +0.047 A 
ATOM     12  C   UNL     1       4.601   2.507   4.598  0.00  0.00    -0.037 A 
ATOM     13  C   UNL     1       5.394   3.138   3.661  0.00  0.00    +0.007 A 
ATOM     14  C   UNL     1       6.237   2.397   2.851  0.00  0.00    -0.047 A 
ATOM     15  C   UNL     1       6.291   1.022   2.973  0.00  0.00    +0.049 A 
ATOM     16  C   UNL     1       5.504   0.377   3.913  0.00  0.00    +0.127 A 
ATOM     17  C   UNL     1       7.100   3.095   1.831  0.00  0.00    +0.044 C 
ATOM     18  C   UNL     1       3.684   3.317   5.478  0.00  0.00    +0.044 C 
BRANCH  16  19
ATOM     19  O   UNL     1       5.561  -0.975   4.038  0.00  0.00    -0.506 OA
ATOM     20  H   UNL     1       4.981  -1.451   3.428  0.00  0.00    +0.292 HD
ENDBRANCH  16  19
ENDBRANCH   3  11
BRANCH   1  24
ATOM     21  C   UNL     1       0.411   0.172   1.325  0.00  0.00    -0.048 A 
ATOM     22  C   UNL     1       1.650  -0.400   1.104  0.00  0.00    +0.004 A 
ATOM     23  C   UNL     1       2.325  -1.011   2.144  0.00  0.00    +0.006 A 
ATOM     24  C   UNL     1       1.761  -1.050   3.405  0.00  0.00    -0.022 A 
ATOM     25  C   UNL     1       0.523  -0.477   3.627  0.00  0.00    +0.006 A 
ATOM     26  C   UNL     1      -0.150   0.137   2.587  0.00  0.00    +0.004 A 
BRANCH  21  28
ATOM     27  C   UNL     1       0.068   2.315   0.126  0.00  0.00    +0.009 C 
ATOM     28  C   UNL     1      -0.324   0.838   0.191  0.00  0.00    +0.032 C 
ENDBRANCH  21  28
ENDBRANCH   1  24
BRANCH  10  29
ATOM     29  C   UNL     1       0.855  -3.738   4.757  0.00  0.00    +0.137 C 
BRANCH  29  30
ATOM     30  C   UNL     1       1.707  -4.999   4.920  0.00  0.00    +0.178 C 
BRANCH  30  31
ATOM     31  O   UNL     1       1.884  -5.277   6.310  0.00  0.00    -0.381 OA
ATOM     32  C   UNL     1       2.669  -6.441   6.574  0.00  0.00    +0.194 C 
ENDBRANCH  30  31
ENDBRANCH  29  30
ENDBRANCH  10  29
TORSDOF 7
