REMARK  Name = ZINC02881335
REMARK  6 active torsions:
REMARK  status: ('A' for Active; 'I' for Inactive)
REMARK    1  A    between atoms: C_1  and  C_2
REMARK    2  A    between atoms: C_2  and  C_3
REMARK    3  A    between atoms: C_8  and  N_9
REMARK    4  A    between atoms: N_9  and  C_10
REMARK    5  A    between atoms: C_10  and  N_12
REMARK    6  A    between atoms: C_13  and  C_15
REMARK                            x       y       z     vdW  Elec       q    Type
REMARK                         _______ _______ _______ _____ _____    ______ ____
ROOT
ATOM      1  N   UNL     1       3.730  -2.070   0.330  0.00  0.00    -0.264 N 
ATOM      2  C   UNL     1       3.721  -0.782   0.727  0.00  0.00    +0.250 C 
ATOM      3  O   UNL     1       4.755  -0.246   1.072  0.00  0.00    -0.270 OA
ATOM      4  H   UNL     1       2.904  -2.499   0.054  0.00  0.00    +0.157 HD
ENDROOT
BRANCH   2   5
ATOM      5  C   UNL     1       2.455  -0.024   0.743  0.00  0.00    +0.041 A 
ATOM      6  C   UNL     1       1.265  -0.639   0.346  0.00  0.00    +0.017 A 
ATOM      7  C   UNL     1       0.086   0.072   0.361  0.00  0.00    +0.050 A 
ATOM      8  C   UNL     1       0.073   1.401   0.770  0.00  0.00    +0.162 A 
ATOM      9  C   UNL     1       1.256   2.018   1.169  0.00  0.00    +0.163 A 
ATOM     10  C   UNL     1       2.444   1.311   1.155  0.00  0.00    +0.062 A 
ATOM     11  O   UNL     1       1.259   3.317   1.579  0.00  0.00    -0.485 OA
ATOM     12  C   UNL     1       0.117   4.106   1.227  0.00  0.00    +0.270 C 
ATOM     13  C   UNL     1      -1.145   3.291   1.540  0.00  0.00    +0.270 C 
ATOM     14  O   UNL     1      -1.101   2.085   0.768  0.00  0.00    -0.485 OA
ENDBRANCH   2   5
BRANCH   1  15
ATOM     15  C   UNL     1       4.886  -2.763   0.315  0.00  0.00    +0.141 C 
ATOM     16  S   UNL     1       6.343  -2.007   0.801  0.00  0.00    -0.018 S 
BRANCH  15  17
ATOM     17  N   UNL     1       4.894  -4.051  -0.082  0.00  0.00    -0.296 N 
ATOM     18  H   UNL     1       4.060  -4.503  -0.282  0.00  0.00    +0.154 HD
BRANCH  17  24
ATOM     19  C   UNL     1       6.232  -6.027   0.289  0.00  0.00    -0.025 A 
ATOM     20  C   UNL     1       7.430  -6.703   0.161  0.00  0.00    +0.019 A 
ATOM     21  C   UNL     1       8.508  -6.091  -0.453  0.00  0.00    +0.014 A 
ATOM     22  C   UNL     1       8.389  -4.803  -0.944  0.00  0.00    +0.016 A 
ATOM     23  C   UNL     1       7.192  -4.124  -0.823  0.00  0.00    +0.024 A 
ATOM     24  C   UNL     1       6.108  -4.736  -0.207  0.00  0.00    +0.036 A 
ATOM     25  I   UNL     1      10.325  -7.117  -0.640  0.00  0.00    -0.044 I 
BRANCH  19  27
ATOM     26  C   UNL     1       4.165  -7.342  -0.094  0.00  0.00    +0.009 C 
ATOM     27  C   UNL     1       5.060  -6.692   0.963  0.00  0.00    +0.033 C 
ENDBRANCH  19  27
ENDBRANCH  17  24
ENDBRANCH  15  17
ENDBRANCH   1  15
TORSDOF 5
