REMARK  Name = ZINC53529948
REMARK  5 active torsions:
REMARK  status: ('A' for Active; 'I' for Inactive)
REMARK    1  A    between atoms: C_1  and  C_2
REMARK    2  A    between atoms: C_2  and  C_4
REMARK    3  A    between atoms: C_2  and  N_9
REMARK    4  A    between atoms: C_4  and  N_5
REMARK    5  A    between atoms: N_5  and  C_6
REMARK                            x       y       z     vdW  Elec       q    Type
REMARK                         _______ _______ _______ _____ _____    ______ ____
ROOT
ATOM      1  N   UNL     1      -1.372  -0.511   0.012  0.00  0.00    -0.298 N 
ATOM      2  C   UNL     1      -2.216  -0.190  -1.003  0.00  0.00    +0.202 A 
ATOM      3  N   UNL     1      -3.447  -0.599  -1.065  0.00  0.00    -0.237 NA
ATOM      4  C   UNL     1      -3.982  -1.391  -0.103  0.00  0.00    +0.078 A 
ATOM      5  C   UNL     1      -5.306  -1.832  -0.170  0.00  0.00    +0.029 A 
ATOM      6  C   UNL     1      -5.809  -2.635   0.828  0.00  0.00    +0.017 A 
ATOM      7  C   UNL     1      -5.016  -3.013   1.905  0.00  0.00    +0.019 A 
ATOM      8  C   UNL     1      -3.707  -2.590   1.994  0.00  0.00    +0.030 A 
ATOM      9  C   UNL     1      -3.179  -1.777   0.992  0.00  0.00    +0.066 A 
ATOM     10  C   UNL     1      -1.788  -1.300   1.030  0.00  0.00    +0.262 A 
ATOM     11  O   UNL     1      -1.042  -1.600   1.944  0.00  0.00    -0.267 OA
ATOM     12 BR   UNL     1      -5.738  -4.116   3.260  0.00  0.00    -0.050 Br
ENDROOT
BRANCH   1  14
ATOM     13  C   UNL     1      -0.019   1.526   0.010  0.00  0.00    +0.029 C 
ATOM     14  C   UNL     1       0.002  -0.004   0.002  0.00  0.00    +0.072 C 
BRANCH  14  15
ATOM     15  C   UNL     1       0.718  -0.497  -1.257  0.00  0.00    -0.057 C 
BRANCH  15  16
ATOM     16  N   UNL     1       0.634  -1.962  -1.326  0.00  0.00    +0.382 N 
ATOM     17  H   UNL     1       1.072  -2.363  -0.510  0.00  0.00    -0.085 HD
ATOM     18  H   UNL     1      -0.335  -2.242  -1.358  0.00  0.00    -0.085 HD
BRANCH  16  19
ATOM     19  C   UNL     1       1.321  -2.436  -2.534  0.00  0.00    -0.072 C 
ATOM     20  C   UNL     1       0.477  -3.144  -3.596  0.00  0.00    -0.017 C 
ATOM     21  C   UNL     1       1.447  -3.949  -2.729  0.00  0.00    -0.017 C 
ENDBRANCH  16  19
ENDBRANCH  15  16
ENDBRANCH  14  15
ENDBRANCH   1  14
TORSDOF 4
