REMARK  Name = ZINC00195031
REMARK  8 active torsions:
REMARK  status: ('A' for Active; 'I' for Inactive)
REMARK    1  A    between atoms: C_1  and  C_2
REMARK    2  A    between atoms: C_3  and  C_23
REMARK    3  A    between atoms: C_4  and  C_16
REMARK    4  A    between atoms: C_10  and  C_14
REMARK    5  A    between atoms: C_10  and  C_15
REMARK    6  A    between atoms: C_19  and  O_22
REMARK    7  A    between atoms: C_23  and  O_25
REMARK    8  A    between atoms: O_25  and  C_26
REMARK                            x       y       z     vdW  Elec       q    Type
REMARK                         _______ _______ _______ _____ _____    ______ ____
ROOT
ATOM      1  C   UNL     1      -2.481  -2.762   0.823  0.00  0.00    +0.061 C 
ATOM      2  C   UNL     1      -1.210  -2.071   0.403  0.00  0.00    +0.031 C 
ATOM      3  C   UNL     1      -0.222  -2.781  -0.170  0.00  0.00    +0.153 C 
ATOM      4  C   UNL     1       1.059  -2.129  -0.596  0.00  0.00    +0.073 C 
ATOM      5  C   UNL     1       0.902  -0.632  -0.691  0.00  0.00    +0.025 C 
ATOM      6  C   UNL     1      -0.137  -0.009  -0.095  0.00  0.00    +0.049 C 
ATOM      7  N   UNL     1      -1.068  -0.727   0.607  0.00  0.00    -0.260 NA
ATOM      8  C   UNL     1      -0.301   1.488  -0.186  0.00  0.00    +0.062 C 
ATOM      9  C   UNL     1       1.071   2.151  -0.299  0.00  0.00    -0.023 C 
ATOM     10  C   UNL     1       1.784   1.590  -1.534  0.00  0.00    +0.086 C 
ATOM     11  C   UNL     1       1.865   0.093  -1.415  0.00  0.00    +0.162 C 
ATOM     12  O   UNL     1       2.778  -0.500  -1.954  0.00  0.00    -0.292 OA
ATOM     13  C   UNL     1       0.900   3.665  -0.447  0.00  0.00    +0.011 C 
ATOM     14  C   UNL     1       1.892   1.842   0.954  0.00  0.00    +0.011 C 
ENDROOT
BRANCH   4  15
ATOM     15  C   UNL     1       2.130  -2.451   0.414  0.00  0.00    -0.038 A 
ATOM     16  C   UNL     1       1.988  -2.037   1.726  0.00  0.00    +0.008 A 
ATOM     17  C   UNL     1       2.965  -2.335   2.655  0.00  0.00    +0.045 A 
ATOM     18  C   UNL     1       4.095  -3.042   2.269  0.00  0.00    +0.117 A 
ATOM     19  C   UNL     1       4.237  -3.452   0.952  0.00  0.00    +0.045 A 
ATOM     20  C   UNL     1       3.255  -3.156   0.027  0.00  0.00    +0.008 A 
BRANCH  18  21
ATOM     21  O   UNL     1       5.061  -3.332   3.181  0.00  0.00    -0.507 OA
ATOM     22  H   UNL     1       5.749  -2.656   3.252  0.00  0.00    +0.292 HD
ENDBRANCH  18  21
ENDBRANCH   4  15
BRANCH   3  23
ATOM     23  C   UNL     1      -0.397  -4.169  -0.378  0.00  0.00    +0.316 C 
ATOM     24  O   UNL     1      -0.608  -4.594  -1.499  0.00  0.00    -0.250 OA
BRANCH  23  25
ATOM     25  O   UNL     1      -0.328  -5.021   0.665  0.00  0.00    -0.467 OA
ATOM     26  C   UNL     1      -0.513  -6.410   0.382  0.00  0.00    +0.280 C 
ENDBRANCH  23  25
ENDBRANCH   3  23
TORSDOF 4
