REMARK  Name = ZINC63710275
REMARK  7 active torsions:
REMARK  status: ('A' for Active; 'I' for Inactive)
REMARK    1  A    between atoms: C_1  and  C_2
REMARK    2  A    between atoms: C_4  and  N_9
REMARK    3  A    between atoms: C_10  and  S_21
REMARK    4  A    between atoms: C_15  and  C_18
REMARK    5  A    between atoms: S_21  and  C_22
REMARK    6  A    between atoms: C_22  and  C_23
REMARK    7  A    between atoms: N_25  and  C_26
REMARK                            x       y       z     vdW  Elec       q    Type
REMARK                         _______ _______ _______ _____ _____    ______ ____
ROOT
ATOM      1  N   UNL     1       0.007  -2.798  -2.430  0.00  0.00    -0.253 N 
ATOM      2  C   UNL     1       0.137  -4.258  -2.465  0.00  0.00    +0.260 C 
ATOM      3  N   UNL     1      -0.865  -4.893  -3.326  0.00  0.00    -0.230 NA
ATOM      4  C   UNL     1      -1.354  -4.255  -4.339  0.00  0.00    +0.185 C 
ATOM      5  C   UNL     1      -1.003  -2.816  -4.593  0.00  0.00    +0.083 C 
ATOM      6  C   UNL     1      -1.664  -2.481  -5.705  0.00  0.00    +0.075 C 
ATOM      7  N   UNL     1      -2.377  -3.554  -6.108  0.00  0.00    -0.152 NA
ATOM      8  N   UNL     1      -2.222  -4.572  -5.331  0.00  0.00    -0.129 NA
ATOM      9  C   UNL     1      -1.621  -1.139  -6.390  0.00  0.00    +0.068 C 
ATOM     10  C   UNL     1      -0.112  -2.112  -3.652  0.00  0.00    +0.133 C 
ATOM     11  N   UNL     1       0.493  -0.989  -3.923  0.00  0.00    -0.285 NA
ATOM     12  H   UNL     1       0.368  -0.567  -4.787  0.00  0.00    +0.188 HD
ENDROOT
BRANCH   1  16
ATOM     13  C   UNL     1      -0.083   1.468   0.011  0.00  0.00    +0.045 C 
ATOM     14  C   UNL     1      -0.048  -0.039  -0.001  0.00  0.00    -0.030 A 
ATOM     15  C   UNL     1      -0.037  -0.719  -1.203  0.00  0.00    +0.028 A 
ATOM     16  C   UNL     1      -0.004  -2.107  -1.214  0.00  0.00    +0.038 A 
ATOM     17  C   UNL     1       0.017  -2.808  -0.015  0.00  0.00    +0.025 A 
ATOM     18  C   UNL     1       0.005  -2.123   1.184  0.00  0.00    +0.022 A 
ATOM     19  C   UNL     1      -0.022  -0.739   1.192  0.00  0.00    +0.044 A 
ATOM     20 CL   UNL     1      -0.029   0.119   2.701  0.00  0.00    -0.083 Cl
ENDBRANCH   1  16
BRANCH   2  21
ATOM     21  S   UNL     1       1.790  -4.684  -3.079  0.00  0.00    -0.106 S 
BRANCH  21  22
ATOM     22  C   UNL     1       1.846  -3.946  -4.735  0.00  0.00    +0.168 C 
BRANCH  22  23
ATOM     23  C   UNL     1       3.185  -4.229  -5.367  0.00  0.00    +0.227 C 
ATOM     24  O   UNL     1       4.019  -4.867  -4.760  0.00  0.00    -0.275 OA
ATOM     25  N   UNL     1       3.455  -3.774  -6.606  0.00  0.00    -0.285 N 
ATOM     26  H   UNL     1       2.821  -3.198  -7.061  0.00  0.00    +0.155 HD
BRANCH  25  27
ATOM     27  C   UNL     1       4.652  -4.133  -7.238  0.00  0.00    +0.033 A 
ATOM     28  C   UNL     1       5.297  -3.228  -8.070  0.00  0.00    +0.024 A 
ATOM     29  C   UNL     1       6.478  -3.584  -8.692  0.00  0.00    +0.017 A 
ATOM     30  C   UNL     1       7.018  -4.841  -8.486  0.00  0.00    +0.018 A 
ATOM     31  C   UNL     1       6.376  -5.745  -7.657  0.00  0.00    +0.017 A 
ATOM     32  C   UNL     1       5.198  -5.392  -7.029  0.00  0.00    +0.024 A 
ATOM     33 BR   UNL     1       8.634  -5.326  -9.339  0.00  0.00    -0.050 Br
ENDBRANCH  25  27
ENDBRANCH  22  23
ENDBRANCH  21  22
ENDBRANCH   2  21
TORSDOF 5
