REMARK  Name = ZINC36389697
REMARK  9 active torsions:
REMARK  status: ('A' for Active; 'I' for Inactive)
REMARK    1  A    between atoms: C_1  and  C_2
REMARK    2  A    between atoms: N_7  and  S_9
REMARK    3  A    between atoms: S_9  and  C_12
REMARK    4  A    between atoms: C_15  and  N_18
REMARK    5  A    between atoms: C_19  and  C_21
REMARK    6  A    between atoms: C_21  and  C_22
REMARK    7  A    between atoms: C_22  and  C_24
REMARK    8  A    between atoms: C_22  and  N_31
REMARK    9  A    between atoms: C_32  and  C_34
REMARK                            x       y       z     vdW  Elec       q    Type
REMARK                         _______ _______ _______ _____ _____    ______ ____
ROOT
ATOM      1  N   UNL     1       3.948  -4.191  -3.914  0.00  0.00    -0.285 N 
ATOM      2  C   UNL     1       4.080  -5.450  -4.377  0.00  0.00    +0.219 C 
ATOM      3  O   UNL     1       3.674  -6.384  -3.718  0.00  0.00    -0.275 OA
ATOM      4  H   UNL     1       4.212  -3.441  -4.469  0.00  0.00    +0.155 HD
ENDROOT
BRANCH   1   8
ATOM      5  C   UNL     1       2.407  -3.524  -0.102  0.00  0.00    +0.106 A 
ATOM      6  C   UNL     1       1.924  -4.569  -0.868  0.00  0.00    +0.030 A 
ATOM      7  C   UNL     1       2.433  -4.793  -2.132  0.00  0.00    +0.025 A 
ATOM      8  C   UNL     1       3.430  -3.967  -2.634  0.00  0.00    +0.033 A 
ATOM      9  C   UNL     1       3.913  -2.918  -1.862  0.00  0.00    +0.025 A 
ATOM     10  C   UNL     1       3.397  -2.697  -0.601  0.00  0.00    +0.030 A 
BRANCH   5  11
ATOM     11  S   UNL     1       1.756  -3.242   1.511  0.00  0.00    +0.061 S 
ATOM     12  O   UNL     1       2.753  -2.534   2.234  0.00  0.00    -0.153 OA
ATOM     13  O   UNL     1       1.227  -4.483   1.958  0.00  0.00    -0.153 OA
BRANCH  11  19
ATOM     14  C   UNL     1       0.126   1.403   0.271  0.00  0.00    +0.009 C 
ATOM     15  C   UNL     1       0.055  -0.122   0.157  0.00  0.00    +0.002 C 
ATOM     16  C   UNL     1      -1.407  -0.556   0.027  0.00  0.00    +0.006 C 
ATOM     17  C   UNL     1      -1.477  -2.078  -0.120  0.00  0.00    +0.017 C 
ATOM     18  C   UNL     1      -0.886  -2.736   1.131  0.00  0.00    +0.109 C 
ATOM     19  N   UNL     1       0.469  -2.212   1.346  0.00  0.00    -0.176 NA
ATOM     20  C   UNL     1       0.663  -0.757   1.411  0.00  0.00    +0.112 C 
ENDBRANCH  11  19
ENDBRANCH   5  11
ENDBRANCH   1   8
BRANCH   2  21
ATOM     21  C   UNL     1       4.732  -5.698  -5.713  0.00  0.00    +0.123 C 
BRANCH  21  22
ATOM     22  C   UNL     1       4.756  -7.201  -5.998  0.00  0.00    +0.113 C 
BRANCH  22  23
ATOM     23  C   UNL     1       5.295  -7.441  -7.385  0.00  0.00    -0.008 A 
ATOM     24  C   UNL     1       5.961  -6.429  -8.052  0.00  0.00    +0.007 A 
ATOM     25  C   UNL     1       6.456  -6.649  -9.324  0.00  0.00    +0.000 A 
ATOM     26  C   UNL     1       6.285  -7.880  -9.929  0.00  0.00    +0.001 A 
ATOM     27  C   UNL     1       5.620  -8.892  -9.263  0.00  0.00    +0.020 A 
ATOM     28  C   UNL     1       5.130  -8.674  -7.988  0.00  0.00    +0.046 A 
ATOM     29 CL   UNL     1       4.300  -9.947  -7.148  0.00  0.00    -0.083 Cl
ENDBRANCH  22  23
BRANCH  22  30
ATOM     30  N   UNL     1       5.614  -7.871  -5.018  0.00  0.00    -0.308 N 
ATOM     31  C   UNL     1       6.934  -7.603  -4.984  0.00  0.00    +0.210 C 
ATOM     32  O   UNL     1       7.398  -6.744  -5.704  0.00  0.00    -0.276 OA
ATOM     33  C   UNL     1       7.835  -8.370  -4.050  0.00  0.00    +0.109 C 
ATOM     34  H   UNL     1       5.232  -8.507  -4.393  0.00  0.00    +0.149 HD
ENDBRANCH  22  30
ENDBRANCH  21  22
ENDBRANCH   2  21
TORSDOF 7
