REMARK  Name = ZINC03183478
REMARK  7 active torsions:
REMARK  status: ('A' for Active; 'I' for Inactive)
REMARK    1  A    between atoms: C_1  and  C_2
REMARK    2  A    between atoms: C_2  and  N_3
REMARK    3  A    between atoms: C_14  and  C_16
REMARK    4  A    between atoms: N_17  and  N_18
REMARK    5  A    between atoms: C_19  and  C_21
REMARK    6  A    between atoms: C_21  and  N_22
REMARK    7  A    between atoms: C_23  and  C_31
REMARK                            x       y       z     vdW  Elec       q    Type
REMARK                         _______ _______ _______ _____ _____    ______ ____
ROOT
ATOM      1  C   UNL     1      -3.713   2.071   0.050  0.00  0.00    +0.138 C 
ATOM      2  N   UNL     1      -4.823   1.399   0.057  0.00  0.00    -0.188 NA
ENDROOT
BRANCH   1  14
ATOM      3  N   UNL     1       1.320  -0.421  -0.013  0.00  0.00    -0.340 N 
ATOM      4  C   UNL     1       2.170   0.671  -0.015  0.00  0.00    +0.050 A 
ATOM      5  C   UNL     1       3.557   0.778  -0.027  0.00  0.00    +0.026 A 
ATOM      6  C   UNL     1       4.153   2.021  -0.026  0.00  0.00    +0.002 A 
ATOM      7  C   UNL     1       3.382   3.173  -0.012  0.00  0.00    +0.001 A 
ATOM      8  C   UNL     1       2.007   3.087   0.000  0.00  0.00    +0.010 A 
ATOM      9  C   UNL     1       1.391   1.838  -0.001  0.00  0.00    +0.008 A 
ATOM     10  C   UNL     1      -0.017   1.400   0.010  0.00  0.00    +0.008 A 
ATOM     11  C   UNL     1       0.002  -0.004   0.002  0.00  0.00    +0.050 A 
ATOM     12  C   UNL     1      -1.201  -0.707   0.010  0.00  0.00    +0.027 A 
ATOM     13  C   UNL     1      -2.391  -0.039   0.025  0.00  0.00    +0.011 A 
ATOM     14  C   UNL     1      -2.421   1.361   0.033  0.00  0.00    -0.005 A 
ATOM     15  C   UNL     1      -1.228   2.081   0.030  0.00  0.00    +0.020 A 
BRANCH   3  17
ATOM     16  C   UNL     1       1.893  -2.299  -1.470  0.00  0.00    +0.027 C 
ATOM     17  C   UNL     1       1.756  -1.820  -0.024  0.00  0.00    +0.119 C 
ENDBRANCH   3  17
ENDBRANCH   1  14
BRANCH   2  18
ATOM     18  N   UNL     1      -6.051   2.074   0.073  0.00  0.00    -0.206 N 
ATOM     19  C   UNL     1      -7.204   1.375   0.080  0.00  0.00    +0.252 C 
ATOM     20  O   UNL     1      -7.178   0.163   0.074  0.00  0.00    -0.272 OA
ATOM     21  H   UNL     1      -6.071   3.043   0.078  0.00  0.00    +0.177 HD
BRANCH  19  22
ATOM     22  C   UNL     1      -8.524   2.102   0.097  0.00  0.00    +0.220 C 
BRANCH  22  23
ATOM     23  N   UNL     1      -9.618   1.127   0.103  0.00  0.00    -0.319 N 
ATOM     24  C   UNL     1     -10.209   0.584   1.202  0.00  0.00    +0.108 A 
ATOM     25  N   UNL     1     -11.145  -0.245   0.843  0.00  0.00    -0.233 NA
ATOM     26  C   UNL     1     -11.218  -0.291  -0.512  0.00  0.00    +0.089 A 
ATOM     27  C   UNL     1     -10.243   0.592  -1.006  0.00  0.00    +0.069 A 
ATOM     28  C   UNL     1     -10.090   0.757  -2.375  0.00  0.00    +0.028 A 
ATOM     29  C   UNL     1     -10.899   0.053  -3.242  0.00  0.00    +0.002 A 
ATOM     30  C   UNL     1     -11.863  -0.817  -2.755  0.00  0.00    +0.002 A 
ATOM     31  C   UNL     1     -12.024  -0.996  -1.410  0.00  0.00    +0.030 A 
ATOM     32  C   UNL     1      -9.834   0.899   2.627  0.00  0.00    +0.086 C 
ENDBRANCH  22  23
ENDBRANCH  19  22
ENDBRANCH   2  18
TORSDOF 5
