REMARK  Name = ZINC25978875
REMARK  11 active torsions:
REMARK  status: ('A' for Active; 'I' for Inactive)
REMARK    1  A    between atoms: C_1  and  C_2
REMARK    2  A    between atoms: N_5  and  S_11
REMARK    3  A    between atoms: C_7  and  C_10
REMARK    4  A    between atoms: S_11  and  C_14
REMARK    5  A    between atoms: C_18  and  C_20
REMARK    6  A    between atoms: N_22  and  C_23
REMARK    7  A    between atoms: C_23  and  C_25
REMARK    8  A    between atoms: C_23  and  C_36
REMARK    9  A    between atoms: C_25  and  C_26
REMARK   10  A    between atoms: C_36  and  O_38
REMARK   11  A    between atoms: O_38  and  C_39
REMARK                            x       y       z     vdW  Elec       q    Type
REMARK                         _______ _______ _______ _____ _____    ______ ____
ROOT
ATOM      1  C   UNL     1      -0.014   1.211   0.009  0.00  0.00    +0.245 C 
ATOM      2  O   UNL     1       0.002  -0.004   0.002  0.00  0.00    -0.270 OA
ATOM      3  N   UNL     1      -1.191   1.869   0.018  0.00  0.00    -0.298 N 
ATOM      4  H   UNL     1      -1.206   2.969   0.024  0.00  0.00    +0.150 HD
ENDROOT
BRANCH   1   9
ATOM      5  C   UNL     1       3.657   2.001  -0.022  0.00  0.00    +0.106 A 
ATOM      6  C   UNL     1       3.635   3.385  -0.015  0.00  0.00    +0.028 A 
ATOM      7  C   UNL     1       2.429   4.063  -0.000  0.00  0.00    +0.003 A 
ATOM      8  C   UNL     1       1.240   3.363   0.003  0.00  0.00    +0.013 A 
ATOM      9  C   UNL     1       1.256   1.968   0.001  0.00  0.00    +0.039 A 
ATOM     10  C   UNL     1       2.476   1.290  -0.015  0.00  0.00    +0.041 A 
BRANCH   5  11
ATOM     11  S   UNL     1       5.198   1.147  -0.041  0.00  0.00    +0.061 S 
ATOM     12  O   UNL     1       6.162   2.036   0.505  0.00  0.00    -0.153 OA
ATOM     13  O   UNL     1       4.955  -0.142   0.505  0.00  0.00    -0.153 OA
BRANCH  11  17
ATOM     14  C   UNL     1       4.263  -1.092  -4.536  0.00  0.00    +0.039 C 
ATOM     15  C   UNL     1       4.537   0.141  -3.674  0.00  0.00    +0.131 C 
ATOM     16  C   UNL     1       5.194  -0.293  -2.353  0.00  0.00    +0.140 C 
ATOM     17  N   UNL     1       5.611   0.918  -1.629  0.00  0.00    -0.172 NA
ATOM     18  C   UNL     1       6.412   1.917  -2.354  0.00  0.00    +0.140 C 
ATOM     19  C   UNL     1       5.701   2.241  -3.673  0.00  0.00    +0.131 C 
ATOM     20  O   UNL     1       5.422   1.023  -4.369  0.00  0.00    -0.371 OA
ATOM     21  C   UNL     1       6.601   3.128  -4.535  0.00  0.00    +0.039 C 
ENDBRANCH  11  17
ENDBRANCH   5  11
ENDBRANCH   1   9
BRANCH   3  22
ATOM     22  C   UNL     1      -2.449   1.120   0.020  0.00  0.00    +0.186 C 
BRANCH  22  23
ATOM     23  C   UNL     1      -2.811   0.749   1.435  0.00  0.00    +0.328 C 
ATOM     24  O   UNL     1      -2.091   1.077   2.348  0.00  0.00    -0.249 OA
BRANCH  23  25
ATOM     25  O   UNL     1      -3.933   0.053   1.681  0.00  0.00    -0.467 OA
ATOM     26  C   UNL     1      -4.218  -0.269   3.067  0.00  0.00    +0.280 C 
ENDBRANCH  23  25
ENDBRANCH  22  23
BRANCH  22  27
ATOM     27  C   UNL     1      -3.559   1.985  -0.580  0.00  0.00    +0.071 C 
BRANCH  27  28
ATOM     28  C   UNL     1      -3.258   2.254  -2.032  0.00  0.00    -0.020 A 
ATOM     29  C   UNL     1      -2.640   3.336  -2.532  0.00  0.00    +0.087 A 
ATOM     30  N   UNL     1      -2.541   3.229  -3.892  0.00  0.00    -0.360 N 
ATOM     31  H   UNL     1      -2.055   4.027  -4.473  0.00  0.00    +0.165 HD
ATOM     32  C   UNL     1      -3.114   2.050  -4.312  0.00  0.00    +0.047 A 
ATOM     33  C   UNL     1      -3.588   1.387  -3.166  0.00  0.00    +0.003 A 
ATOM     34  C   UNL     1      -4.223   0.150  -3.288  0.00  0.00    +0.010 A 
ATOM     35  C   UNL     1      -4.381  -0.411  -4.524  0.00  0.00    +0.001 A 
ATOM     36  C   UNL     1      -3.916   0.238  -5.659  0.00  0.00    +0.002 A 
ATOM     37  C   UNL     1      -3.286   1.460  -5.560  0.00  0.00    +0.026 A 
ENDBRANCH  27  28
ENDBRANCH  22  27
ENDBRANCH   3  22
TORSDOF 8
