REMARK  Name = ZINC40410097
REMARK  8 active torsions:
REMARK  status: ('A' for Active; 'I' for Inactive)
REMARK    1  A    between atoms: C_1  and  O_2
REMARK    2  A    between atoms: O_2  and  C_3
REMARK    3  A    between atoms: C_6  and  C_11
REMARK    4  A    between atoms: C_7  and  O_9
REMARK    5  A    between atoms: O_9  and  C_10
REMARK    6  A    between atoms: N_21  and  C_22
REMARK    7  A    between atoms: C_22  and  C_23
REMARK    8  A    between atoms: C_28  and  O_29
REMARK                            x       y       z     vdW  Elec       q    Type
REMARK                         _______ _______ _______ _____ _____    ______ ____
ROOT
ATOM      1  C   UNL     1       2.542  -2.493   4.332  0.00  0.00    +0.014 C 
ATOM      2  C   UNL     1       1.546  -2.838   5.413  0.00  0.00    +0.010 A 
ATOM      3  C   UNL     1       0.245  -3.135   5.232  0.00  0.00    +0.021 A 
ATOM      4  C   UNL     1      -0.307  -3.406   6.500  0.00  0.00    +0.019 A 
ATOM      5  C   UNL     1       0.678  -3.260   7.409  0.00  0.00    +0.086 A 
ATOM      6  N   UNL     1       1.816  -2.902   6.751  0.00  0.00    -0.352 N 
ATOM      7  C   UNL     1       3.120  -2.616   7.358  0.00  0.00    +0.119 C 
ATOM      8  C   UNL     1       4.210  -3.337   6.559  0.00  0.00    +0.003 C 
ATOM      9  C   UNL     1       4.686  -2.445   5.418  0.00  0.00    -0.075 C 
ATOM     10  N   UNL     1       3.589  -1.629   4.894  0.00  0.00    +0.391 N 
ATOM     11  H   UNL     1       3.200  -1.073   5.640  0.00  0.00    -0.080 HD
ENDROOT
BRANCH   1  15
ATOM     12  C   UNL     1       0.547  -0.438   1.156  0.00  0.00    +0.124 A 
ATOM     13  C   UNL     1       0.624   0.135   2.418  0.00  0.00    +0.046 A 
ATOM     14  C   UNL     1       1.268  -0.532   3.442  0.00  0.00    +0.009 A 
ATOM     15  C   UNL     1       1.839  -1.770   3.213  0.00  0.00    -0.013 A 
ATOM     16  C   UNL     1       1.765  -2.346   1.953  0.00  0.00    +0.126 A 
ATOM     17  C   UNL     1       1.113  -1.682   0.925  0.00  0.00    +0.091 A 
BRANCH  12  19
ATOM     18  C   UNL     1      -0.646   1.496   0.458  0.00  0.00    +0.277 C 
ATOM     19  O   UNL     1      -0.087   0.218   0.149  0.00  0.00    -0.495 OA
ENDBRANCH  12  19
BRANCH  16  20
ATOM     20  O   UNL     1       2.326  -3.564   1.729  0.00  0.00    -0.495 OA
ATOM     21  C   UNL     1       2.211  -4.097   0.408  0.00  0.00    +0.277 C 
ENDBRANCH  16  20
ENDBRANCH   1  15
BRANCH  10  22
ATOM     22  C   UNL     1       4.102  -0.739   3.843  0.00  0.00    -0.038 C 
BRANCH  22  23
ATOM     23  C   UNL     1       5.124   0.198   4.433  0.00  0.00    -0.022 A 
ATOM     24  C   UNL     1       4.767   1.490   4.765  0.00  0.00    +0.005 A 
ATOM     25  C   UNL     1       5.705   2.350   5.306  0.00  0.00    +0.000 A 
ATOM     26  C   UNL     1       7.002   1.919   5.517  0.00  0.00    +0.004 A 
ATOM     27  C   UNL     1       7.364   0.628   5.187  0.00  0.00    +0.045 A 
ATOM     28  C   UNL     1       6.423  -0.239   4.649  0.00  0.00    +0.118 A 
BRANCH  28  29
ATOM     29  O   UNL     1       6.775  -1.512   4.329  0.00  0.00    -0.507 OA
ATOM     30  H   UNL     1       7.101  -1.615   3.425  0.00  0.00    +0.292 HD
ENDBRANCH  28  29
ENDBRANCH  22  23
ENDBRANCH  10  22
TORSDOF 6
