REMARK  Name = ZINC04024410
REMARK  5 active torsions:
REMARK  status: ('A' for Active; 'I' for Inactive)
REMARK    1  A    between atoms: C_1  and  C_2
REMARK    2  A    between atoms: C_13  and  O_15
REMARK    3  A    between atoms: O_15  and  C_16
REMARK    4  A    between atoms: C_16  and  C_18
REMARK    5  A    between atoms: C_32  and  C_33
REMARK                            x       y       z     vdW  Elec       q    Type
REMARK                         _______ _______ _______ _____ _____    ______ ____
ROOT
ATOM      1  C   UNL     1      -3.205  -0.308   2.723  0.00  0.00    +0.015 C 
ATOM      2  C   UNL     1      -3.960   0.990   2.429  0.00  0.00    +0.008 C 
ATOM      3  C   UNL     1      -4.938   0.817   1.290  0.00  0.00    +0.011 C 
ATOM      4  C   UNL     1      -4.287   1.193  -0.047  0.00  0.00    +0.005 C 
ATOM      5  C   UNL     1      -2.777   0.988  -0.005  0.00  0.00    +0.002 C 
ATOM      6  C   UNL     1      -2.142   1.983   0.968  0.00  0.00    -0.003 C 
ATOM      7  C   UNL     1      -3.024   2.186   2.162  0.00  0.00    +0.002 C 
ATOM      8  C   UNL     1      -2.340   2.393   3.517  0.00  0.00    +0.008 C 
ATOM      9  C   UNL     1      -3.426   2.014   4.556  0.00  0.00    +0.045 C 
ATOM     10  C   UNL     1      -4.629   1.463   3.745  0.00  0.00    +0.183 C 
ATOM     11  C   UNL     1      -0.714   1.587   1.303  0.00  0.00    +0.008 C 
ATOM     12  C   UNL     1       0.008   1.104   0.043  0.00  0.00    +0.032 C 
ATOM     13  C   UNL     1      -0.718   1.615  -1.180  0.00  0.00    -0.060 C 
ATOM     14  C   UNL     1      -0.095   2.410  -2.043  0.00  0.00    +0.046 C 
ATOM     15  C   UNL     1      -0.773   2.921  -3.232  0.00  0.00    +0.156 C 
ATOM     16  O   UNL     1      -0.167   3.613  -4.024  0.00  0.00    -0.293 OA
ATOM     17  C   UNL     1      -2.224   2.596  -3.475  0.00  0.00    +0.080 C 
ATOM     18  C   UNL     1      -2.912   2.292  -2.143  0.00  0.00    +0.019 C 
ATOM     19  C   UNL     1      -2.155   1.202  -1.393  0.00  0.00    -0.007 C 
ATOM     20  C   UNL     1      -2.201  -0.113  -2.173  0.00  0.00    +0.016 C 
ENDROOT
BRANCH  10  21
ATOM     21  O   UNL     1      -5.243   0.340   4.425  0.00  0.00    -0.457 OA
BRANCH  21  22
ATOM     22  C   UNL     1      -6.330   0.601   5.177  0.00  0.00    +0.339 C 
ATOM     23  O   UNL     1      -6.753   1.736   5.261  0.00  0.00    -0.245 OA
BRANCH  22  24
ATOM     24  C   UNL     1      -7.009  -0.495   5.899  0.00  0.00    +0.059 A 
ATOM     25  C   UNL     1      -6.529  -1.803   5.800  0.00  0.00    +0.015 A 
ATOM     26  C   UNL     1      -7.164  -2.820   6.482  0.00  0.00    +0.001 A 
ATOM     27  C   UNL     1      -8.280  -2.550   7.253  0.00  0.00    +0.000 A 
ATOM     28  C   UNL     1      -8.764  -1.257   7.351  0.00  0.00    +0.001 A 
ATOM     29  C   UNL     1      -8.136  -0.229   6.679  0.00  0.00    +0.015 A 
ENDBRANCH  22  24
ENDBRANCH  21  22
ENDBRANCH  10  21
TORSDOF 3
