REMARK  Name = ZINC66677634
REMARK  6 active torsions:
REMARK  status: ('A' for Active; 'I' for Inactive)
REMARK    1  A    between atoms: C_1  and  C_2
REMARK    2  A    between atoms: C_2  and  C_4
REMARK    3  A    between atoms: C_2  and  N_19
REMARK    4  A    between atoms: N_6  and  C_7
REMARK    5  A    between atoms: C_10  and  N_14
REMARK    6  A    between atoms: C_20  and  C_22
REMARK                            x       y       z     vdW  Elec       q    Type
REMARK                         _______ _______ _______ _____ _____    ______ ____
ROOT
ATOM      1  C   UNL     1       0.703  -0.498  -1.238  0.00  0.00    +0.237 C 
ATOM      2  O   UNL     1       1.701  -1.180  -1.141  0.00  0.00    -0.273 OA
ATOM      3  N   UNL     1       0.231  -0.164  -2.456  0.00  0.00    -0.284 N 
ATOM      4  H   UNL     1      -0.602   0.327  -2.535  0.00  0.00    +0.155 HD
ENDROOT
BRANCH   3   5
ATOM      5  C   UNL     1       0.943  -0.526  -3.606  0.00  0.00    +0.035 A 
ATOM      6  C   UNL     1       0.964   0.323  -4.705  0.00  0.00    +0.025 A 
ATOM      7  C   UNL     1       1.665  -0.034  -5.839  0.00  0.00    +0.031 A 
ATOM      8  C   UNL     1       2.349  -1.242  -5.882  0.00  0.00    +0.084 A 
ATOM      9  C   UNL     1       2.329  -2.091  -4.782  0.00  0.00    +0.068 A 
ATOM     10  C   UNL     1       1.632  -1.731  -3.645  0.00  0.00    +0.045 A 
ATOM     11 CL   UNL     1       3.184  -3.600  -4.835  0.00  0.00    -0.081 Cl
BRANCH   8  12
ATOM     12  N   UNL     1       3.061  -1.604  -7.035  0.00  0.00    -0.238 N 
ATOM     13  C   UNL     1       3.950  -0.830  -7.698  0.00  0.00    +0.114 A 
ATOM     14  C   UNL     1       4.413  -1.544  -8.751  0.00  0.00    +0.041 A 
ATOM     15  C   UNL     1       3.787  -2.795  -8.731  0.00  0.00    +0.135 A 
ATOM     16  N   UNL     1       2.982  -2.834  -7.700  0.00  0.00    -0.175 NA
ENDBRANCH   8  12
ENDBRANCH   3   5
BRANCH   1  18
ATOM     17  C   UNL     1      -0.037   1.505   0.023  0.00  0.00    +0.038 C 
ATOM     18  C   UNL     1      -0.010  -0.025   0.002  0.00  0.00    +0.156 C 
BRANCH  18  19
ATOM     19  N   UNL     1       0.694  -0.517   1.188  0.00  0.00    -0.304 N 
ATOM     20  C   UNL     1       0.030  -0.673   2.351  0.00  0.00    +0.217 C 
ATOM     21  O   UNL     1      -1.152  -0.406   2.414  0.00  0.00    -0.275 OA
ATOM     22  H   UNL     1       1.639  -0.731   1.137  0.00  0.00    +0.149 HD
BRANCH  20  23
ATOM     23  C   UNL     1       0.754  -1.179   3.571  0.00  0.00    +0.075 C 
ATOM     24  C   UNL     1       1.277  -2.609   3.320  0.00  0.00    +0.013 C 
ATOM     25  C   UNL     1       1.095  -3.325   4.681  0.00  0.00    +0.001 C 
ATOM     26  C   UNL     1      -0.250  -2.750   5.192  0.00  0.00    +0.001 C 
ATOM     27  C   UNL     1      -0.216  -1.269   4.761  0.00  0.00    +0.013 C 
ENDBRANCH  20  23
ENDBRANCH  18  19
ENDBRANCH   1  18
TORSDOF 5
