REMARK  Name = ZINC63720457
REMARK  11 active torsions:
REMARK  status: ('A' for Active; 'I' for Inactive)
REMARK    1  A    between atoms: C_1  and  C_2
REMARK    2  A    between atoms: C_2  and  C_3
REMARK    3  A    between atoms: C_3  and  C_4
REMARK    4  A    between atoms: C_4  and  O_6
REMARK    5  A    between atoms: O_6  and  C_7
REMARK    6  A    between atoms: C_7  and  C_8
REMARK    7  A    between atoms: C_8  and  N_9
REMARK    8  A    between atoms: N_9  and  C_10
REMARK    9  A    between atoms: C_12  and  S_22
REMARK   10  A    between atoms: C_15  and  N_16
REMARK   11  A    between atoms: S_22  and  C_23
REMARK                            x       y       z     vdW  Elec       q    Type
REMARK                         _______ _______ _______ _____ _____    ______ ____
ROOT
ATOM      1  C   UNL     1      -5.902  -4.770  -1.368  0.00  0.00    +0.061 A 
ATOM      2  C   UNL     1      -6.567  -5.436  -0.329  0.00  0.00    +0.042 A 
ATOM      3  C   UNL     1      -7.906  -5.679  -0.378  0.00  0.00    +0.044 A 
ATOM      4  C   UNL     1      -8.668  -5.228  -1.552  0.00  0.00    +0.150 A 
ATOM      5  C   UNL     1      -7.939  -4.529  -2.629  0.00  0.00    +0.167 A 
ATOM      6  C   UNL     1      -6.548  -4.322  -2.479  0.00  0.00    +0.178 A 
ATOM      7  N   UNL     1      -8.804  -4.218  -3.569  0.00  0.00    -0.046 NA
ATOM      8  O   UNL     1     -10.078  -4.684  -3.159  0.00  0.00    -0.241 OA
ATOM      9  N   UNL     1      -9.928  -5.304  -1.894  0.00  0.00    -0.048 NA
ENDROOT
BRANCH   6  10
ATOM     10  N   UNL     1      -5.784  -3.614  -3.547  0.00  0.00    +0.061 N 
ATOM     11  O   UNL     1      -5.292  -4.242  -4.455  0.00  0.00    -0.126 OA
ATOM     12  O   UNL     1      -5.658  -2.413  -3.504  0.00  0.00    -0.126 OA
ENDBRANCH   6  10
BRANCH   1  13
ATOM     13  N   UNL     1      -4.531  -4.553  -1.256  0.00  0.00    -0.339 N 
ATOM     14  H   UNL     1      -4.066  -4.029  -1.927  0.00  0.00    +0.146 HD
BRANCH  13  15
ATOM     15  C   UNL     1      -3.789  -5.118  -0.126  0.00  0.00    +0.142 C 
BRANCH  15  16
ATOM     16  C   UNL     1      -2.337  -4.641  -0.179  0.00  0.00    +0.250 C 
BRANCH  16  17
ATOM     17  O   UNL     1      -2.292  -3.226   0.016  0.00  0.00    -0.463 OA
BRANCH  17  18
ATOM     18  C   UNL     1      -1.082  -2.646  -0.002  0.00  0.00    +0.307 C 
ATOM     19  O   UNL     1      -0.093  -3.317  -0.179  0.00  0.00    -0.251 OA
BRANCH  18  20
ATOM     20  C   UNL     1      -0.957  -1.157   0.197  0.00  0.00    +0.120 C 
BRANCH  20  22
ATOM     21  C   UNL     1       0.645   0.755   0.334  0.00  0.00    +0.004 C 
ATOM     22  C   UNL     1       0.518  -0.756   0.131  0.00  0.00    +0.008 C 
ENDBRANCH  20  22
ENDBRANCH  18  20
ENDBRANCH  17  18
ENDBRANCH  16  17
ENDBRANCH  15  16
ENDBRANCH  13  15
ENDBRANCH   1  13
BRANCH   3  23
ATOM     23  S   UNL     1      -8.713  -6.520   0.943  0.00  0.00    -0.077 S 
BRANCH  23  24
ATOM     24  C   UNL     1      -8.982  -8.194   0.299  0.00  0.00    +0.240 C 
ATOM     25  N   UNL     1      -7.694  -8.829  -0.007  0.00  0.00    -0.355 N 
ATOM     26  C   UNL     1      -7.686  -9.102  -1.280  0.00  0.00    +0.061 A 
ATOM     27  C   UNL     1      -6.691  -9.729  -2.161  0.00  0.00    +0.027 A 
ATOM     28  C   UNL     1      -6.967  -9.886  -3.471  0.00  0.00    +0.002 A 
ATOM     29  C   UNL     1      -8.182  -9.470  -4.044  0.00  0.00    +0.002 A 
ATOM     30  C   UNL     1      -9.162  -8.885  -3.327  0.00  0.00    +0.027 A 
ATOM     31  C   UNL     1      -8.972  -8.663  -1.887  0.00  0.00    +0.061 A 
ATOM     32  N   UNL     1      -9.725  -8.134  -0.966  0.00  0.00    -0.355 N 
ATOM     33  H   UNL     1      -6.979  -9.010   0.623  0.00  0.00    +0.162 HD
ATOM     34  H   UNL     1     -10.614  -7.768  -1.092  0.00  0.00    +0.162 HD
ENDBRANCH  23  24
ENDBRANCH   3  23
TORSDOF 10
