REMARK  Name = ZINC38610537
REMARK  6 active torsions:
REMARK  status: ('A' for Active; 'I' for Inactive)
REMARK    1  A    between atoms: C_1  and  O_2
REMARK    2  A    between atoms: O_2  and  C_3
REMARK    3  A    between atoms: C_3  and  C_5
REMARK    4  A    between atoms: C_7  and  N_15
REMARK    5  A    between atoms: C_16  and  C_18
REMARK    6  A    between atoms: C_18  and  N_19
REMARK                            x       y       z     vdW  Elec       q    Type
REMARK                         _______ _______ _______ _____ _____    ______ ____
ROOT
ATOM      1  N   UNL     1       0.077  -2.515  -1.992  0.00  0.00    -0.285 N 
ATOM      2  C   UNL     1       0.153  -2.936  -3.270  0.00  0.00    +0.231 C 
ATOM      3  O   UNL     1      -0.830  -3.384  -3.820  0.00  0.00    -0.274 OA
ATOM      4  H   UNL     1       0.839  -2.079  -1.579  0.00  0.00    +0.155 HD
ENDROOT
BRANCH   1   6
ATOM      5  C   UNL     1      -2.280  -3.508  -1.694  0.00  0.00    +0.234 C 
ATOM      6  C   UNL     1      -1.070  -2.700  -1.280  0.00  0.00    +0.053 C 
ATOM      7  C   UNL     1      -1.369  -2.190  -0.029  0.00  0.00    +0.018 A 
ATOM      8  C   UNL     1      -0.643  -1.367   0.865  0.00  0.00    +0.011 A 
ATOM      9  C   UNL     1      -1.195  -1.013   2.052  0.00  0.00    +0.001 A 
ATOM     10  C   UNL     1      -2.473  -1.442   2.422  0.00  0.00    +0.002 A 
ATOM     11  C   UNL     1      -3.224  -2.231   1.617  0.00  0.00    +0.026 A 
ATOM     12  C   UNL     1      -2.716  -2.643   0.358  0.00  0.00    +0.045 A 
ATOM     13  N   UNL     1      -3.239  -3.395  -0.591  0.00  0.00    -0.367 N 
ATOM     14  H   UNL     1      -4.117  -3.808  -0.564  0.00  0.00    +0.161 HD
BRANCH   5  15
ATOM     15  C   UNL     1      -1.896  -4.950  -1.903  0.00  0.00    +0.335 C 
ATOM     16  O   UNL     1      -1.999  -5.740  -0.995  0.00  0.00    -0.248 OA
BRANCH  15  18
ATOM     17  C   UNL     1      -1.092  -6.737  -3.224  0.00  0.00    +0.280 C 
ATOM     18  O   UNL     1      -1.438  -5.356  -3.097  0.00  0.00    -0.466 OA
ENDBRANCH  15  18
ENDBRANCH   5  15
ENDBRANCH   1   6
BRANCH   2  19
ATOM     19  C   UNL     1       1.460  -2.850  -4.015  0.00  0.00    +0.181 C 
BRANCH  19  20
ATOM     20  N   UNL     1       1.282  -3.368  -5.378  0.00  0.00    -0.289 NA
ATOM     21  C   UNL     1       2.576  -3.501  -6.065  0.00  0.00    +0.090 C 
ATOM     22  C   UNL     1       2.378  -4.369  -7.309  0.00  0.00    +0.051 C 
ATOM     23  C   UNL     1       1.215  -3.853  -8.116  0.00  0.00    -0.042 A 
ATOM     24  C   UNL     1       1.091  -4.263  -9.435  0.00  0.00    +0.004 A 
ATOM     25  C   UNL     1       0.039  -3.817 -10.209  0.00  0.00    +0.000 A 
ATOM     26  C   UNL     1      -0.898  -2.957  -9.666  0.00  0.00    +0.000 A 
ATOM     27  C   UNL     1      -0.775  -2.547  -8.354  0.00  0.00    +0.005 A 
ATOM     28  C   UNL     1       0.284  -2.992  -7.576  0.00  0.00    -0.030 A 
ATOM     29  C   UNL     1       0.381  -2.507  -6.153  0.00  0.00    +0.120 C 
ENDBRANCH  19  20
ENDBRANCH   2  19
TORSDOF 5
