REMARK  Name = ZINC01460108
REMARK  10 active torsions:
REMARK  status: ('A' for Active; 'I' for Inactive)
REMARK    1  A    between atoms: C_1  and  C_2
REMARK    2  A    between atoms: C_7  and  C_23
REMARK    3  A    between atoms: C_9  and  C_13
REMARK    4  A    between atoms: C_10  and  C_12
REMARK    5  A    between atoms: C_13  and  O_15
REMARK    6  A    between atoms: O_15  and  C_16
REMARK    7  A    between atoms: C_16  and  C_17
REMARK    8  A    between atoms: C_32  and  C_34
REMARK    9  A    between atoms: C_34  and  O_36
REMARK   10  A    between atoms: O_36  and  C_37
REMARK                            x       y       z     vdW  Elec       q    Type
REMARK                         _______ _______ _______ _____ _____    ______ ____
ROOT
ATOM      1  C   UNL     1      -2.103  -4.004   8.685  0.00  0.00    +0.009 C 
ATOM      2  C   UNL     1      -1.715  -3.316   7.374  0.00  0.00    +0.013 C 
ATOM      3  C   UNL     1      -0.740  -4.201   6.594  0.00  0.00    +0.055 C 
ATOM      4  C   UNL     1      -0.322  -3.498   5.326  0.00  0.00    +0.016 C 
ATOM      5  C   UNL     1      -0.250  -2.152   5.269  0.00  0.00    +0.025 C 
ATOM      6  C   UNL     1       0.181  -1.457   4.002  0.00  0.00    +0.092 C 
ATOM      7  C   UNL     1       0.068  -2.374   2.820  0.00  0.00    +0.065 C 
ATOM      8  C   UNL     1      -0.027  -3.706   2.977  0.00  0.00    +0.016 C 
ATOM      9  N   UNL     1      -0.019  -4.258   4.228  0.00  0.00    -0.321 N 
ATOM     10  C   UNL     1      -0.138  -4.597   1.767  0.00  0.00    +0.061 C 
ATOM     11  C   UNL     1      -0.574  -1.360   6.385  0.00  0.00    +0.176 C 
ATOM     12  O   UNL     1      -0.488  -0.150   6.303  0.00  0.00    -0.291 OA
ATOM     13  C   UNL     1      -1.024  -1.982   7.678  0.00  0.00    +0.171 C 
ATOM     14  H   UNL     1       0.233  -5.322   4.347  0.00  0.00    +0.152 HD
ENDROOT
BRANCH   6  15
ATOM     15  C   UNL     1       1.613  -1.009   4.145  0.00  0.00    -0.032 A 
ATOM     16  C   UNL     1       2.612  -1.942   4.351  0.00  0.00    +0.005 A 
ATOM     17  C   UNL     1       3.926  -1.533   4.477  0.00  0.00    +0.003 A 
ATOM     18  C   UNL     1       4.241  -0.189   4.410  0.00  0.00    +0.038 A 
ATOM     19  C   UNL     1       3.241   0.747   4.210  0.00  0.00    +0.124 A 
ATOM     20  C   UNL     1       1.925   0.336   4.077  0.00  0.00    +0.043 A 
ATOM     21  F   UNL     1       3.548   2.061   4.144  0.00  0.00    -0.205 F 
ENDBRANCH   6  15
BRANCH   7  22
ATOM     22  C   UNL     1       0.056  -1.827   1.516  0.00  0.00    +0.338 C 
ATOM     23  O   UNL     1       0.067  -2.563   0.547  0.00  0.00    -0.245 OA
BRANCH  22  24
ATOM     24  O   UNL     1       0.031  -0.489   1.345  0.00  0.00    -0.457 OA
BRANCH  24  25
ATOM     25  C   UNL     1       0.020  -0.006   0.001  0.00  0.00    +0.268 C 
BRANCH  25  26
ATOM     26  C   UNL     1      -0.008   1.501   0.008  0.00  0.00    -0.010 A 
ATOM     27  C   UNL     1      -1.217   2.170   0.008  0.00  0.00    +0.007 A 
ATOM     28  C   UNL     1      -1.242   3.552   0.020  0.00  0.00    +0.000 A 
ATOM     29  C   UNL     1      -0.058   4.265   0.022  0.00  0.00    +0.000 A 
ATOM     30  C   UNL     1       1.152   3.596   0.016  0.00  0.00    +0.000 A 
ATOM     31  C   UNL     1       1.177   2.214   0.009  0.00  0.00    +0.007 A 
ENDBRANCH  25  26
ENDBRANCH  24  25
ENDBRANCH  22  24
ENDBRANCH   7  22
BRANCH  13  32
ATOM     32  C   UNL     1      -1.991  -1.058   8.372  0.00  0.00    +0.318 C 
ATOM     33  O   UNL     1      -3.116  -1.429   8.610  0.00  0.00    -0.250 OA
BRANCH  32  34
ATOM     34  O   UNL     1      -1.602   0.176   8.727  0.00  0.00    -0.467 OA
ATOM     35  C   UNL     1      -2.586   1.012   9.392  0.00  0.00    +0.280 C 
ENDBRANCH  32  34
ENDBRANCH  13  32
TORSDOF 7
