REMARK  Name = ZINC39321305
REMARK  10 active torsions:
REMARK  status: ('A' for Active; 'I' for Inactive)
REMARK    1  A    between atoms: C_1  and  C_2
REMARK    2  A    between atoms: C_3  and  C_23
REMARK    3  A    between atoms: C_5  and  C_14
REMARK    4  A    between atoms: N_6  and  C_7
REMARK    5  A    between atoms: C_11  and  N_13
REMARK    6  A    between atoms: C_17  and  C_20
REMARK    7  A    between atoms: C_20  and  C_21
REMARK    8  A    between atoms: C_20  and  C_22
REMARK    9  A    between atoms: C_23  and  O_25
REMARK   10  A    between atoms: O_25  and  C_26
REMARK                            x       y       z     vdW  Elec       q    Type
REMARK                         _______ _______ _______ _____ _____    ______ ____
ROOT
ATOM      1  C   UNL     1      -0.351   1.474   0.109  0.00  0.00    +0.066 C 
ATOM      2  C   UNL     1      -0.141  -0.017   0.045  0.00  0.00    +0.055 A 
ATOM      3  C   UNL     1      -0.111  -0.786  -1.084  0.00  0.00    +0.169 A 
ATOM      4  N   UNL     1       0.100  -2.066  -0.709  0.00  0.00    -0.220 NA
ATOM      5  C   UNL     1       0.200  -2.119   0.597  0.00  0.00    +0.146 A 
ATOM      6  N   UNL     1       0.060  -0.853   1.099  0.00  0.00    -0.296 N 
ENDROOT
BRANCH   6   7
ATOM      7  C   UNL     1       0.111  -0.486   2.451  0.00  0.00    +0.050 A 
ATOM      8  C   UNL     1       1.168   0.280   2.924  0.00  0.00    +0.026 A 
ATOM      9  C   UNL     1       1.220   0.642   4.256  0.00  0.00    +0.004 A 
ATOM     10  C   UNL     1       0.220   0.243   5.123  0.00  0.00    +0.023 A 
ATOM     11  C   UNL     1      -0.841  -0.524   4.656  0.00  0.00    +0.027 A 
ATOM     12  C   UNL     1      -0.897  -0.884   3.317  0.00  0.00    +0.049 A 
BRANCH  11  13
ATOM     13  N   UNL     1      -1.851  -0.928   5.532  0.00  0.00    -0.358 N 
ATOM     14  H   UNL     1      -1.812  -0.673   6.467  0.00  0.00    +0.142 HD
ATOM     15  H   UNL     1      -2.591  -1.463   5.205  0.00  0.00    +0.142 HD
ENDBRANCH  11  13
ENDBRANCH   6   7
BRANCH   5  16
ATOM     16  C   UNL     1       0.432  -3.343   1.394  0.00  0.00    +0.018 A 
ATOM     17  C   UNL     1       0.191  -4.599   0.837  0.00  0.00    +0.012 A 
ATOM     18  C   UNL     1       0.409  -5.737   1.586  0.00  0.00    +0.004 A 
ATOM     19  C   UNL     1       0.867  -5.634   2.888  0.00  0.00    -0.045 A 
ATOM     20  C   UNL     1       1.107  -4.391   3.446  0.00  0.00    +0.004 A 
ATOM     21  C   UNL     1       0.899  -3.246   2.706  0.00  0.00    +0.012 A 
BRANCH  19  22
ATOM     22  C   UNL     1       1.103  -6.881   3.700  0.00  0.00    +0.013 C 
ATOM     23  C   UNL     1       2.572  -6.942   4.124  0.00  0.00    +0.012 C 
ATOM     24  C   UNL     1       0.214  -6.854   4.945  0.00  0.00    +0.012 C 
ENDBRANCH  19  22
ENDBRANCH   5  16
BRANCH   3  25
ATOM     25  C   UNL     1      -0.278  -0.305  -2.465  0.00  0.00    +0.359 C 
ATOM     26  O   UNL     1      -0.463   0.877  -2.678  0.00  0.00    -0.243 OA
BRANCH  25  27
ATOM     27  O   UNL     1      -0.226  -1.175  -3.493  0.00  0.00    -0.463 OA
ATOM     28  C   UNL     1      -0.396  -0.638  -4.807  0.00  0.00    +0.280 C 
ENDBRANCH  25  27
ENDBRANCH   3  25
TORSDOF 6
