REMARK  Name = ZINC22935605
REMARK  7 active torsions:
REMARK  status: ('A' for Active; 'I' for Inactive)
REMARK    1  A    between atoms: C_1  and  C_2
REMARK    2  A    between atoms: C_2  and  N_3
REMARK    3  A    between atoms: N_6  and  C_9
REMARK    4  A    between atoms: C_9  and  C_10
REMARK    5  A    between atoms: C_11  and  O_32
REMARK    6  A    between atoms: C_13  and  C_31
REMARK    7  A    between atoms: C_18  and  C_19
REMARK                            x       y       z     vdW  Elec       q    Type
REMARK                         _______ _______ _______ _____ _____    ______ ____
ROOT
ATOM      1  C   UNL     1       3.518  -4.015  -3.630  0.00  0.00    +0.051 A 
ATOM      2  C   UNL     1       4.591  -4.620  -2.995  0.00  0.00    +0.125 A 
ATOM      3  C   UNL     1       4.682  -6.007  -2.925  0.00  0.00    +0.050 A 
ATOM      4  C   UNL     1       3.710  -6.788  -3.485  0.00  0.00    -0.033 A 
ATOM      5  C   UNL     1       2.624  -6.192  -4.128  0.00  0.00    +0.071 A 
ATOM      6  C   UNL     1       2.519  -4.794  -4.199  0.00  0.00    +0.148 A 
ATOM      7  O   UNL     1       1.389  -4.456  -4.857  0.00  0.00    -0.451 OA
ATOM      8  C   UNL     1       0.690  -5.547  -5.249  0.00  0.00    +0.179 C 
ATOM      9  C   UNL     1      -0.489  -5.545  -5.932  0.00  0.00    +0.096 C 
ATOM     10  C   UNL     1       1.439  -6.734  -4.816  0.00  0.00    +0.232 C 
ATOM     11  O   UNL     1       1.139  -7.905  -4.978  0.00  0.00    -0.283 OA
ATOM     12  C   UNL     1       3.811  -8.290  -3.409  0.00  0.00    +0.045 C 
ENDROOT
BRANCH   9  13
ATOM     13  C   UNL     1      -1.093  -4.318  -6.296  0.00  0.00    +0.133 A 
ATOM     14  C   UNL     1      -2.271  -4.189  -6.973  0.00  0.00    +0.058 A 
ATOM     15  C   UNL     1      -2.506  -2.800  -7.127  0.00  0.00    +0.022 A 
ATOM     16  C   UNL     1      -3.527  -2.052  -7.723  0.00  0.00    +0.027 A 
ATOM     17  C   UNL     1      -3.466  -0.687  -7.707  0.00  0.00    +0.019 A 
ATOM     18  C   UNL     1      -2.397  -0.037  -7.104  0.00  0.00    +0.019 A 
ATOM     19  C   UNL     1      -1.381  -0.755  -6.511  0.00  0.00    +0.048 A 
ATOM     20  C   UNL     1      -1.422  -2.144  -6.514  0.00  0.00    +0.136 A 
ATOM     21  O   UNL     1      -0.597  -3.092  -6.022  0.00  0.00    -0.455 OA
ATOM     22 BR   UNL     1      -4.846   0.324  -8.514  0.00  0.00    -0.050 Br
ENDBRANCH   9  13
BRANCH   2  23
ATOM     23  O   UNL     1       5.562  -3.853  -2.436  0.00  0.00    -0.506 OA
ATOM     24  H   UNL     1       5.397  -3.622  -1.512  0.00  0.00    +0.292 HD
ENDBRANCH   2  23
BRANCH   1  25
ATOM     25  C   UNL     1       3.433  -2.512  -3.697  0.00  0.00    +0.126 C 
BRANCH  25  29
ATOM     26  N   UNL     1       0.690  -0.478  -1.207  0.00  0.00    +0.381 N 
ATOM     27  C   UNL     1       2.100  -0.069  -1.160  0.00  0.00    -0.063 C 
ATOM     28  C   UNL     1       2.812  -0.546  -2.427  0.00  0.00    +0.066 C 
ATOM     29  N   UNL     1       2.711  -2.009  -2.521  0.00  0.00    -0.301 NA
ATOM     30  C   UNL     1       1.305  -2.435  -2.544  0.00  0.00    +0.066 C 
ATOM     31  C   UNL     1       0.605  -1.943  -1.275  0.00  0.00    -0.063 C 
ATOM     32  H   UNL     1       0.251  -0.077  -2.022  0.00  0.00    -0.082 HD
BRANCH  26  34
ATOM     33  C   UNL     1      -0.019   1.526   0.010  0.00  0.00    -0.017 C 
ATOM     34  C   UNL     1       0.002  -0.004   0.002  0.00  0.00    -0.082 C 
ENDBRANCH  26  34
ENDBRANCH  25  29
ENDBRANCH   1  25
TORSDOF 5
