REMARK  Name = ZINC40570189
REMARK  9 active torsions:
REMARK  status: ('A' for Active; 'I' for Inactive)
REMARK    1  A    between atoms: C_1  and  C_2
REMARK    2  A    between atoms: C_5  and  O_8
REMARK    3  A    between atoms: O_8  and  C_9
REMARK    4  A    between atoms: C_9  and  C_11
REMARK    5  A    between atoms: C_12  and  N_33
REMARK    6  A    between atoms: C_14  and  C_25
REMARK    7  A    between atoms: N_22  and  C_24
REMARK    8  A    between atoms: C_28  and  O_31
REMARK    9  A    between atoms: O_31  and  C_32
REMARK                            x       y       z     vdW  Elec       q    Type
REMARK                         _______ _______ _______ _____ _____    ______ ____
ROOT
ATOM      1  C   UNL     1       1.274  -6.177   1.159  0.00  0.00    +0.120 A 
ATOM      2  C   UNL     1       0.979  -6.952   2.263  0.00  0.00    +0.056 A 
ATOM      3  C   UNL     1       0.602  -8.338   2.050  0.00  0.00    +0.037 A 
ATOM      4  C   UNL     1       0.257  -9.328   3.016  0.00  0.00    -0.003 A 
ATOM      5  C   UNL     1      -0.076 -10.610   2.585  0.00  0.00    -0.034 A 
ATOM      6  C   UNL     1      -0.070 -10.906   1.236  0.00  0.00    +0.043 A 
ATOM      7  N   UNL     1       0.254  -9.978   0.349  0.00  0.00    -0.244 NA
ATOM      8  C   UNL     1       0.577  -8.754   0.701  0.00  0.00    +0.112 A 
ATOM      9  S   UNL     1       1.043  -7.300  -0.205  0.00  0.00    -0.060 S 
ATOM     10  C   UNL     1      -0.433 -12.282   0.734  0.00  0.00    +0.037 C 
ATOM     11  C   UNL     1      -0.373 -13.286   1.885  0.00  0.00    -0.073 C 
ATOM     12  N   UNL     1      -1.163 -12.758   3.009  0.00  0.00    +0.381 N 
ATOM     13  C   UNL     1      -0.434 -11.644   3.621  0.00  0.00    -0.041 C 
ATOM     14  C   UNL     1      -1.369 -13.817   4.005  0.00  0.00    -0.096 C 
ATOM     15  H   UNL     1      -2.056 -12.432   2.670  0.00  0.00    -0.082 HD
ENDROOT
BRANCH   4  16
ATOM     16  C   UNL     1       0.253  -8.998   4.459  0.00  0.00    -0.017 A 
ATOM     17  C   UNL     1      -0.750  -8.184   4.988  0.00  0.00    +0.012 A 
ATOM     18  C   UNL     1      -0.751  -7.879   6.332  0.00  0.00    +0.046 A 
ATOM     19  C   UNL     1       0.245  -8.380   7.160  0.00  0.00    +0.120 A 
ATOM     20  C   UNL     1       1.245  -9.190   6.637  0.00  0.00    +0.046 A 
ATOM     21  C   UNL     1       1.248  -9.504   5.295  0.00  0.00    +0.012 A 
BRANCH  19  22
ATOM     22  O   UNL     1       0.241  -8.078   8.484  0.00  0.00    -0.495 OA
ATOM     23  C   UNL     1       1.295  -8.626   9.278  0.00  0.00    +0.277 C 
ENDBRANCH  19  22
ENDBRANCH   4  16
BRANCH   2  24
ATOM     24  N   UNL     1       1.040  -6.420   3.543  0.00  0.00    -0.356 N 
ATOM     25  H   UNL     1       1.075  -5.458   3.667  0.00  0.00    +0.142 HD
ATOM     26  H   UNL     1       1.049  -7.009   4.313  0.00  0.00    +0.142 HD
ENDBRANCH   2  24
BRANCH   1  27
ATOM     27  C   UNL     1       1.661  -4.817   1.121  0.00  0.00    +0.353 C 
ATOM     28  O   UNL     1       1.774  -4.187   2.156  0.00  0.00    -0.244 OA
BRANCH  27  29
ATOM     29  O   UNL     1       1.907  -4.219  -0.064  0.00  0.00    -0.422 OA
BRANCH  29  34
ATOM     30  C   UNL     1       3.884   1.055  -0.005  0.00  0.00    +0.044 C 
ATOM     31  C   UNL     1       3.355  -0.356  -0.021  0.00  0.00    -0.050 A 
ATOM     32  C   UNL     1       4.201  -1.413   0.259  0.00  0.00    +0.007 A 
ATOM     33  C   UNL     1       3.718  -2.708   0.245  0.00  0.00    +0.046 A 
ATOM     34  C   UNL     1       2.384  -2.946  -0.050  0.00  0.00    +0.132 A 
ATOM     35  C   UNL     1       1.537  -1.884  -0.330  0.00  0.00    +0.046 A 
ATOM     36  C   UNL     1       2.023  -0.591  -0.310  0.00  0.00    +0.007 A 
ENDBRANCH  29  34
ENDBRANCH  27  29
ENDBRANCH   1  27
TORSDOF 6
