REMARK  Name = ZINC40340561
REMARK  13 active torsions:
REMARK  status: ('A' for Active; 'I' for Inactive)
REMARK    1  A    between atoms: C_1  and  C_2
REMARK    2  A    between atoms: C_2  and  O_3
REMARK    3  A    between atoms: O_3  and  C_4
REMARK    4  A    between atoms: C_7  and  C_12
REMARK    5  A    between atoms: C_9  and  O_10
REMARK    6  A    between atoms: O_10  and  C_11
REMARK    7  A    between atoms: C_15  and  C_33
REMARK    8  A    between atoms: N_22  and  C_23
REMARK    9  A    between atoms: C_23  and  C_24
REMARK   10  A    between atoms: C_24  and  C_25
REMARK   11  A    between atoms: C_28  and  O_31
REMARK   12  A    between atoms: O_31  and  C_32
REMARK   13  A    between atoms: C_36  and  C_39
REMARK                            x       y       z     vdW  Elec       q    Type
REMARK                         _______ _______ _______ _____ _____    ______ ____
ROOT
ATOM      1  C   UNL     1       1.142  -6.064   1.761  0.00  0.00    +0.141 C 
ATOM      2  C   UNL     1       2.224  -6.596   0.861  0.00  0.00    +0.035 A 
ATOM      3  C   UNL     1       3.579  -6.587   0.513  0.00  0.00    +0.099 A 
ATOM      4  N   UNL     1       3.733  -7.423  -0.494  0.00  0.00    -0.173 NA
ATOM      5  N   UNL     1       2.611  -7.959  -0.817  0.00  0.00    -0.272 N 
ATOM      6  H   UNL     1       2.486  -8.604  -1.531  0.00  0.00    +0.189 HD
ATOM      7  C   UNL     1       1.619  -7.484  -0.007  0.00  0.00    +0.126 A 
ATOM      8  C   UNL     1       0.186  -7.540   0.307  0.00  0.00    +0.265 C 
ATOM      9  O   UNL     1      -0.626  -8.231  -0.278  0.00  0.00    -0.268 OA
ATOM     10  N   UNL     1      -0.102  -6.718   1.334  0.00  0.00    -0.285 N 
ENDROOT
BRANCH   3  11
ATOM     11  C   UNL     1       4.647  -5.783   1.160  0.00  0.00    +0.002 A 
ATOM     12  C   UNL     1       4.366  -4.507   1.644  0.00  0.00    +0.010 A 
ATOM     13  C   UNL     1       5.362  -3.765   2.244  0.00  0.00    +0.004 A 
ATOM     14  C   UNL     1       6.638  -4.285   2.366  0.00  0.00    -0.050 A 
ATOM     15  C   UNL     1       6.923  -5.551   1.887  0.00  0.00    +0.004 A 
ATOM     16  C   UNL     1       5.932  -6.304   1.290  0.00  0.00    +0.010 A 
ATOM     17  C   UNL     1       7.722  -3.469   3.023  0.00  0.00    +0.044 C 
ENDBRANCH   3  11
BRANCH   1  21
ATOM     18  C   UNL     1       0.802  -1.825   1.306  0.00  0.00    +0.162 A 
ATOM     19  C   UNL     1       0.261  -2.673   0.353  0.00  0.00    +0.050 A 
ATOM     20  C   UNL     1       0.372  -4.043   0.502  0.00  0.00    +0.009 A 
ATOM     21  C   UNL     1       1.024  -4.570   1.602  0.00  0.00    -0.019 A 
ATOM     22  C   UNL     1       1.566  -3.730   2.557  0.00  0.00    +0.055 A 
ATOM     23  C   UNL     1       1.462  -2.356   2.410  0.00  0.00    +0.162 A 
BRANCH  23  24
ATOM     24  O   UNL     1       2.000  -1.528   3.345  0.00  0.00    -0.491 OA
ATOM     25  C   UNL     1       2.664  -2.143   4.451  0.00  0.00    +0.277 C 
ENDBRANCH  23  24
BRANCH  18  26
ATOM     26  O   UNL     1       0.693  -0.477   1.160  0.00  0.00    -0.489 OA
BRANCH  26  28
ATOM     27  C   UNL     1      -0.019   1.526   0.010  0.00  0.00    +0.048 C 
ATOM     28  C   UNL     1       0.002  -0.004   0.002  0.00  0.00    +0.226 C 
ENDBRANCH  26  28
ENDBRANCH  18  26
ENDBRANCH   1  21
BRANCH  10  29
ATOM     29  C   UNL     1      -1.426  -6.511   1.924  0.00  0.00    +0.114 C 
BRANCH  29  30
ATOM     30  C   UNL     1      -2.134  -5.364   1.200  0.00  0.00    +0.054 C 
BRANCH  30  31
ATOM     31  C   UNL     1      -3.496  -5.151   1.807  0.00  0.00    -0.046 A 
ATOM     32  C   UNL     1      -4.588  -5.838   1.310  0.00  0.00    +0.007 A 
ATOM     33  C   UNL     1      -5.839  -5.644   1.865  0.00  0.00    +0.046 A 
ATOM     34  C   UNL     1      -5.998  -4.759   2.921  0.00  0.00    +0.120 A 
ATOM     35  C   UNL     1      -4.901  -4.071   3.418  0.00  0.00    +0.046 A 
ATOM     36  C   UNL     1      -3.652  -4.272   2.863  0.00  0.00    +0.007 A 
BRANCH  34  37
ATOM     37  O   UNL     1      -7.227  -4.566   3.468  0.00  0.00    -0.495 OA
ATOM     38  C   UNL     1      -7.316  -3.640   4.553  0.00  0.00    +0.277 C 
ENDBRANCH  34  37
ENDBRANCH  30  31
ENDBRANCH  29  30
ENDBRANCH  10  29
TORSDOF 9
