REMARK  Name = ZINC67120731
REMARK  12 active torsions:
REMARK  status: ('A' for Active; 'I' for Inactive)
REMARK    1  A    between atoms: C_1  and  C_2
REMARK    2  A    between atoms: N_7  and  C_9
REMARK    3  A    between atoms: C_9  and  C_10
REMARK    4  A    between atoms: C_13  and  C_16
REMARK    5  A    between atoms: C_16  and  N_17
REMARK    6  A    between atoms: N_17  and  C_18
REMARK    7  A    between atoms: C_18  and  C_19
REMARK    8  A    between atoms: C_22  and  N_25
REMARK    9  A    between atoms: N_25  and  C_26
REMARK   10  A    between atoms: N_25  and  C_27
REMARK   11  A    between atoms: C_27  and  C_28
REMARK   12  A    between atoms: C_28  and  C_29
REMARK                            x       y       z     vdW  Elec       q    Type
REMARK                         _______ _______ _______ _____ _____    ______ ____
ROOT
ATOM      1  C   UNL     1       1.060  -8.227   2.682  0.00  0.00    -0.046 C 
ENDROOT
BRANCH   1   5
ATOM      2  C   UNL     1       1.321  -3.966   2.518  0.00  0.00    -0.064 A 
ATOM      3  C   UNL     1       0.233  -4.569   3.122  0.00  0.00    +0.002 A 
ATOM      4  C   UNL     1       0.149  -5.948   3.174  0.00  0.00    +0.002 A 
ATOM      5  C   UNL     1       1.151  -6.724   2.623  0.00  0.00    -0.064 A 
ATOM      6  C   UNL     1       2.239  -6.121   2.019  0.00  0.00    +0.002 A 
ATOM      7  C   UNL     1       2.321  -4.742   1.963  0.00  0.00    +0.002 A 
BRANCH   2   8
ATOM      8  C   UNL     1       1.413  -2.463   2.461  0.00  0.00    -0.043 C 
BRANCH   8  14
ATOM      9  C   UNL     1      -0.019   1.526   0.010  0.00  0.00    +0.005 C 
ATOM     10  C   UNL     1       0.002  -0.004   0.002  0.00  0.00    -0.031 C 
ATOM     11  C   UNL     1       0.721  -0.499  -1.257  0.00  0.00    -0.001 C 
ATOM     12  C   UNL     1       0.805  -2.027  -1.217  0.00  0.00    -0.018 C 
ATOM     13  C   UNL     1       1.518  -2.460   0.066  0.00  0.00    -0.078 C 
ATOM     14  N   UNL     1       0.768  -1.979   1.233  0.00  0.00    +0.383 N 
ATOM     15  C   UNL     1       0.744  -0.512   1.240  0.00  0.00    -0.075 C 
ATOM     16  H   UNL     1      -0.177  -2.330   1.192  0.00  0.00    -0.081 HD
ENDBRANCH   8  14
ENDBRANCH   2   8
ENDBRANCH   1   5
BRANCH   1  17
ATOM     17  N   UNL     1       0.359  -8.721   1.489  0.00  0.00    +0.384 N 
ATOM     18  H   UNL     1      -0.570  -8.328   1.457  0.00  0.00    -0.085 HD
ATOM     19  H   UNL     1       0.869  -8.447   0.662  0.00  0.00    -0.085 HD
BRANCH  17  20
ATOM     20  C   UNL     1       0.270 -10.186   1.546  0.00  0.00    -0.046 C 
BRANCH  20  21
ATOM     21  C   UNL     1      -0.449 -10.694   0.322  0.00  0.00    -0.064 A 
ATOM     22  C   UNL     1      -1.824 -10.834   0.338  0.00  0.00    +0.003 A 
ATOM     23  C   UNL     1      -2.486 -11.299  -0.781  0.00  0.00    +0.023 A 
ATOM     24  C   UNL     1      -1.768 -11.625  -1.925  0.00  0.00    +0.029 A 
ATOM     25  C   UNL     1      -0.386 -11.483  -1.938  0.00  0.00    +0.023 A 
ATOM     26  C   UNL     1       0.269 -11.012  -0.817  0.00  0.00    +0.003 A 
BRANCH  24  27
ATOM     27  N   UNL     1      -2.434 -12.095  -3.059  0.00  0.00    -0.332 N 
ATOM     28  C   UNL     1      -3.891 -12.245  -3.044  0.00  0.00    +0.129 C 
BRANCH  27  29
ATOM     29  C   UNL     1      -1.675 -12.439  -4.264  0.00  0.00    +0.119 C 
BRANCH  29  30
ATOM     30  C   UNL     1      -1.266 -13.913  -4.207  0.00  0.00    +0.137 C 
BRANCH  30  31
ATOM     31  C   UNL     1      -0.504 -14.258  -5.418  0.00  0.00    +0.064 C 
ATOM     32  N   UNL     1       0.085 -14.524  -6.352  0.00  0.00    -0.197 NA
ENDBRANCH  30  31
ENDBRANCH  29  30
ENDBRANCH  27  29
ENDBRANCH  24  27
ENDBRANCH  20  21
ENDBRANCH  17  20
ENDBRANCH   1  17
TORSDOF 10
