REMARK  Name = ZINC35520514
REMARK  8 active torsions:
REMARK  status: ('A' for Active; 'I' for Inactive)
REMARK    1  A    between atoms: C_1  and  C_2
REMARK    2  A    between atoms: C_3  and  C_28
REMARK    3  A    between atoms: C_4  and  C_23
REMARK    4  A    between atoms: C_9  and  S_13
REMARK    5  A    between atoms: S_13  and  C_14
REMARK    6  A    between atoms: C_14  and  C_15
REMARK    7  A    between atoms: C_28  and  O_30
REMARK    8  A    between atoms: O_30  and  C_31
REMARK                            x       y       z     vdW  Elec       q    Type
REMARK                         _______ _______ _______ _____ _____    ______ ____
ROOT
ATOM      1  C   UNL     1      -0.018   1.503   0.010  0.00  0.00    +0.061 C 
ATOM      2  C   UNL     1       0.002  -0.004   0.002  0.00  0.00    +0.017 C 
ATOM      3  C   UNL     1      -1.159  -0.678   0.004  0.00  0.00    +0.066 C 
ATOM      4  C   UNL     1      -1.210  -2.178  -0.014  0.00  0.00    +0.103 C 
ATOM      5  C   UNL     1       0.121  -2.765   0.361  0.00  0.00    +0.069 A 
ATOM      6  C   UNL     1       1.270  -1.993   0.346  0.00  0.00    +0.135 A 
ATOM      7  N   UNL     1       2.443  -2.542   0.679  0.00  0.00    -0.208 NA
ATOM      8  C   UNL     1       2.527  -3.810   1.028  0.00  0.00    +0.171 A 
ATOM      9  N   UNL     1       1.425  -4.610   1.062  0.00  0.00    -0.302 N 
ATOM     10  C   UNL     1       0.215  -4.111   0.733  0.00  0.00    +0.258 A 
ATOM     11  O   UNL     1      -0.778  -4.820   0.758  0.00  0.00    -0.267 OA
ATOM     12  N   UNL     1       1.202  -0.657  -0.013  0.00  0.00    -0.302 N 
ATOM     13  H   UNL     1       2.008  -0.183  -0.272  0.00  0.00    +0.153 HD
ATOM     14  H   UNL     1       1.511  -5.540   1.324  0.00  0.00    +0.171 HD
ENDROOT
BRANCH   4  15
ATOM     15  C   UNL     1      -1.583  -2.644  -1.398  0.00  0.00    +0.002 A 
ATOM     16  C   UNL     1      -2.653  -3.377  -1.792  0.00  0.00    +0.012 A 
ATOM     17  C   UNL     1      -2.795  -3.690  -3.131  0.00  0.00    +0.008 A 
ATOM     18  C   UNL     1      -1.859  -3.255  -4.010  0.00  0.00    +0.045 A 
ATOM     19  S   UNL     1      -0.735  -2.368  -2.944  0.00  0.00    -0.101 S 
ENDBRANCH   4  15
BRANCH   3  20
ATOM     20  C   UNL     1      -2.372   0.048   0.023  0.00  0.00    +0.337 C 
ATOM     21  O   UNL     1      -2.353   1.265   0.038  0.00  0.00    -0.245 OA
BRANCH  20  22
ATOM     22  O   UNL     1      -3.551  -0.608   0.026  0.00  0.00    -0.465 OA
ATOM     23  C   UNL     1      -4.737   0.189   0.046  0.00  0.00    +0.280 C 
ENDBRANCH  20  22
ENDBRANCH   3  20
BRANCH   8  24
ATOM     24  S   UNL     1       4.097  -4.484   1.457  0.00  0.00    -0.083 S 
BRANCH  24  25
ATOM     25  C   UNL     1       5.240  -3.088   1.272  0.00  0.00    +0.115 C 
BRANCH  25  26
ATOM     26  C   UNL     1       6.639  -3.534   1.614  0.00  0.00    -0.002 A 
ATOM     27  C   UNL     1       7.095  -3.443   2.915  0.00  0.00    +0.007 A 
ATOM     28  C   UNL     1       8.377  -3.852   3.229  0.00  0.00    +0.000 A 
ATOM     29  C   UNL     1       9.205  -4.354   2.242  0.00  0.00    +0.003 A 
ATOM     30  C   UNL     1       8.751  -4.447   0.940  0.00  0.00    +0.038 A 
ATOM     31  C   UNL     1       7.465  -4.042   0.625  0.00  0.00    +0.127 A 
ATOM     32  F   UNL     1       7.018  -4.137  -0.646  0.00  0.00    -0.205 F 
ENDBRANCH  25  26
ENDBRANCH  24  25
ENDBRANCH   8  24
TORSDOF 6
