REMARK  Name = ZINC48664503
REMARK  4 active torsions:
REMARK  status: ('A' for Active; 'I' for Inactive)
REMARK    1  A    between atoms: C_4  and  O_9
REMARK    2  A    between atoms: C_5  and  C_7
REMARK    3  A    between atoms: O_9  and  S_10
REMARK    4  A    between atoms: S_10  and  C_13
REMARK                            x       y       z     vdW  Elec       q    Type
REMARK                         _______ _______ _______ _____ _____    ______ ____
ROOT
ATOM      1  S   UNL     1       4.170  -0.910   1.345  0.00  0.00    +0.152 S 
ATOM      2  O   UNL     1       5.493  -1.392   1.152  0.00  0.00    -0.131 OA
ATOM      3  O   UNL     1       3.882   0.220   2.157  0.00  0.00    -0.131 OA
ENDROOT
BRANCH   1   4
ATOM      4  C   UNL     1       3.236  -2.252   2.000  0.00  0.00    +0.142 A 
ATOM      5  C   UNL     1       2.092  -2.004   2.736  0.00  0.00    +0.033 A 
ATOM      6  C   UNL     1       1.358  -3.057   3.249  0.00  0.00    +0.017 A 
ATOM      7  C   UNL     1       1.768  -4.359   3.028  0.00  0.00    +0.019 A 
ATOM      8  C   UNL     1       2.913  -4.608   2.293  0.00  0.00    +0.032 A 
ATOM      9  C   UNL     1       3.644  -3.554   1.774  0.00  0.00    +0.047 A 
ATOM     10 BR   UNL     1       5.205  -3.894   0.762  0.00  0.00    -0.048 Br
ATOM     11 BR   UNL     1       0.765  -5.799   3.732  0.00  0.00    -0.050 Br
ENDBRANCH   1   4
BRANCH   1  12
ATOM     12  O   UNL     1       3.612  -0.606  -0.038  0.00  0.00    -0.341 OA
BRANCH  12  16
ATOM     13  C   UNL     1      -0.017   1.374   0.010  0.00  0.00    +0.001 A 
ATOM     14  C   UNL     1       1.170   2.089   0.002  0.00  0.00    +0.004 A 
ATOM     15  C   UNL     1       2.383   1.429  -0.013  0.00  0.00    +0.050 A 
ATOM     16  C   UNL     1       2.421   0.043  -0.022  0.00  0.00    +0.174 A 
ATOM     17  C   UNL     1       1.222  -0.684  -0.014  0.00  0.00    +0.096 A 
ATOM     18  C   UNL     1       0.002  -0.004   0.002  0.00  0.00    +0.022 A 
BRANCH  17  19
ATOM     19  C   UNL     1       1.249  -2.116  -0.023  0.00  0.00    +0.103 C 
ATOM     20  N   UNL     1       1.270  -3.252  -0.030  0.00  0.00    -0.191 NA
ENDBRANCH  17  19
ENDBRANCH  12  16
ENDBRANCH   1  12
TORSDOF 4
