REMARK  Name = ZINC39712364
REMARK  6 active torsions:
REMARK  status: ('A' for Active; 'I' for Inactive)
REMARK    1  A    between atoms: C_1  and  C_2
REMARK    2  A    between atoms: C_2  and  C_4
REMARK    3  A    between atoms: C_2  and  S_20
REMARK    4  A    between atoms: C_9  and  C_14
REMARK    5  A    between atoms: S_20  and  C_21
REMARK    6  A    between atoms: N_26  and  C_27
REMARK                            x       y       z     vdW  Elec       q    Type
REMARK                         _______ _______ _______ _____ _____    ______ ____
ROOT
ATOM      1  C   UNL     1       0.707  -0.490  -1.238  0.00  0.00    +0.136 C 
ATOM      2  N   UNL     1       0.073  -1.322  -2.029  0.00  0.00    -0.160 NA
ATOM      3  C   UNL     1       0.617  -1.807  -3.151  0.00  0.00    +0.272 C 
ATOM      4  O   UNL     1      -0.001  -2.579  -3.866  0.00  0.00    -0.268 OA
ATOM      5  C   UNL     1       2.001  -1.374  -3.502  0.00  0.00    +0.075 C 
ATOM      6  C   UNL     1       2.757  -1.733  -4.590  0.00  0.00    -0.015 C 
ATOM      7  C   UNL     1       4.141  -1.135  -4.694  0.00  0.00    +0.112 C 
ATOM      8  S   UNL     1       4.219  -0.092  -3.183  0.00  0.00    -0.100 S 
ATOM      9  C   UNL     1       2.603  -0.441  -2.537  0.00  0.00    +0.112 C 
ATOM     10  N   UNL     1       1.933  -0.052  -1.476  0.00  0.00    -0.226 NA
ENDROOT
BRANCH   6  11
ATOM     11  C   UNL     1       2.246  -2.655  -5.604  0.00  0.00    -0.020 A 
ATOM     12  C   UNL     1       1.962  -3.987  -5.269  0.00  0.00    +0.008 A 
ATOM     13  C   UNL     1       1.481  -4.848  -6.231  0.00  0.00    +0.001 A 
ATOM     14  C   UNL     1       1.276  -4.401  -7.526  0.00  0.00    +0.000 A 
ATOM     15  C   UNL     1       1.553  -3.088  -7.867  0.00  0.00    +0.001 A 
ATOM     16  C   UNL     1       2.030  -2.211  -6.918  0.00  0.00    +0.008 A 
ENDBRANCH   6  11
BRANCH   1  18
ATOM     17  C   UNL     1      -0.019   1.526   0.010  0.00  0.00    +0.027 C 
ATOM     18  C   UNL     1       0.002  -0.004   0.002  0.00  0.00    +0.112 C 
BRANCH  18  19
ATOM     19  S   UNL     1      -1.700  -0.632   0.015  0.00  0.00    -0.106 S 
BRANCH  19  20
ATOM     20  C   UNL     1      -2.354  -0.095   1.619  0.00  0.00    +0.260 C 
ATOM     21  N   UNL     1      -1.504  -0.586   2.720  0.00  0.00    -0.218 N 
ATOM     22  N   UNL     1      -1.016   0.557   3.366  0.00  0.00    -0.063 NA
ATOM     23  N   UNL     1      -1.417   1.598   2.854  0.00  0.00    -0.056 NA
ATOM     24  N   UNL     1      -2.262   1.371   1.756  0.00  0.00    -0.174 N 
ATOM     25  H   UNL     1      -1.321  -1.510   2.950  0.00  0.00    +0.173 HD
BRANCH  24  26
ATOM     26  C   UNL     1      -2.886   2.331   0.957  0.00  0.00    +0.056 A 
ATOM     27  C   UNL     1      -3.701   1.937  -0.098  0.00  0.00    +0.025 A 
ATOM     28  C   UNL     1      -4.316   2.889  -0.886  0.00  0.00    +0.002 A 
ATOM     29  C   UNL     1      -4.122   4.234  -0.627  0.00  0.00    +0.000 A 
ATOM     30  C   UNL     1      -3.311   4.630   0.421  0.00  0.00    +0.002 A 
ATOM     31  C   UNL     1      -2.698   3.683   1.218  0.00  0.00    +0.025 A 
ENDBRANCH  24  26
ENDBRANCH  19  20
ENDBRANCH  18  19
ENDBRANCH   1  18
TORSDOF 5
