REMARK  Name = ZINC02451684
REMARK  2 active torsions:
REMARK  status: ('A' for Active; 'I' for Inactive)
REMARK    1  A    between atoms: C_6  and  C_7
REMARK    2  A    between atoms: N_12  and  C_13
REMARK                            x       y       z     vdW  Elec       q    Type
REMARK                         _______ _______ _______ _____ _____    ______ ____
ROOT
ATOM      1  C   UNL     1       1.258  -2.253   0.266  0.00  0.00    +0.251 C 
ATOM      2  O   UNL     1       2.308  -2.836   0.449  0.00  0.00    -0.270 OA
ATOM      3  N   UNL     1       1.253  -0.920   0.068  0.00  0.00    -0.235 N 
ATOM      4  C   UNL     1       2.413  -0.234   0.072  0.00  0.00    +0.321 C 
ATOM      5  O   UNL     1       3.469  -0.827   0.164  0.00  0.00    -0.251 OA
ATOM      6  N   UNL     1       2.401   1.110  -0.025  0.00  0.00    -0.177 N 
ATOM      7  C   UNL     1       3.561   1.789  -0.122  0.00  0.00    +0.320 C 
ATOM      8  O   UNL     1       4.612   1.186  -0.215  0.00  0.00    -0.251 OA
ATOM      9  N   UNL     1       3.556   3.137  -0.117  0.00  0.00    -0.243 N 
ATOM     10  C   UNL     1       4.749   3.832  -0.126  0.00  0.00    +0.162 C 
ATOM     11  N   UNL     1       5.929   3.254  -0.139  0.00  0.00    -0.356 N 
ATOM     12  C   UNL     1       6.932   4.294  -0.142  0.00  0.00    +0.102 C 
ATOM     13  C   UNL     1       8.203   4.157   0.655  0.00  0.00    +0.026 C 
ATOM     14  C   UNL     1       9.033   5.428   0.395  0.00  0.00    +0.002 C 
ATOM     15  C   UNL     1       8.256   6.696   0.735  0.00  0.00    +0.002 C 
ATOM     16  C   UNL     1       6.892   6.741   0.019  0.00  0.00    +0.024 C 
ATOM     17  C   UNL     1       6.144   5.497   0.451  0.00  0.00    +0.095 C 
ATOM     18  N   UNL     1       4.832   5.221  -0.127  0.00  0.00    -0.314 N 
ATOM     19  H   UNL     1       0.302  -0.392  -0.098  0.00  0.00    +0.159 HD
ATOM     20  H   UNL     1       2.601   3.683  -0.106  0.00  0.00    +0.159 HD
ATOM     21  H   UNL     1       4.183   6.053  -0.439  0.00  0.00    +0.149 HD
ATOM     22  H   UNL     1       6.004   2.157  -0.146  0.00  0.00    +0.162 HD
ENDROOT
BRANCH   1  28
ATOM     23  C   UNL     1      -1.222  -2.337   0.057  0.00  0.00    +0.014 A 
ATOM     24  C   UNL     1      -2.405  -3.046   0.047  0.00  0.00    +0.021 A 
ATOM     25  C   UNL     1      -2.397  -4.416   0.252  0.00  0.00    +0.041 A 
ATOM     26  C   UNL     1      -1.201  -5.083   0.461  0.00  0.00    +0.021 A 
ATOM     27  C   UNL     1      -0.011  -4.387   0.466  0.00  0.00    +0.014 A 
ATOM     28  C   UNL     1      -0.013  -3.005   0.261  0.00  0.00    +0.037 A 
ATOM     29 CL   UNL     1      -3.891  -5.300   0.246  0.00  0.00    -0.084 Cl
ENDBRANCH   1  28
BRANCH   6  30
ATOM     30  C   UNL     1       1.181   1.803  -0.025  0.00  0.00    +0.047 A 
ATOM     31  C   UNL     1       0.355   1.756  -1.139  0.00  0.00    +0.025 A 
ATOM     32  C   UNL     1      -0.843   2.443  -1.139  0.00  0.00    +0.022 A 
ATOM     33  C   UNL     1      -1.226   3.168  -0.024  0.00  0.00    +0.041 A 
ATOM     34  C   UNL     1      -0.404   3.216   1.088  0.00  0.00    +0.022 A 
ATOM     35  C   UNL     1       0.798   2.535   1.090  0.00  0.00    +0.025 A 
ATOM     36 CL   UNL     1      -2.736   4.024  -0.024  0.00  0.00    -0.084 Cl
ENDBRANCH   6  30
TORSDOF 2
