REMARK  Name = ZINC16698859
REMARK  9 active torsions:
REMARK  status: ('A' for Active; 'I' for Inactive)
REMARK    1  A    between atoms: C_1  and  C_2
REMARK    2  A    between atoms: C_2  and  C_4
REMARK    3  A    between atoms: C_2  and  N_27
REMARK    4  A    between atoms: C_7  and  C_10
REMARK    5  A    between atoms: C_10  and  C_12
REMARK    6  A    between atoms: C_12  and  S_13
REMARK    7  A    between atoms: S_13  and  C_14
REMARK    8  A    between atoms: N_19  and  C_20
REMARK    9  A    between atoms: C_28  and  C_30
REMARK                            x       y       z     vdW  Elec       q    Type
REMARK                         _______ _______ _______ _____ _____    ______ ____
ROOT
ATOM      1  C   UNL     1       7.309  -4.891  -0.577  0.00  0.00    +0.156 C 
ENDROOT
BRANCH   1   2
ATOM      2  C   UNL     1       8.411  -5.909  -0.718  0.00  0.00    +0.173 C 
ATOM      3  O   UNL     1       8.140  -7.088  -0.797  0.00  0.00    -0.291 OA
BRANCH   2   7
ATOM      4  C   UNL     1      12.460  -4.650  -0.839  0.00  0.00    -0.027 A 
ATOM      5  C   UNL     1      12.155  -5.997  -0.929  0.00  0.00    +0.006 A 
ATOM      6  C   UNL     1      10.841  -6.414  -0.891  0.00  0.00    +0.012 A 
ATOM      7  C   UNL     1       9.816  -5.472  -0.760  0.00  0.00    +0.018 A 
ATOM      8  C   UNL     1      10.132  -4.112  -0.674  0.00  0.00    +0.012 A 
ATOM      9  C   UNL     1      11.450  -3.711  -0.709  0.00  0.00    +0.006 A 
BRANCH   4  11
ATOM     10  C   UNL     1      14.235  -3.700  -2.287  0.00  0.00    +0.033 C 
ATOM     11  C   UNL     1      13.898  -4.202  -0.881  0.00  0.00    +0.100 C 
BRANCH  11  12
ATOM     12  N   UNL     1      14.102  -3.120   0.086  0.00  0.00    -0.309 N 
ATOM     13  C   UNL     1      15.328  -2.898   0.599  0.00  0.00    +0.210 C 
ATOM     14  O   UNL     1      16.263  -3.592   0.260  0.00  0.00    -0.276 OA
ATOM     15  C   UNL     1      15.538  -1.785   1.593  0.00  0.00    +0.109 C 
ATOM     16  H   UNL     1      13.354  -2.565   0.356  0.00  0.00    +0.149 HD
ENDBRANCH  11  12
ENDBRANCH   4  11
ENDBRANCH   2   7
ENDBRANCH   1   2
BRANCH   1  17
ATOM     17  S   UNL     1       5.704  -5.736  -0.557  0.00  0.00    -0.089 S 
BRANCH  17  18
ATOM     18  C   UNL     1       4.536  -4.428  -0.389  0.00  0.00    +0.160 A 
ATOM     19  N   UNL     1       4.743  -3.128  -0.296  0.00  0.00    -0.133 NA
ATOM     20  N   UNL     1       3.674  -2.271  -0.175  0.00  0.00    -0.125 NA
ATOM     21  C   UNL     1       2.447  -2.754  -0.141  0.00  0.00    +0.187 A 
ATOM     22  S   UNL     1       2.753  -4.506  -0.298  0.00  0.00    -0.024 S 
ATOM     23  N   UNL     1       1.238  -2.078  -0.020  0.00  0.00    -0.292 N 
ATOM     24  H   UNL     1       0.411  -2.577   0.075  0.00  0.00    +0.154 HD
BRANCH  23  25
ATOM     25  C   UNL     1       1.213  -0.681  -0.037  0.00  0.00    +0.034 A 
ATOM     26  C   UNL     1       2.231   0.025  -0.667  0.00  0.00    +0.023 A 
ATOM     27  C   UNL     1       2.204   1.406  -0.682  0.00  0.00    +0.003 A 
ATOM     28  C   UNL     1       1.165   2.086  -0.073  0.00  0.00    +0.015 A 
ATOM     29  C   UNL     1       0.150   1.386   0.555  0.00  0.00    +0.020 A 
ATOM     30  C   UNL     1       0.171   0.004   0.574  0.00  0.00    +0.038 A 
ATOM     31 BR   UNL     1      -1.268   2.320   1.387  0.00  0.00    -0.050 Br
ENDBRANCH  23  25
ENDBRANCH  17  18
ENDBRANCH   1  17
TORSDOF 7
