REMARK  Name = ZINC40684474
REMARK  8 active torsions:
REMARK  status: ('A' for Active; 'I' for Inactive)
REMARK    1  A    between atoms: C_1  and  C_2
REMARK    2  A    between atoms: C_5  and  O_30
REMARK    3  A    between atoms: C_6  and  N_8
REMARK    4  A    between atoms: C_10  and  N_29
REMARK    5  A    between atoms: C_11  and  N_15
REMARK    6  A    between atoms: N_15  and  C_16
REMARK    7  A    between atoms: C_16  and  C_17
REMARK    8  A    between atoms: O_30  and  C_31
REMARK                            x       y       z     vdW  Elec       q    Type
REMARK                         _______ _______ _______ _____ _____    ______ ____
ROOT
ATOM      1  N   UNL     1       0.080  -2.894   2.392  0.00  0.00    -0.296 N 
ATOM      2  C   UNL     1       0.158  -2.188   3.587  0.00  0.00    +0.126 A 
ATOM      3  C   UNL     1       0.297  -2.863   4.801  0.00  0.00    +0.104 A 
ATOM      4  C   UNL     1       0.371  -2.106   5.971  0.00  0.00    +0.153 A 
ATOM      5  N   UNL     1       0.305  -0.779   5.886  0.00  0.00    -0.220 NA
ATOM      6  C   UNL     1       0.173  -0.181   4.719  0.00  0.00    +0.200 A 
ATOM      7  N   UNL     1       0.105  -0.858   3.591  0.00  0.00    -0.333 N 
ATOM      8  H   UNL     1       0.031  -3.862   2.403  0.00  0.00    +0.154 HD
ATOM      9  H   UNL     1       0.012  -0.381   2.751  0.00  0.00    +0.168 HD
ENDROOT
BRANCH   1  15
ATOM     10  C   UNL     1      -2.293  -1.567  -1.705  0.00  0.00    +0.044 C 
ATOM     11  C   UNL     1      -1.063  -1.546  -0.834  0.00  0.00    -0.048 A 
ATOM     12  C   UNL     1       0.058  -0.847  -1.242  0.00  0.00    +0.007 A 
ATOM     13  C   UNL     1       1.190  -0.824  -0.447  0.00  0.00    +0.048 A 
ATOM     14  C   UNL     1       1.202  -1.502   0.761  0.00  0.00    +0.141 A 
ATOM     15  C   UNL     1       0.073  -2.207   1.172  0.00  0.00    +0.075 A 
ATOM     16  C   UNL     1      -1.060  -2.221   0.372  0.00  0.00    +0.030 A 
BRANCH  14  17
ATOM     17  O   UNL     1       2.315  -1.481   1.543  0.00  0.00    -0.493 OA
ATOM     18  C   UNL     1       3.435  -0.738   1.057  0.00  0.00    +0.277 C 
ENDBRANCH  14  17
ENDBRANCH   1  15
BRANCH   4  19
ATOM     19  N   UNL     1       0.510  -2.728   7.208  0.00  0.00    -0.264 N 
ATOM     20  C   UNL     1      -0.614  -2.994   7.983  0.00  0.00    +0.127 A 
ATOM     21  C   UNL     1      -1.883  -2.804   7.445  0.00  0.00    +0.044 A 
ATOM     22  C   UNL     1      -2.992  -3.072   8.227  0.00  0.00    +0.005 A 
ATOM     23  C   UNL     1      -2.794  -3.524   9.526  0.00  0.00    +0.020 A 
ATOM     24  C   UNL     1      -1.506  -3.690   9.995  0.00  0.00    +0.113 A 
ATOM     25  N   UNL     1      -0.467  -3.431   9.224  0.00  0.00    -0.240 NA
BRANCH  19  26
ATOM     26  C   UNL     1       1.840  -3.103   7.694  0.00  0.00    +0.149 C 
BRANCH  26  27
ATOM     27  C   UNL     1       2.426  -1.962   8.484  0.00  0.00    -0.030 A 
ATOM     28  C   UNL     1       3.180  -0.994   7.847  0.00  0.00    +0.005 A 
ATOM     29  C   UNL     1       3.717   0.053   8.572  0.00  0.00    +0.000 A 
ATOM     30  C   UNL     1       3.501   0.132   9.935  0.00  0.00    +0.000 A 
ATOM     31  C   UNL     1       2.747  -0.835  10.573  0.00  0.00    +0.000 A 
ATOM     32  C   UNL     1       2.206  -1.880   9.847  0.00  0.00    +0.005 A 
ENDBRANCH  26  27
ENDBRANCH  19  26
ENDBRANCH   4  19
BRANCH   3  33
ATOM     33  N   UNL     1       0.362  -4.265   4.844  0.00  0.00    -0.353 N 
ATOM     34  H   UNL     1       0.384  -4.775   4.019  0.00  0.00    +0.143 HD
ATOM     35  H   UNL     1       0.384  -4.723   5.699  0.00  0.00    +0.143 HD
ENDBRANCH   3  33
TORSDOF 6
