REMARK  Name = ZINC03670397
REMARK  9 active torsions:
REMARK  status: ('A' for Active; 'I' for Inactive)
REMARK    1  A    between atoms: C_1  and  C_2
REMARK    2  A    between atoms: C_7  and  C_8
REMARK    3  A    between atoms: C_7  and  N_64
REMARK    4  A    between atoms: C_8  and  C_10
REMARK    5  A    between atoms: C_8  and  C_11
REMARK    6  A    between atoms: C_11  and  N_12
REMARK    7  A    between atoms: C_13  and  C_15
REMARK    8  A    between atoms: C_15  and  O_34
REMARK    9  A    between atoms: N_25  and  C_26
REMARK                            x       y       z     vdW  Elec       q    Type
REMARK                         _______ _______ _______ _____ _____    ______ ____
ROOT
ATOM      1  C   UNL     1       2.115   3.704   0.687  0.00  0.00    +0.247 C 
ATOM      2  C   UNL     1       0.996   2.719   0.936  0.00  0.00    +0.033 A 
ATOM      3  C   UNL     1      -0.182   3.111   1.529  0.00  0.00    +0.010 A 
ATOM      4  C   UNL     1      -1.186   2.181   1.741  0.00  0.00    +0.001 A 
ATOM      5  C   UNL     1      -1.005   0.866   1.352  0.00  0.00    +0.002 A 
ATOM      6  C   UNL     1       0.178   0.470   0.761  0.00  0.00    +0.024 A 
ATOM      7  C   UNL     1       1.188   1.398   0.546  0.00  0.00    +0.043 A 
ATOM      8  N   UNL     1       2.389   1.019  -0.055  0.00  0.00    -0.269 N 
ATOM      9  C   UNL     1       3.392   1.877  -0.284  0.00  0.00    +0.314 C 
ATOM     10  O   UNL     1       4.403   1.458  -0.814  0.00  0.00    -0.252 OA
ATOM     11  N   UNL     1       3.333   3.180   0.044  0.00  0.00    -0.214 N 
ATOM     12  H   UNL     1       2.503   0.093  -0.319  0.00  0.00    +0.156 HD
ENDROOT
BRANCH  11  13
ATOM     13  C   UNL     1       4.415   4.028  -0.220  0.00  0.00    +0.043 A 
ATOM     14  C   UNL     1       5.470   4.109   0.678  0.00  0.00    +0.025 A 
ATOM     15  C   UNL     1       6.537   4.946   0.415  0.00  0.00    +0.023 A 
ATOM     16  C   UNL     1       6.556   5.702  -0.744  0.00  0.00    +0.059 A 
ATOM     17  C   UNL     1       5.505   5.623  -1.642  0.00  0.00    +0.061 A 
ATOM     18  C   UNL     1       4.437   4.783  -1.385  0.00  0.00    +0.045 A 
ATOM     19 CL   UNL     1       5.532   6.573  -3.095  0.00  0.00    -0.082 Cl
ATOM     20 CL   UNL     1       7.899   6.751  -1.072  0.00  0.00    -0.082 Cl
ENDBRANCH  11  13
BRANCH   1  22
ATOM     21  N   UNL     1       3.184   3.562   2.913  0.00  0.00    -0.311 N 
ATOM     22  C   UNL     1       2.509   4.303   2.012  0.00  0.00    +0.269 C 
ATOM     23  O   UNL     1       2.219   5.453   2.268  0.00  0.00    -0.270 OA
ATOM     24  H   UNL     1       3.416   2.643   2.708  0.00  0.00    +0.149 HD
BRANCH  21  25
ATOM     25  C   UNL     1       3.568   4.145   4.201  0.00  0.00    +0.105 C 
BRANCH  25  26
ATOM     26  C   UNL     1       4.318   3.100   5.030  0.00  0.00    -0.014 C 
ATOM     27  C   UNL     1       3.373   1.947   5.373  0.00  0.00    +0.007 C 
BRANCH  26  28
ATOM     28  C   UNL     1       4.827   3.744   6.322  0.00  0.00    -0.074 C 
BRANCH  28  35
ATOM     29  C   UNL     1       8.547   0.458   9.154  0.00  0.00    +0.007 C 
ATOM     30  C   UNL     1       7.923   1.585   8.329  0.00  0.00    -0.018 C 
ATOM     31  C   UNL     1       6.831   2.275   9.151  0.00  0.00    -0.016 C 
ATOM     32  C   UNL     1       6.169   3.361   8.299  0.00  0.00    -0.079 C 
ATOM     33  C   UNL     1       6.627   2.126   6.265  0.00  0.00    -0.079 C 
ATOM     34  C   UNL     1       7.302   1.004   7.056  0.00  0.00    -0.016 C 
ATOM     35  N   UNL     1       5.570   2.734   7.102  0.00  0.00    +0.380 N 
ATOM     36  H   UNL     1       4.919   1.998   7.402  0.00  0.00    -0.082 HD
ENDBRANCH  28  35
ENDBRANCH  26  28
ENDBRANCH  25  26
ENDBRANCH  21  25
ENDBRANCH   1  22
BRANCH   1  37
ATOM     37  O   UNL     1       1.602   4.756  -0.133  0.00  0.00    -0.360 OA
ATOM     38  H   UNL     1       0.796   5.165   0.210  0.00  0.00    +0.213 HD
ENDBRANCH   1  37
TORSDOF 7
