REMARK  Name = ZINC36141281
REMARK  6 active torsions:
REMARK  status: ('A' for Active; 'I' for Inactive)
REMARK    1  A    between atoms: C_1  and  C_2
REMARK    2  A    between atoms: C_2  and  C_3
REMARK    3  A    between atoms: C_2  and  C_4
REMARK    4  A    between atoms: C_4  and  O_5
REMARK    5  A    between atoms: O_5  and  C_6
REMARK    6  A    between atoms: C_20  and  O_22
REMARK                            x       y       z     vdW  Elec       q    Type
REMARK                         _______ _______ _______ _____ _____    ______ ____
ROOT
ATOM      1  C   UNL     1      -3.380  -0.553  -1.351  0.00  0.00    +0.124 A 
ATOM      2  C   UNL     1      -4.006  -1.282  -0.350  0.00  0.00    +0.046 A 
ATOM      3  C   UNL     1      -5.319  -1.679  -0.506  0.00  0.00    +0.013 A 
ATOM      4  C   UNL     1      -6.017  -1.356  -1.658  0.00  0.00    +0.023 A 
ATOM      5  C   UNL     1      -5.396  -0.632  -2.661  0.00  0.00    +0.130 A 
ATOM      6  C   UNL     1      -4.077  -0.223  -2.502  0.00  0.00    +0.091 A 
ATOM      7  O   UNL     1      -6.040  -0.305  -3.812  0.00  0.00    -0.485 OA
ATOM      8  C   UNL     1      -7.463  -0.399  -3.834  0.00  0.00    +0.110 C 
ATOM      9  C   UNL     1      -8.072   0.720  -2.987  0.00  0.00    +0.029 C 
ATOM     10  C   UNL     1      -7.731   2.073  -3.616  0.00  0.00    -0.079 C 
ATOM     11  N   UNL     1      -8.270   2.134  -4.979  0.00  0.00    +0.379 N 
ATOM     12  C   UNL     1      -7.629   1.111  -5.814  0.00  0.00    -0.079 C 
ATOM     13  C   UNL     1      -7.968  -0.280  -5.273  0.00  0.00    +0.029 C 
ATOM     14  C   UNL     1      -7.875  -1.758  -3.257  0.00  0.00    +0.084 C 
ATOM     15  C   UNL     1      -7.451  -1.806  -1.787  0.00  0.00    +0.152 C 
ATOM     16  H   UNL     1      -9.265   1.970  -4.954  0.00  0.00    -0.086 HD
ATOM     17  H   UNL     1      -8.092   3.046  -5.371  0.00  0.00    -0.086 HD
ENDROOT
BRANCH  15  18
ATOM     18  O   UNL     1      -7.575  -3.143  -1.300  0.00  0.00    -0.387 OA
ATOM     19  H   UNL     1      -7.325  -3.248  -0.371  0.00  0.00    +0.210 HD
ENDBRANCH  15  18
BRANCH   1  20
ATOM     20  O   UNL     1      -2.089  -0.158  -1.200  0.00  0.00    -0.492 OA
BRANCH  20  21
ATOM     21  C   UNL     1      -1.433  -0.534   0.013  0.00  0.00    +0.232 C 
BRANCH  21  23
ATOM     22  C   UNL     1      -0.019   1.526   0.010  0.00  0.00    +0.010 C 
ATOM     23  C   UNL     1       0.002  -0.004   0.002  0.00  0.00    +0.020 C 
ATOM     24  C   UNL     1       0.742  -0.511   1.242  0.00  0.00    +0.010 C 
ENDBRANCH  21  23
ENDBRANCH  20  21
ENDBRANCH   1  20
TORSDOF 4
