REMARK  Name = ZINC67236368
REMARK  7 active torsions:
REMARK  status: ('A' for Active; 'I' for Inactive)
REMARK    1  A    between atoms: C_1  and  C_2
REMARK    2  A    between atoms: N_10  and  C_25
REMARK    3  A    between atoms: C_11  and  S_13
REMARK    4  A    between atoms: S_13  and  C_14
REMARK    5  A    between atoms: C_14  and  C_15
REMARK    6  A    between atoms: N_17  and  C_18
REMARK    7  A    between atoms: C_25  and  C_26
REMARK                            x       y       z     vdW  Elec       q    Type
REMARK                         _______ _______ _______ _____ _____    ______ ____
ROOT
ATOM      1  C   UNL     1      -0.075   1.502   0.010  0.00  0.00    +0.063 C 
ATOM      2  C   UNL     1      -0.043  -0.004   0.002  0.00  0.00    +0.016 A 
ATOM      3  C   UNL     1      -0.032  -0.776  -1.104  0.00  0.00    +0.051 A 
ATOM      4  C   UNL     1      -0.002  -2.126  -0.690  0.00  0.00    +0.097 A 
ATOM      5  C   UNL     1       0.004  -2.116   0.710  0.00  0.00    +0.131 A 
ATOM      6  N   UNL     1      -0.016  -0.796   1.109  0.00  0.00    -0.353 N 
ATOM      7  H   UNL     1      -0.013  -0.483   2.027  0.00  0.00    +0.166 HD
ATOM      8  C   UNL     1       0.034  -3.344   1.396  0.00  0.00    +0.279 A 
ATOM      9  O   UNL     1       0.040  -3.377   2.615  0.00  0.00    -0.265 OA
ATOM     10  N   UNL     1       0.054  -4.486   0.673  0.00  0.00    -0.279 N 
ATOM     11  C   UNL     1       0.048  -4.441  -0.691  0.00  0.00    +0.173 A 
ATOM     12  N   UNL     1       0.020  -3.303  -1.346  0.00  0.00    -0.221 NA
ENDROOT
BRANCH  11  13
ATOM     13  S   UNL     1       0.077  -5.951  -1.598  0.00  0.00    -0.078 S 
BRANCH  13  14
ATOM     14  C   UNL     1       0.058  -5.421  -3.333  0.00  0.00    +0.173 C 
BRANCH  14  15
ATOM     15  C   UNL     1       0.081  -6.633  -4.229  0.00  0.00    +0.227 C 
ATOM     16  O   UNL     1       0.107  -7.745  -3.744  0.00  0.00    -0.275 OA
ATOM     17  N   UNL     1       0.071  -6.481  -5.568  0.00  0.00    -0.285 N 
ATOM     18  H   UNL     1      -0.017  -5.597  -5.955  0.00  0.00    +0.155 HD
BRANCH  17  19
ATOM     19  C   UNL     1       0.190  -7.601  -6.399  0.00  0.00    +0.033 A 
ATOM     20  C   UNL     1       0.885  -7.507  -7.598  0.00  0.00    +0.024 A 
ATOM     21  C   UNL     1       1.001  -8.613  -8.416  0.00  0.00    +0.017 A 
ATOM     22  C   UNL     1       0.425  -9.815  -8.043  0.00  0.00    +0.018 A 
ATOM     23  C   UNL     1      -0.268  -9.911  -6.850  0.00  0.00    +0.017 A 
ATOM     24  C   UNL     1      -0.382  -8.809  -6.025  0.00  0.00    +0.024 A 
ATOM     25 BR   UNL     1       0.586 -11.327  -9.167  0.00  0.00    -0.050 Br
ENDBRANCH  17  19
ENDBRANCH  14  15
ENDBRANCH  13  14
ENDBRANCH  11  13
BRANCH  10  26
ATOM     26  C   UNL     1       0.085  -5.780   1.359  0.00  0.00    +0.201 C 
BRANCH  26  27
ATOM     27  C   UNL     1      -1.325  -6.254   1.600  0.00  0.00    +0.125 A 
ATOM     28  C   UNL     1      -2.052  -7.016   0.764  0.00  0.00    +0.046 A 
ATOM     29  C   UNL     1      -3.307  -7.221   1.384  0.00  0.00    +0.041 A 
ATOM     30  C   UNL     1      -3.271  -6.571   2.561  0.00  0.00    +0.195 A 
ATOM     31  O   UNL     1      -2.066  -5.992   2.689  0.00  0.00    -0.466 OA
ENDBRANCH  26  27
ENDBRANCH  10  26
TORSDOF 6
