REMARK  Name = ZINC09692174
REMARK  11 active torsions:
REMARK  status: ('A' for Active; 'I' for Inactive)
REMARK    1  A    between atoms: C_1  and  C_2
REMARK    2  A    between atoms: C_2  and  C_3
REMARK    3  A    between atoms: C_12  and  S_14
REMARK    4  A    between atoms: S_14  and  N_17
REMARK    5  A    between atoms: N_17  and  C_18
REMARK    6  A    between atoms: C_18  and  C_20
REMARK    7  A    between atoms: C_18  and  C_24
REMARK    8  A    between atoms: C_20  and  C_21
REMARK    9  A    between atoms: C_21  and  C_22
REMARK   10  A    between atoms: C_21  and  C_23
REMARK   11  A    between atoms: N_26  and  C_27
REMARK                            x       y       z     vdW  Elec       q    Type
REMARK                         _______ _______ _______ _____ _____    ______ ____
ROOT
ATOM      1  N   UNL     1       1.583   0.369   0.215  0.00  0.00    -0.178 NA
ATOM      2  H   UNL     1       2.003   0.973   0.847  0.00  0.00    +0.149 HD
ENDROOT
BRANCH   1   3
ATOM      3  S   UNL     1       2.492  -0.764  -0.580  0.00  0.00    +0.059 S 
ATOM      4  O   UNL     1       3.836  -0.573  -0.159  0.00  0.00    -0.153 OA
ATOM      5  O   UNL     1       1.816  -2.005  -0.431  0.00  0.00    -0.153 OA
BRANCH   3  15
ATOM      6  C   UNL     1       2.899   1.223  -7.173  0.00  0.00    +0.220 C 
ATOM      7  O   UNL     1       3.853   1.817  -6.717  0.00  0.00    -0.275 OA
ATOM      8  N   UNL     1       2.139   0.452  -6.369  0.00  0.00    -0.271 N 
ATOM      9  C   UNL     1       0.966  -0.311  -6.802  0.00  0.00    +0.118 C 
ATOM     10  C   UNL     1       0.453  -1.015  -5.535  0.00  0.00    +0.056 C 
ATOM     11  C   UNL     1       1.408  -0.582  -4.446  0.00  0.00    -0.023 A 
ATOM     12  C   UNL     1       2.356   0.264  -5.000  0.00  0.00    +0.040 A 
ATOM     13  C   UNL     1       3.352   0.796  -4.181  0.00  0.00    +0.026 A 
ATOM     14  C   UNL     1       3.390   0.481  -2.839  0.00  0.00    +0.030 A 
ATOM     15  C   UNL     1       2.440  -0.364  -2.295  0.00  0.00    +0.106 A 
ATOM     16  C   UNL     1       1.453  -0.899  -3.102  0.00  0.00    +0.034 A 
BRANCH   6  18
ATOM     17  C   UNL     1       3.574   2.272  -9.316  0.00  0.00    +0.013 C 
ATOM     18  C   UNL     1       2.563   1.346  -8.636  0.00  0.00    +0.093 C 
ENDBRANCH   6  18
ENDBRANCH   3  15
ENDBRANCH   1   3
BRANCH   1  19
ATOM     19  C   UNL     1       0.142   0.459  -0.036  0.00  0.00    +0.163 C 
BRANCH  19  20
ATOM     20  C   UNL     1      -0.184   1.813  -0.612  0.00  0.00    +0.236 C 
ATOM     21  O   UNL     1       0.700   2.623  -0.795  0.00  0.00    -0.274 OA
ATOM     22  N   UNL     1      -1.457   2.122  -0.929  0.00  0.00    -0.283 N 
ATOM     23  H   UNL     1      -2.150   1.446  -0.868  0.00  0.00    +0.155 HD
BRANCH  22  24
ATOM     24  C   UNL     1      -1.779   3.418  -1.347  0.00  0.00    +0.047 A 
ATOM     25  C   UNL     1      -0.924   4.474  -1.062  0.00  0.00    +0.024 A 
ATOM     26  C   UNL     1      -1.243   5.751  -1.479  0.00  0.00    +0.002 A 
ATOM     27  C   UNL     1      -2.417   5.981  -2.173  0.00  0.00    +0.001 A 
ATOM     28  C   UNL     1      -3.274   4.933  -2.455  0.00  0.00    +0.017 A 
ATOM     29  C   UNL     1      -2.958   3.652  -2.044  0.00  0.00    +0.039 A 
ATOM     30 BR   UNL     1      -4.131   2.219  -2.429  0.00  0.00    -0.048 Br
ENDBRANCH  22  24
ENDBRANCH  19  20
BRANCH  19  31
ATOM     31  C   UNL     1      -0.618   0.267   1.278  0.00  0.00    +0.032 C 
BRANCH  31  32
ATOM     32  C   UNL     1      -0.374  -1.147   1.806  0.00  0.00    -0.015 C 
ATOM     33  C   UNL     1      -1.003  -1.289   3.194  0.00  0.00    +0.007 C 
ATOM     34  C   UNL     1      -1.006  -2.164   0.853  0.00  0.00    +0.007 C 
ENDBRANCH  31  32
ENDBRANCH  19  31
ENDBRANCH   1  19
TORSDOF 8
