REMARK  Name = ZINC44169431
REMARK  10 active torsions:
REMARK  status: ('A' for Active; 'I' for Inactive)
REMARK    1  A    between atoms: C_1  and  C_2
REMARK    2  A    between atoms: C_2  and  C_3
REMARK    3  A    between atoms: C_3  and  C_4
REMARK    4  A    between atoms: C_4  and  C_5
REMARK    5  A    between atoms: C_5  and  C_6
REMARK    6  A    between atoms: C_9  and  C_12
REMARK    7  A    between atoms: C_17  and  C_20
REMARK    8  A    between atoms: N_22  and  C_23
REMARK    9  A    between atoms: C_23  and  C_24
REMARK   10  A    between atoms: C_24  and  C_25
REMARK                            x       y       z     vdW  Elec       q    Type
REMARK                         _______ _______ _______ _____ _____    ______ ____
ROOT
ATOM      1  C   UNL     1      -2.770  -8.371  -0.017  0.00  0.00    -0.030 C 
ATOM      2  C   UNL     1      -1.337  -8.864   0.220  0.00  0.00    +0.058 C 
ATOM      3  S   UNL     1      -1.338 -10.682   0.137  0.00  0.00    -0.163 S 
ATOM      4  C   UNL     1      -2.708 -11.131   1.248  0.00  0.00    +0.062 C 
ATOM      5  C   UNL     1      -3.936 -10.299   0.858  0.00  0.00    +0.027 C 
ATOM      6  N   UNL     1      -3.649  -8.875   1.041  0.00  0.00    +0.392 N 
ATOM      7  H   UNL     1      -3.201  -8.739   1.935  0.00  0.00    -0.084 HD
ATOM      8  H   UNL     1      -4.516  -8.359   1.025  0.00  0.00    -0.084 HD
ENDROOT
BRANCH   1  12
ATOM      9  C   UNL     1      -2.828  -4.100   0.007  0.00  0.00    -0.047 A 
ATOM     10  C   UNL     1      -2.824  -4.785  -1.194  0.00  0.00    +0.004 A 
ATOM     11  C   UNL     1      -2.805  -6.167  -1.202  0.00  0.00    +0.002 A 
ATOM     12  C   UNL     1      -2.790  -6.864  -0.008  0.00  0.00    -0.061 A 
ATOM     13  C   UNL     1      -2.792  -6.180   1.193  0.00  0.00    +0.002 A 
ATOM     14  C   UNL     1      -2.807  -4.797   1.200  0.00  0.00    +0.004 A 
BRANCH   9  15
ATOM     15  C   UNL     1      -2.848  -2.593   0.015  0.00  0.00    +0.035 C 
BRANCH  15  16
ATOM     16  C   UNL     1      -1.413  -2.063   0.004  0.00  0.00    +0.005 C 
BRANCH  16  17
ATOM     17  C   UNL     1      -1.433  -0.534   0.013  0.00  0.00    +0.000 C 
BRANCH  17  19
ATOM     18  C   UNL     1      -0.019   1.526   0.010  0.00  0.00    +0.004 C 
ATOM     19  C   UNL     1       0.002  -0.004   0.002  0.00  0.00    -0.003 C 
ENDBRANCH  17  19
ENDBRANCH  16  17
ENDBRANCH  15  16
ENDBRANCH   9  15
ENDBRANCH   1  12
BRANCH   5  20
ATOM     20  C   UNL     1      -5.102 -10.690   1.728  0.00  0.00    +0.200 C 
ATOM     21  O   UNL     1      -5.636  -9.861   2.434  0.00  0.00    -0.278 OA
ATOM     22  N   UNL     1      -5.553 -11.960   1.721  0.00  0.00    -0.316 N 
ATOM     23  H   UNL     1      -5.126 -12.623   1.156  0.00  0.00    +0.149 HD
BRANCH  22  24
ATOM     24  C   UNL     1      -6.687 -12.340   2.567  0.00  0.00    +0.109 C 
BRANCH  24  25
ATOM     25  C   UNL     1      -6.994 -13.826   2.372  0.00  0.00    +0.061 C 
BRANCH  25  26
ATOM     26  C   UNL     1      -8.160 -14.217   3.242  0.00  0.00    -0.009 A 
ATOM     27  C   UNL     1      -9.484 -14.204   2.951  0.00  0.00    +0.011 A 
ATOM     28  C   UNL     1     -10.386 -14.611   3.916  0.00  0.00    +0.008 A 
ATOM     29  C   UNL     1      -9.921 -15.011   5.124  0.00  0.00    +0.045 A 
ATOM     30  S   UNL     1      -8.157 -14.824   4.921  0.00  0.00    -0.102 S 
ENDBRANCH  25  26
ENDBRANCH  24  25
ENDBRANCH  22  24
ENDBRANCH   5  20
TORSDOF 9
