REMARK  Name = ZINC62848747
REMARK  5 active torsions:
REMARK  status: ('A' for Active; 'I' for Inactive)
REMARK    1  A    between atoms: C_1  and  C_2
REMARK    2  A    between atoms: C_2  and  C_3
REMARK    3  A    between atoms: C_3  and  C_9
REMARK    4  A    between atoms: N_11  and  C_12
REMARK    5  A    between atoms: C_18  and  C_20
REMARK                            x       y       z     vdW  Elec       q    Type
REMARK                         _______ _______ _______ _____ _____    ______ ____
ROOT
ATOM      1  C   UNL     1       2.652  -0.369  -1.081  0.00  0.00    +0.219 C 
ATOM      2  O   UNL     1       3.711  -0.949  -1.198  0.00  0.00    -0.275 OA
ATOM      3  N   UNL     1       2.632   0.956  -0.835  0.00  0.00    -0.311 N 
ATOM      4  H   UNL     1       1.788   1.432  -0.814  0.00  0.00    +0.149 HD
ENDROOT
BRANCH   1   5
ATOM      5  C   UNL     1       1.359  -1.131  -1.210  0.00  0.00    +0.043 C 
ATOM      6  C   UNL     1       1.654  -2.630  -1.326  0.00  0.00    -0.003 C 
ATOM      7  C   UNL     1       2.332  -3.111  -0.042  0.00  0.00    -0.082 C 
ATOM      8  N   UNL     1       1.445  -2.873   1.103  0.00  0.00    +0.379 N 
ATOM      9  C   UNL     1       1.215  -1.433   1.264  0.00  0.00    -0.082 C 
ATOM     10  C   UNL     1       0.494  -0.886   0.030  0.00  0.00    -0.003 C 
ATOM     11  H   UNL     1       0.564  -3.338   0.946  0.00  0.00    -0.086 HD
ATOM     12  H   UNL     1       1.873  -3.240   1.940  0.00  0.00    -0.086 HD
BRANCH   5  14
ATOM     13  C   UNL     1       1.483  -0.885  -3.693  0.00  0.00    +0.005 C 
ATOM     14  C   UNL     1       0.609  -0.659  -2.458  0.00  0.00    +0.012 C 
ENDBRANCH   5  14
ENDBRANCH   1   5
BRANCH   3  15
ATOM     15  C   UNL     1       3.886   1.676  -0.601  0.00  0.00    +0.084 C 
ATOM     16  C   UNL     1       4.511   2.063  -1.943  0.00  0.00    +0.023 C 
ATOM     17  C   UNL     1       5.820   2.815  -1.698  0.00  0.00    +0.002 C 
ATOM     18  C   UNL     1       5.538   4.079  -0.883  0.00  0.00    +0.001 C 
ATOM     19  C   UNL     1       4.913   3.692   0.459  0.00  0.00    +0.014 C 
ATOM     20  C   UNL     1       3.604   2.940   0.214  0.00  0.00    +0.113 C 
BRANCH  20  21
ATOM     21  C   UNL     1       2.979   2.553   1.556  0.00  0.00    +0.395 C 
ATOM     22  F   UNL     1       3.804   1.627   2.204  0.00  0.00    -0.170 F 
ATOM     23  F   UNL     1       2.842   3.694   2.353  0.00  0.00    -0.170 F 
ATOM     24  F   UNL     1       1.721   1.983   1.337  0.00  0.00    -0.170 F 
ENDBRANCH  20  21
ENDBRANCH   3  15
TORSDOF 4
