REMARK  Name = ZINC38659914
REMARK  15 active torsions:
REMARK  status: ('A' for Active; 'I' for Inactive)
REMARK    1  A    between atoms: C_1  and  C_2
REMARK    2  A    between atoms: C_2  and  C_3
REMARK    3  A    between atoms: C_3  and  C_4
REMARK    4  A    between atoms: C_4  and  O_5
REMARK    5  A    between atoms: O_5  and  C_6
REMARK    6  A    between atoms: C_10  and  C_12
REMARK    7  A    between atoms: C_12  and  O_14
REMARK    8  A    between atoms: O_14  and  C_15
REMARK    9  A    between atoms: C_22  and  N_38
REMARK   10  A    between atoms: C_23  and  C_36
REMARK   11  A    between atoms: C_24  and  C_26
REMARK   12  A    between atoms: C_28  and  O_34
REMARK   13  A    between atoms: C_31  and  O_32
REMARK   14  A    between atoms: O_32  and  C_33
REMARK   15  A    between atoms: O_34  and  C_35
REMARK                            x       y       z     vdW  Elec       q    Type
REMARK                         _______ _______ _______ _____ _____    ______ ____
ROOT
ATOM      1  C   UNL     1       3.781  -8.247   6.139  0.00  0.00    +0.135 A 
ATOM      2  C   UNL     1       4.307  -7.451   7.148  0.00  0.00    +0.047 A 
ATOM      3  C   UNL     1       4.975  -8.032   8.207  0.00  0.00    +0.012 A 
ATOM      4  C   UNL     1       5.124  -9.406   8.268  0.00  0.00    +0.008 A 
ATOM      5  C   UNL     1       4.601 -10.206   7.264  0.00  0.00    +0.138 A 
ATOM      6  C   UNL     1       3.923  -9.623   6.201  0.00  0.00    +0.093 A 
ATOM      7  O   UNL     1       4.737 -11.554   7.306  0.00  0.00    -0.441 OA
ATOM      8  C   UNL     1       5.682 -12.109   8.083  0.00  0.00    +0.199 C 
ATOM      9  C   UNL     1       6.254 -11.434   9.109  0.00  0.00    +0.098 C 
ATOM     10  C   UNL     1       5.856 -10.021   9.432  0.00  0.00    +0.102 C 
ENDROOT
BRANCH  10  11
ATOM     11  C   UNL     1       4.960 -10.019  10.643  0.00  0.00    +0.010 A 
ATOM     12  C   UNL     1       3.757 -10.699  10.613  0.00  0.00    +0.053 A 
ATOM     13  C   UNL     1       2.932 -10.698  11.727  0.00  0.00    +0.121 A 
ATOM     14  C   UNL     1       3.314 -10.014  12.873  0.00  0.00    +0.049 A 
ATOM     15  C   UNL     1       4.516  -9.335  12.903  0.00  0.00    +0.049 A 
ATOM     16  C   UNL     1       5.344  -9.341  11.790  0.00  0.00    +0.124 A 
BRANCH  16  17
ATOM     17  O   UNL     1       6.530  -8.677  11.821  0.00  0.00    -0.495 OA
ATOM     18  C   UNL     1       6.862  -7.999  13.035  0.00  0.00    +0.277 C 
ENDBRANCH  16  17
BRANCH  13  19
ATOM     19  O   UNL     1       1.748 -11.366  11.698  0.00  0.00    -0.495 OA
ATOM     20  C   UNL     1       0.948 -11.323  12.881  0.00  0.00    +0.277 C 
ENDBRANCH  13  19
ENDBRANCH  10  11
BRANCH   8  21
ATOM     21  N   UNL     1       6.080 -13.398   7.831  0.00  0.00    -0.328 N 
ATOM     22  H   UNL     1       5.679 -13.895   7.100  0.00  0.00    +0.145 HD
ATOM     23  H   UNL     1       6.761 -13.812   8.383  0.00  0.00    +0.145 HD
ENDBRANCH   8  21
BRANCH   9  24
ATOM     24  C   UNL     1       7.257 -12.079   9.901  0.00  0.00    +0.101 C 
ATOM     25  N   UNL     1       8.053 -12.591  10.529  0.00  0.00    -0.191 NA
ENDBRANCH   9  24
BRANCH   1  26
ATOM     26  O   UNL     1       3.123  -7.676   5.096  0.00  0.00    -0.422 OA
BRANCH  26  27
ATOM     27  C   UNL     1       3.856  -7.090   4.130  0.00  0.00    +0.345 C 
ATOM     28  O   UNL     1       5.062  -7.003   4.251  0.00  0.00    -0.245 OA
BRANCH  27  33
ATOM     29  C   UNL     1       3.325  -5.444   0.793  0.00  0.00    +0.121 A 
ATOM     30  C   UNL     1       1.946  -5.547   0.661  0.00  0.00    +0.046 A 
ATOM     31  C   UNL     1       1.194  -6.149   1.653  0.00  0.00    +0.004 A 
ATOM     32  C   UNL     1       1.809  -6.652   2.781  0.00  0.00    +0.015 A 
ATOM     33  C   UNL     1       3.195  -6.553   2.923  0.00  0.00    +0.063 A 
ATOM     34  C   UNL     1       3.953  -5.950   1.918  0.00  0.00    +0.060 A 
BRANCH  29  35
ATOM     35  O   UNL     1       4.058  -4.851  -0.185  0.00  0.00    -0.492 OA
BRANCH  35  36
ATOM     36  C   UNL     1       3.345  -4.351  -1.318  0.00  0.00    +0.229 C 
BRANCH  36  37
ATOM     37  C   UNL     1       4.331  -3.723  -2.305  0.00  0.00    +0.041 C 
BRANCH  37  39
ATOM     38  C   UNL     1       4.554  -2.560  -4.506  0.00  0.00    +0.004 C 
ATOM     39  C   UNL     1       3.568  -3.188  -3.518  0.00  0.00    -0.000 C 
ENDBRANCH  37  39
ENDBRANCH  36  37
ENDBRANCH  35  36
ENDBRANCH  29  35
ENDBRANCH  27  33
ENDBRANCH  26  27
ENDBRANCH   1  26
TORSDOF 12
