REMARK  Name = ZINC10129679
REMARK  9 active torsions:
REMARK  status: ('A' for Active; 'I' for Inactive)
REMARK    1  A    between atoms: C_1  and  N_2
REMARK    2  A    between atoms: N_2  and  C_3
REMARK    3  A    between atoms: N_2  and  C_4
REMARK    4  A    between atoms: C_7  and  C_10
REMARK    5  A    between atoms: C_10  and  C_12
REMARK    6  A    between atoms: C_10  and  N_63
REMARK    7  A    between atoms: C_12  and  N_13
REMARK    8  A    between atoms: C_14  and  C_16
REMARK    9  A    between atoms: N_18  and  C_19
REMARK                            x       y       z     vdW  Elec       q    Type
REMARK                         _______ _______ _______ _____ _____    ______ ____
ROOT
ATOM      1  C   UNL     1       2.894   0.430   0.138  0.00  0.00    -0.020 C 
ENDROOT
BRANCH   1  11
ATOM      2  C   UNL     1       2.840  -0.541   2.358  0.00  0.00    -0.073 C 
ATOM      3  C   UNL     1       2.821  -1.895   3.068  0.00  0.00    +0.017 C 
ATOM      4  C   UNL     1       4.097  -2.645   2.781  0.00  0.00    -0.048 A 
ATOM      5  C   UNL     1       4.433  -3.715   3.597  0.00  0.00    +0.004 A 
ATOM      6  C   UNL     1       5.590  -4.431   3.366  0.00  0.00    +0.000 A 
ATOM      7  C   UNL     1       6.419  -4.080   2.316  0.00  0.00    +0.000 A 
ATOM      8  C   UNL     1       6.085  -3.015   1.504  0.00  0.00    +0.002 A 
ATOM      9  C   UNL     1       4.923  -2.293   1.736  0.00  0.00    -0.061 A 
ATOM     10  C   UNL     1       4.607  -1.133   0.828  0.00  0.00    -0.042 C 
ATOM     11  N   UNL     1       3.182  -0.780   0.941  0.00  0.00    +0.388 N 
ATOM     12  H   UNL     1       2.614  -1.559   0.586  0.00  0.00    -0.080 HD
ENDBRANCH   1  11
BRANCH   1  16
ATOM     13  C   UNL     1       6.149   3.188   0.404  0.00  0.00    +0.029 A 
ATOM     14  C   UNL     1       5.780   2.662  -0.828  0.00  0.00    +0.023 A 
ATOM     15  C   UNL     1       4.729   1.771  -0.910  0.00  0.00    +0.004 A 
ATOM     16  C   UNL     1       4.042   1.402   0.232  0.00  0.00    -0.059 A 
ATOM     17  C   UNL     1       4.402   1.928   1.459  0.00  0.00    +0.004 A 
ATOM     18  C   UNL     1       5.457   2.815   1.549  0.00  0.00    +0.023 A 
BRANCH  13  20
ATOM     19  C   UNL     1       7.940   4.482  -0.718  0.00  0.00    +0.129 C 
ATOM     20  N   UNL     1       7.212   4.090   0.491  0.00  0.00    -0.336 N 
ATOM     21  C   UNL     1       7.598   4.643   1.791  0.00  0.00    +0.129 C 
ENDBRANCH  13  20
ENDBRANCH   1  16
BRANCH   1  22
ATOM     22  C   UNL     1       1.619   1.094   0.661  0.00  0.00    +0.094 C 
BRANCH  22  23
ATOM     23  N   UNL     1       0.476   0.208   0.426  0.00  0.00    -0.309 N 
ATOM     24  C   UNL     1      -0.744   0.545   0.890  0.00  0.00    +0.299 C 
ATOM     25  O   UNL     1      -0.894   1.579   1.507  0.00  0.00    -0.265 OA
ATOM     26  H   UNL     1       0.596  -0.618  -0.068  0.00  0.00    +0.149 HD
BRANCH  24  27
ATOM     27  C   UNL     1      -1.911  -0.354   0.644  0.00  0.00    +0.303 C 
ATOM     28  O   UNL     1      -1.760  -1.389   0.027  0.00  0.00    -0.265 OA
ATOM     29  N   UNL     1      -3.131  -0.018   1.108  0.00  0.00    -0.278 N 
ATOM     30  H   UNL     1      -3.268   0.845   1.531  0.00  0.00    +0.155 HD
BRANCH  29  31
ATOM     31  C   UNL     1      -4.197  -0.911   0.981  0.00  0.00    +0.037 A 
ATOM     32  C   UNL     1      -5.488  -0.431   0.794  0.00  0.00    +0.023 A 
ATOM     33  C   UNL     1      -6.541  -1.315   0.663  0.00  0.00    +0.005 A 
ATOM     34  C   UNL     1      -6.314  -2.678   0.728  0.00  0.00    +0.038 A 
ATOM     35  C   UNL     1      -5.030  -3.160   0.919  0.00  0.00    +0.125 A 
ATOM     36  C   UNL     1      -3.971  -2.279   1.046  0.00  0.00    +0.061 A 
ATOM     37  F   UNL     1      -4.811  -4.492   0.982  0.00  0.00    -0.205 F 
ENDBRANCH  29  31
ENDBRANCH  24  27
ENDBRANCH  22  23
ENDBRANCH   1  22
TORSDOF 7
