REMARK  Name = ZINC35496616
REMARK  8 active torsions:
REMARK  status: ('A' for Active; 'I' for Inactive)
REMARK    1  A    between atoms: C_1  and  C_2
REMARK    2  A    between atoms: C_2  and  C_3
REMARK    3  A    between atoms: C_2  and  C_4
REMARK    4  A    between atoms: C_2  and  C_5
REMARK    5  A    between atoms: C_8  and  C_11
REMARK    6  A    between atoms: N_12  and  N_13
REMARK    7  A    between atoms: C_14  and  C_16
REMARK    8  A    between atoms: C_16  and  C_17
REMARK                            x       y       z     vdW  Elec       q    Type
REMARK                         _______ _______ _______ _____ _____    ______ ____
ROOT
ATOM      1  N   UNL     1       4.588  -1.986  -6.094  0.00  0.00    -0.207 N 
ATOM      2  C   UNL     1       5.873  -1.646  -6.315  0.00  0.00    +0.234 C 
ATOM      3  O   UNL     1       6.462  -0.948  -5.516  0.00  0.00    -0.274 OA
ATOM      4  H   UNL     1       4.117  -2.543  -6.733  0.00  0.00    +0.177 HD
ENDROOT
BRANCH   1   6
ATOM      5  C   UNL     1       2.695  -1.860  -4.729  0.00  0.00    +0.138 C 
ATOM      6  N   UNL     1       3.932  -1.533  -4.942  0.00  0.00    -0.188 NA
BRANCH   5  10
ATOM      7  C   UNL     1       0.707  -0.490  -1.238  0.00  0.00    -0.042 A 
ATOM      8  C   UNL     1       0.032  -1.285  -2.147  0.00  0.00    +0.005 A 
ATOM      9  C   UNL     1       0.672  -1.734  -3.284  0.00  0.00    +0.010 A 
ATOM     10  C   UNL     1       2.004  -1.384  -3.516  0.00  0.00    -0.005 A 
ATOM     11  C   UNL     1       2.679  -0.581  -2.594  0.00  0.00    +0.010 A 
ATOM     12  C   UNL     1       2.025  -0.135  -1.464  0.00  0.00    +0.005 A 
BRANCH   7  14
ATOM     13  C   UNL     1      -0.019   1.526   0.010  0.00  0.00    +0.015 C 
ATOM     14  C   UNL     1       0.002  -0.004   0.002  0.00  0.00    -0.013 C 
ATOM     15  C   UNL     1       0.742  -0.511   1.242  0.00  0.00    +0.015 C 
ATOM     16  C   UNL     1      -1.433  -0.534   0.013  0.00  0.00    +0.015 C 
ENDBRANCH   7  14
ENDBRANCH   5  10
ENDBRANCH   1   6
BRANCH   2  17
ATOM     17  C   UNL     1       6.579  -2.133  -7.555  0.00  0.00    +0.121 C 
BRANCH  17  18
ATOM     18  C   UNL     1       8.017  -1.609  -7.562  0.00  0.00    +0.146 C 
ATOM     19  C   UNL     1       8.759  -2.184  -8.740  0.00  0.00    +0.231 C 
ATOM     20  O   UNL     1       9.473  -3.147  -8.558  0.00  0.00    -0.274 OA
ATOM     21  N   UNL     1       8.669  -1.688  -9.970  0.00  0.00    -0.284 N 
ATOM     22  C   UNL     1       7.999  -0.529 -10.351  0.00  0.00    +0.047 A 
ATOM     23  C   UNL     1       7.704  -0.327 -11.696  0.00  0.00    +0.024 A 
ATOM     24  C   UNL     1       7.031   0.810 -12.098  0.00  0.00    +0.002 A 
ATOM     25  C   UNL     1       6.644   1.760 -11.170  0.00  0.00    +0.001 A 
ATOM     26  C   UNL     1       6.934   1.575  -9.831  0.00  0.00    +0.016 A 
ATOM     27  C   UNL     1       7.612   0.438  -9.423  0.00  0.00    +0.030 A 
ATOM     28  S   UNL     1       8.005   0.204  -7.711  0.00  0.00    -0.110 S 
ATOM     29  H   UNL     1       9.116  -2.184 -10.674  0.00  0.00    +0.155 HD
ENDBRANCH  17  18
ENDBRANCH   2  17
TORSDOF 5
