REMARK  Name = ZINC36300284
REMARK  5 active torsions:
REMARK  status: ('A' for Active; 'I' for Inactive)
REMARK    1  A    between atoms: C_1  and  C_2
REMARK    2  A    between atoms: C_11  and  C_24
REMARK    3  A    between atoms: C_12  and  C_14
REMARK    4  A    between atoms: C_24  and  C_25
REMARK    5  A    between atoms: C_25  and  N_26
REMARK                            x       y       z     vdW  Elec       q    Type
REMARK                         _______ _______ _______ _____ _____    ______ ____
ROOT
ATOM      1  C   UNL     1       0.483   1.360  -0.454  0.00  0.00    +0.008 C 
ATOM      2  C   UNL     1       0.458  -0.164  -0.321  0.00  0.00    -0.009 C 
ATOM      3  C   UNL     1      -0.964  -0.678  -0.569  0.00  0.00    +0.010 C 
ATOM      4  C   UNL     1      -0.955  -2.203  -0.672  0.00  0.00    +0.055 C 
ATOM      5  C   UNL     1      -0.257  -2.778   0.559  0.00  0.00    +0.036 A 
ATOM      6  C   UNL     1       0.544  -2.007   1.304  0.00  0.00    +0.013 A 
ATOM      7  S   UNL     1       1.107  -3.094   2.588  0.00  0.00    -0.054 S 
ATOM      8  C   UNL     1       0.230  -4.546   2.053  0.00  0.00    +0.179 A 
ATOM      9  N   UNL     1      -0.428  -4.105   0.939  0.00  0.00    -0.294 N 
ATOM     10  C   UNL     1      -1.136  -5.210   0.476  0.00  0.00    +0.050 A 
ATOM     11  C   UNL     1      -0.877  -6.242   1.315  0.00  0.00    +0.094 A 
ATOM     12  N   UNL     1      -0.034  -5.801   2.272  0.00  0.00    -0.221 NA
ATOM     13  C   UNL     1       0.886  -0.565   1.099  0.00  0.00    +0.047 C 
ENDROOT
BRANCH  11  14
ATOM     14  C   UNL     1      -1.423  -7.616   1.200  0.00  0.00    +0.006 A 
ATOM     15  C   UNL     1      -0.592  -8.717   1.397  0.00  0.00    +0.014 A 
ATOM     16  C   UNL     1      -1.102  -9.995   1.288  0.00  0.00    +0.050 A 
ATOM     17  C   UNL     1      -2.442 -10.189   0.985  0.00  0.00    +0.162 A 
ATOM     18  C   UNL     1      -3.277  -9.094   0.790  0.00  0.00    +0.163 A 
ATOM     19  C   UNL     1      -2.770  -7.809   0.902  0.00  0.00    +0.059 A 
ATOM     20  O   UNL     1      -4.596  -9.266   0.499  0.00  0.00    -0.485 OA
ATOM     21  C   UNL     1      -4.988 -10.562   0.033  0.00  0.00    +0.270 C 
ATOM     22  C   UNL     1      -4.345 -11.615   0.945  0.00  0.00    +0.270 C 
ATOM     23  O   UNL     1      -2.924 -11.458   0.878  0.00  0.00    -0.485 OA
ENDBRANCH  11  14
BRANCH  10  24
ATOM     24  C   UNL     1      -2.029  -5.250  -0.737  0.00  0.00    +0.036 C 
BRANCH  24  25
ATOM     25  C   UNL     1      -1.184  -5.515  -1.984  0.00  0.00    -0.080 C 
BRANCH  25  26
ATOM     26  N   UNL     1      -2.055  -5.555  -3.167  0.00  0.00    +0.378 N 
ATOM     27  H   UNL     1      -1.497  -5.729  -3.989  0.00  0.00    -0.090 HD
ATOM     28  H   UNL     1      -2.735  -6.292  -3.059  0.00  0.00    -0.090 HD
ATOM     29  H   UNL     1      -2.531  -4.670  -3.264  0.00  0.00    -0.090 HD
ENDBRANCH  25  26
ENDBRANCH  24  25
ENDBRANCH  10  24
TORSDOF 4
