REMARK  Name = ZINC58519707
REMARK  3 active torsions:
REMARK  status: ('A' for Active; 'I' for Inactive)
REMARK    1  A    between atoms: C_1  and  O_2
REMARK    2  A    between atoms: O_2  and  C_3
REMARK    3  A    between atoms: C_19  and  C_20
REMARK                            x       y       z     vdW  Elec       q    Type
REMARK                         _______ _______ _______ _____ _____    ______ ____
ROOT
ATOM      1  C   UNL     1      -1.201  -0.638   0.010  0.00  0.00    +0.121 A 
ATOM      2  C   UNL     1      -2.384   0.096   0.019  0.00  0.00    +0.048 A 
ATOM      3  C   UNL     1      -3.607  -0.520   0.028  0.00  0.00    +0.032 A 
ATOM      4  C   UNL     1      -3.708  -1.931   0.027  0.00  0.00    +0.081 A 
ATOM      5  C   UNL     1      -2.488  -2.645   0.017  0.00  0.00    +0.044 A 
ATOM      6  C   UNL     1      -1.264  -2.023   0.003  0.00  0.00    +0.063 A 
ATOM      7  S   UNL     1      -3.039  -4.334   0.018  0.00  0.00    -0.052 S 
ATOM      8  C   UNL     1      -4.794  -3.998   0.031  0.00  0.00    +0.167 A 
ATOM      9  N   UNL     1      -4.829  -2.687   0.034  0.00  0.00    -0.225 NA
ATOM     10  N   UNL     1      -5.851  -4.895   0.037  0.00  0.00    -0.248 N 
ATOM     11  C   UNL     1      -7.120  -4.441   0.047  0.00  0.00    +0.308 C 
ATOM     12  O   UNL     1      -7.338  -3.245   0.051  0.00  0.00    -0.252 OA
ATOM     13  N   UNL     1      -8.147  -5.314   0.052  0.00  0.00    -0.278 N 
ATOM     14  C   UNL     1      -8.027  -6.783   0.055  0.00  0.00    +0.110 C 
ATOM     15  C   UNL     1      -9.359  -7.291  -0.550  0.00  0.00    +0.021 C 
ATOM     16  C   UNL     1     -10.375  -6.276   0.037  0.00  0.00    +0.029 C 
ATOM     17  C   UNL     1      -9.574  -4.957   0.064  0.00  0.00    +0.108 C 
ATOM     18  H   UNL     1      -5.677  -5.849   0.034  0.00  0.00    +0.158 HD
ENDROOT
BRANCH  17  19
ATOM     19  C   UNL     1      -9.899  -4.182   1.314  0.00  0.00    -0.020 A 
ATOM     20  C   UNL     1     -10.787  -3.123   1.272  0.00  0.00    +0.013 A 
ATOM     21  C   UNL     1     -11.057  -2.447   2.416  0.00  0.00    +0.045 A 
ATOM     22  S   UNL     1     -10.041  -3.308   3.604  0.00  0.00    -0.105 S 
ATOM     23  C   UNL     1      -9.329  -4.516   2.498  0.00  0.00    +0.050 A 
ENDBRANCH  17  19
BRANCH   1  25
ATOM     24  C   UNL     1      -0.017   1.425   0.010  0.00  0.00    +0.277 C 
ATOM     25  O   UNL     1       0.002  -0.004   0.002  0.00  0.00    -0.495 OA
ENDBRANCH   1  25
TORSDOF 2
