REMARK  Name = ZINC29205180
REMARK  6 active torsions:
REMARK  status: ('A' for Active; 'I' for Inactive)
REMARK    1  A    between atoms: C_2  and  C_3
REMARK    2  A    between atoms: C_3  and  N_4
REMARK    3  A    between atoms: N_7  and  C_8
REMARK    4  A    between atoms: C_11  and  N_14
REMARK    5  A    between atoms: C_15  and  C_17
REMARK    6  A    between atoms: C_17  and  N_18
REMARK                            x       y       z     vdW  Elec       q    Type
REMARK                         _______ _______ _______ _____ _____    ______ ____
ROOT
ATOM      1  N   UNL     1       1.190   3.504  -0.001  0.00  0.00    -0.284 N 
ATOM      2  C   UNL     1       2.272   4.234  -0.339  0.00  0.00    +0.237 C 
ATOM      3  O   UNL     1       3.273   3.681  -0.744  0.00  0.00    -0.274 OA
ATOM      4  H   UNL     1       0.255   4.008   0.284  0.00  0.00    +0.155 HD
ENDROOT
BRANCH   1   8
ATOM      5  C   UNL     1       1.388  -0.661  -0.036  0.00  0.00    +0.035 A 
ATOM      6  C   UNL     1       2.510   0.085   0.300  0.00  0.00    +0.025 A 
ATOM      7  C   UNL     1       2.445   1.464   0.312  0.00  0.00    +0.025 A 
ATOM      8  C   UNL     1       1.257   2.105  -0.013  0.00  0.00    +0.034 A 
ATOM      9  C   UNL     1       0.135   1.359  -0.351  0.00  0.00    +0.025 A 
ATOM     10  C   UNL     1       0.200  -0.019  -0.362  0.00  0.00    +0.025 A 
BRANCH   5  14
ATOM     11  N   UNL     1       2.195  -4.054   0.915  0.00  0.00    -0.296 N 
ATOM     12  C   UNL     1       2.204  -2.707   0.867  0.00  0.00    +0.304 C 
ATOM     13  O   UNL     1       2.888  -2.075   1.649  0.00  0.00    -0.253 OA
ATOM     14  N   UNL     1       1.455  -2.060  -0.048  0.00  0.00    -0.269 N 
ATOM     15  H   UNL     1       1.576  -4.625   0.207  0.00  0.00    +0.151 HD
ATOM     16  H   UNL     1       0.896  -2.631  -0.804  0.00  0.00    +0.156 HD
BRANCH  11  17
ATOM     17  C   UNL     1       3.009  -4.757   1.909  0.00  0.00    +0.132 C 
BRANCH  17  19
ATOM     18  C   UNL     1       3.861  -7.021   1.577  0.00  0.00    +0.005 C 
ATOM     19  C   UNL     1       2.821  -6.244   1.752  0.00  0.00    -0.016 C 
ENDBRANCH  17  19
ENDBRANCH  11  17
ENDBRANCH   5  14
ENDBRANCH   1   8
BRANCH   2  20
ATOM     20  C   UNL     1       2.238   5.735  -0.214  0.00  0.00    +0.218 C 
BRANCH  20  21
ATOM     21  N   UNL     1       3.525   6.290  -0.639  0.00  0.00    -0.331 N 
ATOM     22  C   UNL     1       4.517   6.461   0.303  0.00  0.00    +0.054 A 
ATOM     23  C   UNL     1       4.286   6.108   1.631  0.00  0.00    +0.026 A 
ATOM     24  C   UNL     1       5.278   6.280   2.571  0.00  0.00    +0.002 A 
ATOM     25  C   UNL     1       6.512   6.803   2.211  0.00  0.00    +0.001 A 
ATOM     26  C   UNL     1       6.766   7.147   0.908  0.00  0.00    +0.014 A 
ATOM     27  C   UNL     1       5.770   6.985  -0.058  0.00  0.00    +0.046 A 
ATOM     28  C   UNL     1       6.013   7.364  -1.461  0.00  0.00    +0.197 A 
ATOM     29  O   UNL     1       7.082   7.826  -1.815  0.00  0.00    -0.287 OA
ATOM     30  C   UNL     1       4.912   7.162  -2.421  0.00  0.00    +0.046 A 
ATOM     31  C   UNL     1       3.696   6.626  -1.965  0.00  0.00    +0.054 A 
ATOM     32  C   UNL     1       2.656   6.436  -2.873  0.00  0.00    +0.026 A 
ATOM     33  C   UNL     1       2.828   6.774  -4.197  0.00  0.00    +0.002 A 
ATOM     34  C   UNL     1       4.031   7.303  -4.643  0.00  0.00    +0.001 A 
ATOM     35  C   UNL     1       5.069   7.499  -3.767  0.00  0.00    +0.014 A 
ENDBRANCH  20  21
ENDBRANCH   2  20
TORSDOF 6
