REMARK  Name = ZINC14188801
REMARK  9 active torsions:
REMARK  status: ('A' for Active; 'I' for Inactive)
REMARK    1  A    between atoms: C_1  and  C_2
REMARK    2  A    between atoms: C_2  and  C_3
REMARK    3  A    between atoms: C_2  and  C_4
REMARK    4  A    between atoms: C_7  and  C_10
REMARK    5  A    between atoms: C_10  and  N_11
REMARK    6  A    between atoms: N_11  and  C_12
REMARK    7  A    between atoms: N_11  and  S_15
REMARK    8  A    between atoms: S_15  and  C_18
REMARK    9  A    between atoms: C_21  and  C_24
REMARK                            x       y       z     vdW  Elec       q    Type
REMARK                         _______ _______ _______ _____ _____    ______ ____
ROOT
ATOM      1  N   UNL     1       0.932  -2.946  -1.369  0.00  0.00    -0.169 NA
ENDROOT
BRANCH   1   2
ATOM      2  C   UNL     1       2.188  -3.263  -2.054  0.00  0.00    +0.080 C 
ATOM      3  C   UNL     1       2.157  -3.344  -3.582  0.00  0.00    +0.022 C 
ATOM      4  C   UNL     1       2.290  -4.622  -2.750  0.00  0.00    +0.022 C 
ENDBRANCH   1   2
BRANCH   1   5
ATOM      5  S   UNL     1       0.911  -2.763   0.277  0.00  0.00    +0.061 S 
ATOM      6  O   UNL     1       2.086  -3.391   0.771  0.00  0.00    -0.153 OA
ATOM      7  O   UNL     1      -0.390  -3.134   0.710  0.00  0.00    -0.153 OA
BRANCH   5   8
ATOM      8  C   UNL     1       1.081  -1.041   0.611  0.00  0.00    +0.106 A 
ATOM      9  C   UNL     1      -0.037  -0.226   0.611  0.00  0.00    +0.030 A 
ATOM     10  C   UNL     1       0.089   1.123   0.873  0.00  0.00    +0.021 A 
ATOM     11  C   UNL     1       1.348   1.664   1.139  0.00  0.00    +0.052 A 
ATOM     12  C   UNL     1       2.472   0.836   1.137  0.00  0.00    +0.021 A 
ATOM     13  C   UNL     1       2.332  -0.511   0.874  0.00  0.00    +0.030 A 
BRANCH  11  14
ATOM     14  C   UNL     1       1.486   3.063   1.411  0.00  0.00    +0.099 C 
ATOM     15  N   UNL     1       1.596   4.173   1.627  0.00  0.00    -0.191 NA
ENDBRANCH  11  14
ENDBRANCH   5   8
ENDBRANCH   1   5
BRANCH   1  16
ATOM     16  C   UNL     1      -0.304  -2.792  -2.139  0.00  0.00    +0.144 C 
BRANCH  16  20
ATOM     17  C   UNL     1      -2.105  -6.622  -2.723  0.00  0.00    -0.045 A 
ATOM     18  C   UNL     1      -2.332  -5.923  -1.552  0.00  0.00    +0.004 A 
ATOM     19  C   UNL     1      -1.749  -4.683  -1.363  0.00  0.00    +0.005 A 
ATOM     20  C   UNL     1      -0.940  -4.143  -2.345  0.00  0.00    -0.032 A 
ATOM     21  C   UNL     1      -0.717  -4.840  -3.518  0.00  0.00    +0.005 A 
ATOM     22  C   UNL     1      -1.296  -6.082  -3.705  0.00  0.00    +0.004 A 
BRANCH  17  24
ATOM     23  C   UNL     1      -3.638  -7.932  -4.166  0.00  0.00    +0.012 C 
ATOM     24  C   UNL     1      -2.740  -7.973  -2.928  0.00  0.00    +0.013 C 
ATOM     25  C   UNL     1      -1.646  -9.025  -3.127  0.00  0.00    +0.012 C 
ENDBRANCH  17  24
ENDBRANCH  16  20
ENDBRANCH   1  16
TORSDOF 7
