REMARK  Name = ZINC27469071
REMARK  4 active torsions:
REMARK  status: ('A' for Active; 'I' for Inactive)
REMARK    1  A    between atoms: C_4  and  C_7
REMARK    2  A    between atoms: C_8  and  C_9
REMARK    3  A    between atoms: C_12  and  C_15
REMARK    4  A    between atoms: C_16  and  C_28
REMARK                            x       y       z     vdW  Elec       q    Type
REMARK                         _______ _______ _______ _____ _____    ______ ____
ROOT
ATOM      1  C   UNL     1       6.934  -3.865   3.086  0.00  0.00    +0.070 A 
ATOM      2  C   UNL     1       6.183  -4.812   3.784  0.00  0.00    +0.005 A 
ATOM      3  C   UNL     1       6.661  -5.242   5.107  0.00  0.00    +0.008 A 
ATOM      4  C   UNL     1       5.946  -6.189   5.847  0.00  0.00    +0.030 A 
ATOM      5  C   UNL     1       6.408  -6.580   7.083  0.00  0.00    +0.042 A 
ATOM      6  C   UNL     1       7.579  -6.038   7.597  0.00  0.00    +0.022 A 
ATOM      7  C   UNL     1       8.294  -5.104   6.880  0.00  0.00    +0.028 A 
ATOM      8  C   UNL     1       7.846  -4.694   5.627  0.00  0.00    +0.050 A 
ATOM      9  N   UNL     1       8.562  -3.759   4.906  0.00  0.00    -0.322 N 
ATOM     10  H   UNL     1       9.377  -3.394   5.285  0.00  0.00    +0.169 HD
ATOM     11  C   UNL     1       8.162  -3.344   3.692  0.00  0.00    +0.259 A 
ATOM     12  O   UNL     1       8.828  -2.521   3.090  0.00  0.00    -0.267 OA
ATOM     13 CL   UNL     1       5.524  -7.756   8.005  0.00  0.00    -0.084 Cl
ENDROOT
BRANCH   1  16
ATOM     14  C   UNL     1       5.618  -2.088  -0.051  0.00  0.00    +0.118 C 
ATOM     15  C   UNL     1       5.871  -2.058   1.470  0.00  0.00    +0.085 C 
ATOM     16  C   UNL     1       6.502  -3.401   1.761  0.00  0.00    +0.074 C 
ATOM     17  N   UNL     1       6.602  -4.076   0.666  0.00  0.00    -0.190 NA
ATOM     18  N   UNL     1       6.116  -3.411  -0.462  0.00  0.00    -0.262 N 
ATOM     19  H   UNL     1       6.107  -3.761  -1.366  0.00  0.00    +0.169 HD
BRANCH  14  21
ATOM     20  C   UNL     1       7.251  -1.294  -1.703  0.00  0.00    +0.005 C 
ATOM     21  C   UNL     1       6.392  -0.993  -0.739  0.00  0.00    -0.003 C 
BRANCH  20  25
ATOM     22  C   UNL     1       9.431   1.792  -3.643  0.00  0.00    +0.000 A 
ATOM     23  C   UNL     1       9.619   0.474  -4.019  0.00  0.00    +0.001 A 
ATOM     24  C   UNL     1       8.914  -0.533  -3.393  0.00  0.00    +0.008 A 
ATOM     25  C   UNL     1       8.010  -0.220  -2.378  0.00  0.00    -0.025 A 
ATOM     26  C   UNL     1       7.825   1.111  -2.002  0.00  0.00    +0.008 A 
ATOM     27  C   UNL     1       8.536   2.109  -2.636  0.00  0.00    +0.001 A 
ENDBRANCH  20  25
ENDBRANCH  14  21
ENDBRANCH   1  16
BRANCH   2  28
ATOM     28  C   UNL     1       4.941  -5.369   3.209  0.00  0.00    -0.016 A 
ATOM     29  C   UNL     1       3.824  -4.550   3.029  0.00  0.00    +0.008 A 
ATOM     30  C   UNL     1       2.668  -5.076   2.491  0.00  0.00    +0.001 A 
ATOM     31  C   UNL     1       2.613  -6.412   2.132  0.00  0.00    +0.000 A 
ATOM     32  C   UNL     1       3.716  -7.228   2.309  0.00  0.00    +0.001 A 
ATOM     33  C   UNL     1       4.881  -6.714   2.839  0.00  0.00    +0.008 A 
ENDBRANCH   2  28
TORSDOF 4
