REMARK  Name = ZINC18359093
REMARK  7 active torsions:
REMARK  status: ('A' for Active; 'I' for Inactive)
REMARK    1  A    between atoms: C_1  and  O_2
REMARK    2  A    between atoms: O_2  and  C_3
REMARK    3  A    between atoms: C_6  and  C_9
REMARK    4  A    between atoms: C_9  and  C_10
REMARK    5  A    between atoms: C_13  and  S_15
REMARK    6  A    between atoms: S_15  and  C_16
REMARK    7  A    between atoms: C_16  and  C_17
REMARK                            x       y       z     vdW  Elec       q    Type
REMARK                         _______ _______ _______ _____ _____    ______ ____
ROOT
ATOM      1  C   UNL     1       3.963  -2.719  -4.071  0.00  0.00    +0.222 A 
ATOM      2  N   UNL     1       4.482  -3.772  -3.511  0.00  0.00    -0.111 NA
ATOM      3  N   UNL     1       5.754  -3.618  -3.398  0.00  0.00    -0.101 NA
ATOM      4  C   UNL     1       6.094  -2.450  -3.887  0.00  0.00    +0.278 A 
ATOM      5  O   UNL     1       4.968  -1.859  -4.329  0.00  0.00    -0.415 OA
ENDROOT
BRANCH   1   6
ATOM      6  C   UNL     1       2.505  -2.503  -4.381  0.00  0.00    +0.132 C 
BRANCH   6  10
ATOM      7  C   UNL     1       0.606  -0.607  -1.056  0.00  0.00    +0.120 A 
ATOM      8  C   UNL     1       1.173   0.161  -2.062  0.00  0.00    +0.046 A 
ATOM      9  C   UNL     1       1.786  -0.455  -3.136  0.00  0.00    +0.007 A 
ATOM     10  C   UNL     1       1.835  -1.835  -3.209  0.00  0.00    -0.038 A 
ATOM     11  C   UNL     1       1.270  -2.602  -2.207  0.00  0.00    +0.007 A 
ATOM     12  C   UNL     1       0.661  -1.992  -1.128  0.00  0.00    +0.046 A 
BRANCH   7  14
ATOM     13  C   UNL     1      -0.017   1.425   0.010  0.00  0.00    +0.277 C 
ATOM     14  O   UNL     1       0.002  -0.004   0.002  0.00  0.00    -0.495 OA
ENDBRANCH   7  14
ENDBRANCH   6  10
ENDBRANCH   1   6
BRANCH   4  15
ATOM     15  S   UNL     1       7.723  -1.782  -3.960  0.00  0.00    -0.059 S 
BRANCH  15  16
ATOM     16  C   UNL     1       8.760  -3.071  -3.217  0.00  0.00    +0.134 C 
BRANCH  16  17
ATOM     17  C   UNL     1      10.198  -2.620  -3.217  0.00  0.00    +0.059 A 
ATOM     18  C   UNL     1      10.792  -2.207  -2.040  0.00  0.00    +0.094 A 
ATOM     19  C   UNL     1      12.129  -1.793  -2.065  0.00  0.00    +0.259 A 
ATOM     20  O   UNL     1      12.682  -1.422  -1.042  0.00  0.00    -0.267 OA
ATOM     21  N   UNL     1      12.797  -1.811  -3.238  0.00  0.00    -0.268 N 
ATOM     22  C   UNL     1      14.098  -1.412  -3.279  0.00  0.00    +0.096 A 
ATOM     23  C   UNL     1      14.788  -1.422  -4.441  0.00  0.00    +0.018 A 
ATOM     24  C   UNL     1      14.167  -1.845  -5.625  0.00  0.00    +0.005 A 
ATOM     25  C   UNL     1      12.865  -2.247  -5.595  0.00  0.00    +0.047 A 
ATOM     26  C   UNL     1      12.165  -2.230  -4.375  0.00  0.00    +0.140 A 
ATOM     27  N   UNL     1      10.894  -2.627  -4.343  0.00  0.00    -0.233 NA
ENDBRANCH  16  17
ENDBRANCH  15  16
ENDBRANCH   4  15
TORSDOF 6
