REMARK  Name = ZINC44195924
REMARK  5 active torsions:
REMARK  status: ('A' for Active; 'I' for Inactive)
REMARK    1  A    between atoms: C_1  and  C_2
REMARK    2  A    between atoms: C_2  and  C_22
REMARK    3  A    between atoms: C_8  and  O_11
REMARK    4  A    between atoms: O_11  and  C_12
REMARK    5  A    between atoms: C_19  and  O_21
REMARK                            x       y       z     vdW  Elec       q    Type
REMARK                         _______ _______ _______ _____ _____    ______ ____
ROOT
ATOM      1  C   UNL     1       0.306   1.110  -0.653  0.00  0.00    +0.056 C 
ATOM      2  C   UNL     1       0.204  -0.396  -0.406  0.00  0.00    +0.109 C 
ATOM      3  C   UNL     1      -1.268  -0.818  -0.185  0.00  0.00    +0.086 C 
ATOM      4  C   UNL     1      -1.130  -1.901   0.867  0.00  0.00    +0.002 A 
ATOM      5  C   UNL     1      -2.000  -2.875   1.311  0.00  0.00    +0.007 A 
ATOM      6  C   UNL     1      -1.605  -3.758   2.299  0.00  0.00    +0.004 A 
ATOM      7  C   UNL     1      -0.335  -3.663   2.839  0.00  0.00    +0.049 A 
ATOM      8  C   UNL     1       0.539  -2.685   2.399  0.00  0.00    +0.163 A 
ATOM      9  C   UNL     1       0.144  -1.788   1.403  0.00  0.00    +0.166 A 
ATOM     10  O   UNL     1       0.826  -0.752   0.841  0.00  0.00    -0.482 OA
ATOM     11  C   UNL     1       0.827  -1.177  -1.565  0.00  0.00    +0.056 C 
ENDROOT
BRANCH   8  12
ATOM     12  O   UNL     1       1.785  -2.597   2.936  0.00  0.00    -0.483 OA
BRANCH  12  13
ATOM     13  C   UNL     1       2.165  -3.615   3.864  0.00  0.00    +0.202 C 
ATOM     14  C   UNL     1       1.610  -3.253   5.257  0.00  0.00    +0.047 C 
ATOM     15  C   UNL     1       1.552  -4.506   6.088  0.00  0.00    +0.004 C 
ATOM     16  C   UNL     1       2.811  -4.697   6.955  0.00  0.00    +0.000 C 
ATOM     17  C   UNL     1       4.111  -4.354   6.204  0.00  0.00    +0.003 C 
ATOM     18  C   UNL     1       4.111  -4.867   4.789  0.00  0.00    +0.035 C 
ATOM     19  C   UNL     1       3.615  -3.738   3.861  0.00  0.00    +0.155 C 
BRANCH  19  20
ATOM     20  O   UNL     1       4.054  -4.010   2.529  0.00  0.00    -0.388 OA
ATOM     21  H   UNL     1       5.012  -4.106   2.442  0.00  0.00    +0.210 HD
ENDBRANCH  19  20
ENDBRANCH  12  13
ENDBRANCH   8  12
TORSDOF 3
