REMARK  Name = ZINC23968480
REMARK  6 active torsions:
REMARK  status: ('A' for Active; 'I' for Inactive)
REMARK    1  A    between atoms: C_1  and  C_2
REMARK    2  A    between atoms: C_2  and  N_3
REMARK    3  A    between atoms: C_14  and  N_16
REMARK    4  A    between atoms: C_19  and  N_26
REMARK    5  A    between atoms: C_20  and  C_24
REMARK    6  A    between atoms: C_21  and  N_23
REMARK                            x       y       z     vdW  Elec       q    Type
REMARK                         _______ _______ _______ _____ _____    ______ ____
ROOT
ATOM      1  N   UNL     1      -0.709   8.842   0.054  0.00  0.00    -0.224 N 
ATOM      2  C   UNL     1      -0.183  10.129   0.061  0.00  0.00    +0.140 A 
ATOM      3  C   UNL     1      -1.210  11.064   0.070  0.00  0.00    +0.024 A 
ATOM      4  C   UNL     1      -0.928  12.419   0.074  0.00  0.00    +0.052 A 
ATOM      5  C   UNL     1       0.427  12.817   0.063  0.00  0.00    +0.112 A 
ATOM      6  C   UNL     1       1.415  11.819   0.048  0.00  0.00    +0.138 A 
ATOM      7  N   UNL     1       1.086  10.539   0.045  0.00  0.00    -0.215 NA
ATOM      8  C   UNL     1      -2.502  10.282   0.079  0.00  0.00    +0.137 C 
ATOM      9  C   UNL     1      -2.052   8.836   0.068  0.00  0.00    +0.230 C 
ATOM     10  O   UNL     1      -2.769   7.858   0.070  0.00  0.00    -0.275 OA
ENDROOT
BRANCH   1  22
ATOM     11  N   UNL     1       2.180   4.106   0.002  0.00  0.00    -0.340 N 
ATOM     12  C   UNL     1       1.164   3.167   0.007  0.00  0.00    +0.050 A 
ATOM     13  C   UNL     1       1.175   1.775   0.000  0.00  0.00    +0.026 A 
ATOM     14  C   UNL     1      -0.013   1.076   0.008  0.00  0.00    +0.002 A 
ATOM     15  C   UNL     1      -1.226   1.747   0.017  0.00  0.00    +0.001 A 
ATOM     16  C   UNL     1      -1.257   3.124   0.031  0.00  0.00    +0.010 A 
ATOM     17  C   UNL     1      -0.065   3.844   0.023  0.00  0.00    +0.008 A 
ATOM     18  C   UNL     1       0.251   5.285   0.027  0.00  0.00    +0.009 A 
ATOM     19  C   UNL     1       1.650   5.386   0.014  0.00  0.00    +0.050 A 
ATOM     20  C   UNL     1       2.245   6.643   0.014  0.00  0.00    +0.028 A 
ATOM     21  C   UNL     1       1.464   7.778   0.028  0.00  0.00    +0.026 A 
ATOM     22  C   UNL     1       0.076   7.679   0.041  0.00  0.00    +0.043 A 
ATOM     23  C   UNL     1      -0.532   6.436   0.041  0.00  0.00    +0.034 A 
BRANCH  11  25
ATOM     24  C   UNL     1       4.095   3.689  -1.460  0.00  0.00    +0.027 C 
ATOM     25  C   UNL     1       3.611   3.791  -0.012  0.00  0.00    +0.119 C 
ENDBRANCH  11  25
ENDBRANCH   1  22
BRANCH   6  26
ATOM     26  N   UNL     1       2.751  12.180   0.036  0.00  0.00    -0.342 N 
ATOM     27  H   UNL     1       3.530  11.404   0.025  0.00  0.00    +0.144 HD
ATOM     28  H   UNL     1       3.033  13.243   0.038  0.00  0.00    +0.144 HD
ENDBRANCH   6  26
BRANCH   4  29
ATOM     29  N   UNL     1      -1.947  13.359   0.089  0.00  0.00    -0.357 N 
ATOM     30  H   UNL     1      -1.706  14.433   0.093  0.00  0.00    +0.142 HD
ATOM     31  H   UNL     1      -2.997  13.032   0.099  0.00  0.00    +0.142 HD
ENDBRANCH   4  29
BRANCH   5  32
ATOM     32  C   UNL     1       0.785  14.204   0.066  0.00  0.00    +0.104 C 
ATOM     33  N   UNL     1       1.069  15.304   0.068  0.00  0.00    -0.191 NA
ENDBRANCH   5  32
TORSDOF 5
