REMARK  Name = ZINC35569247
REMARK  8 active torsions:
REMARK  status: ('A' for Active; 'I' for Inactive)
REMARK    1  A    between atoms: C_1  and  N_2
REMARK    2  A    between atoms: N_2  and  C_3
REMARK    3  A    between atoms: C_11  and  C_13
REMARK    4  A    between atoms: N_18  and  S_20
REMARK    5  A    between atoms: S_20  and  C_23
REMARK    6  A    between atoms: C_26  and  N_29
REMARK    7  A    between atoms: C_30  and  O_32
REMARK    8  A    between atoms: O_32  and  C_33
REMARK                            x       y       z     vdW  Elec       q    Type
REMARK                         _______ _______ _______ _____ _____    ______ ____
ROOT
ATOM      1  C   UNL     1       0.284   0.397  -2.646  0.00  0.00    +0.091 C 
ATOM      2  C   UNL     1       1.421   1.387  -2.912  0.00  0.00    +0.015 C 
ATOM      3  C   UNL     1       1.177   2.098  -4.245  0.00  0.00    +0.018 C 
ATOM      4  C   UNL     1       1.161   1.065  -5.375  0.00  0.00    +0.109 C 
ATOM      5  N   UNL     1       0.170   0.029  -5.055  0.00  0.00    -0.176 NA
ATOM      6  C   UNL     1       0.257  -0.656  -3.758  0.00  0.00    +0.122 C 
ENDROOT
BRANCH   1   9
ATOM      7  C   UNL     1       0.419   1.911  -0.253  0.00  0.00    +0.132 C 
ATOM      8  N   UNL     1       0.569   0.455  -0.189  0.00  0.00    -0.300 N 
ATOM      9  C   UNL     1       0.507  -0.280  -1.318  0.00  0.00    +0.220 C 
ATOM     10  O   UNL     1       0.632  -1.485  -1.264  0.00  0.00    -0.275 OA
BRANCH   8  11
ATOM     11  C   UNL     1       0.786  -0.203   1.102  0.00  0.00    +0.098 C 
ATOM     12  C   UNL     1       2.073   0.343   1.743  0.00  0.00    +0.046 C 
ATOM     13  C   UNL     1       2.113  -0.128   3.225  0.00  0.00    +0.168 C 
ATOM     14  S   UNL     1       0.347   0.101   3.699  0.00  0.00    -0.029 S 
ATOM     15  O   UNL     1       0.183   1.395   4.261  0.00  0.00    -0.174 OA
ATOM     16  O   UNL     1      -0.087  -1.039   4.428  0.00  0.00    -0.174 OA
ATOM     17  C   UNL     1      -0.422   0.074   2.029  0.00  0.00    +0.188 C 
ENDBRANCH   8  11
ENDBRANCH   1   9
BRANCH   5  18
ATOM     18  S   UNL     1      -1.023  -0.360  -6.135  0.00  0.00    +0.061 S 
ATOM     19  O   UNL     1      -2.088  -0.921  -5.380  0.00  0.00    -0.153 OA
ATOM     20  O   UNL     1      -1.198   0.774  -6.973  0.00  0.00    -0.153 OA
BRANCH  18  21
ATOM     21  C   UNL     1      -0.399  -1.651  -7.159  0.00  0.00    +0.106 A 
ATOM     22  C   UNL     1       0.279  -1.341  -8.324  0.00  0.00    +0.030 A 
ATOM     23  C   UNL     1       0.769  -2.350  -9.129  0.00  0.00    +0.025 A 
ATOM     24  C   UNL     1       0.582  -3.678  -8.767  0.00  0.00    +0.037 A 
ATOM     25  C   UNL     1      -0.099  -3.986  -7.597  0.00  0.00    +0.025 A 
ATOM     26  C   UNL     1      -0.582  -2.972  -6.793  0.00  0.00    +0.030 A 
BRANCH  24  27
ATOM     27  N   UNL     1       1.077  -4.703  -9.581  0.00  0.00    -0.251 N 
ATOM     28  C   UNL     1       2.220  -4.523 -10.272  0.00  0.00    +0.404 C 
ATOM     29  O   UNL     1       2.872  -3.509 -10.114  0.00  0.00    -0.226 OA
ATOM     30  H   UNL     1       0.597  -5.543  -9.648  0.00  0.00    +0.158 HD
BRANCH  28  31
ATOM     31  O   UNL     1       2.640  -5.465 -11.136  0.00  0.00    -0.453 OA
ATOM     32  C   UNL     1       3.861  -5.208 -11.834  0.00  0.00    +0.282 C 
ENDBRANCH  28  31
ENDBRANCH  24  27
ENDBRANCH  18  21
ENDBRANCH   5  18
TORSDOF 6
