REMARK  Name = ZINC38847881
REMARK  6 active torsions:
REMARK  status: ('A' for Active; 'I' for Inactive)
REMARK    1  A    between atoms: C_6  and  C_7
REMARK    2  A    between atoms: C_8  and  C_9
REMARK    3  A    between atoms: N_11  and  C_12
REMARK    4  A    between atoms: C_12  and  C_13
REMARK    5  A    between atoms: C_13  and  C_14
REMARK    6  A    between atoms: C_14  and  N_15
REMARK                            x       y       z     vdW  Elec       q    Type
REMARK                         _______ _______ _______ _____ _____    ______ ____
ROOT
ATOM      1  C   UNL     1      -3.693  -0.852   0.036  0.00  0.00    +0.245 C 
ATOM      2  O   UNL     1      -2.652  -0.227   0.122  0.00  0.00    -0.270 OA
ATOM      3  N   UNL     1      -4.867  -0.196  -0.053  0.00  0.00    -0.247 N 
ATOM      4  C   UNL     1      -4.883   1.185  -0.150  0.00  0.00    +0.168 A 
ATOM      5  N   UNL     1      -5.913   1.999  -0.147  0.00  0.00    -0.224 NA
ATOM      6  C   UNL     1      -5.779   3.339  -0.249  0.00  0.00    +0.080 A 
ATOM      7  C   UNL     1      -6.798   4.320  -0.260  0.00  0.00    +0.030 A 
ATOM      8  C   UNL     1      -6.488   5.650  -0.372  0.00  0.00    +0.017 A 
ATOM      9  C   UNL     1      -5.173   6.082  -0.478  0.00  0.00    +0.019 A 
ATOM     10  C   UNL     1      -4.151   5.150  -0.471  0.00  0.00    +0.032 A 
ATOM     11  C   UNL     1      -4.453   3.815  -0.360  0.00  0.00    +0.042 A 
ATOM     12  S   UNL     1      -3.505   2.313  -0.302  0.00  0.00    -0.052 S 
ATOM     13 BR   UNL     1      -4.783   7.926  -0.632  0.00  0.00    -0.050 Br
ENDROOT
BRANCH   1  15
ATOM     14  C   UNL     1      -2.491  -2.970   0.010  0.00  0.00    +0.013 C 
ATOM     15  C   UNL     1      -3.671  -2.313   0.029  0.00  0.00    +0.068 C 
BRANCH  14  21
ATOM     16  C   UNL     1      -3.667  -5.161   0.018  0.00  0.00    +0.012 A 
ATOM     17  C   UNL     1      -3.643  -6.538   0.011  0.00  0.00    +0.050 A 
ATOM     18  C   UNL     1      -2.431  -7.216  -0.009  0.00  0.00    +0.166 A 
ATOM     19  C   UNL     1      -1.230  -6.503  -0.022  0.00  0.00    +0.167 A 
ATOM     20  C   UNL     1      -1.246  -5.123  -0.016  0.00  0.00    +0.057 A 
ATOM     21  C   UNL     1      -2.468  -4.440   0.004  0.00  0.00    -0.021 A 
ATOM     22  O   UNL     1      -0.196  -7.395  -0.040  0.00  0.00    -0.453 OA
ATOM     23  C   UNL     1      -0.764  -8.650   0.376  0.00  0.00    +0.466 C 
ATOM     24  O   UNL     1      -2.145  -8.549  -0.019  0.00  0.00    -0.453 OA
ENDBRANCH  14  21
ENDBRANCH   1  15
BRANCH   3  25
ATOM     25  C   UNL     1      -6.127  -0.944  -0.048  0.00  0.00    +0.117 C 
BRANCH  25  26
ATOM     26  C   UNL     1      -6.619  -1.104   1.392  0.00  0.00    +0.041 C 
BRANCH  26  27
ATOM     27  C   UNL     1      -7.934  -1.885   1.398  0.00  0.00    +0.124 C 
BRANCH  27  28
ATOM     28  N   UNL     1      -8.405  -2.039   2.776  0.00  0.00    -0.338 N 
ATOM     29  C   UNL     1      -8.100  -3.065   3.629  0.00  0.00    +0.104 A 
ATOM     30  C   UNL     1      -8.739  -2.812   4.787  0.00  0.00    +0.101 A 
ATOM     31  N   UNL     1      -9.416  -1.663   4.646  0.00  0.00    -0.352 N 
ATOM     32  C   UNL     1      -9.216  -1.191   3.445  0.00  0.00    +0.173 A 
ATOM     33  H   UNL     1      -9.964  -1.246   5.329  0.00  0.00    +0.166 HD
ENDBRANCH  27  28
ENDBRANCH  26  27
ENDBRANCH  25  26
ENDBRANCH   3  25
TORSDOF 6
