REMARK  Name = ZINC56075430
REMARK  4 active torsions:
REMARK  status: ('A' for Active; 'I' for Inactive)
REMARK    1  A    between atoms: C_6  and  S_7
REMARK    2  A    between atoms: S_7  and  N_10
REMARK    3  A    between atoms: N_10  and  C_11
REMARK    4  A    between atoms: C_11  and  C_12
REMARK                            x       y       z     vdW  Elec       q    Type
REMARK                         _______ _______ _______ _____ _____    ______ ____
ROOT
ATOM      1  C   UNL     1      -1.135  -1.973  -2.427  0.00  0.00    +0.142 C 
ENDROOT
BRANCH   1   2
ATOM      2  C   UNL     1      -1.904  -2.345  -3.668  0.00  0.00    -0.016 A 
ATOM      3  C   UNL     1      -2.478  -3.603  -3.787  0.00  0.00    +0.009 A 
ATOM      4  C   UNL     1      -3.176  -3.904  -4.943  0.00  0.00    +0.042 A 
ATOM      5  C   UNL     1      -3.277  -2.940  -5.942  0.00  0.00    +0.099 A 
ATOM      6  N   UNL     1      -2.715  -1.751  -5.791  0.00  0.00    -0.349 N 
ATOM      7  C   UNL     1      -2.049  -1.435  -4.696  0.00  0.00    +0.089 A 
ATOM      8  N   UNL     1      -3.975  -3.229  -7.109  0.00  0.00    -0.317 N 
ATOM      9  C   UNL     1      -4.702  -4.476  -7.192  0.00  0.00    +0.106 C 
ATOM     10  C   UNL     1      -3.774  -5.583  -7.750  0.00  0.00    +0.019 C 
ATOM     11  C   UNL     1      -3.511  -5.357  -9.179  0.00  0.00    +0.002 C 
ATOM     12  C   UNL     1      -2.774  -4.056  -9.484  0.00  0.00    +0.002 C 
ATOM     13  C   UNL     1      -3.770  -2.928  -9.585  0.00  0.00    +0.019 C 
ATOM     14  C   UNL     1      -3.947  -2.248  -8.211  0.00  0.00    +0.106 C 
ATOM     15  H   UNL     1      -2.798  -1.095  -6.500  0.00  0.00    +0.167 HD
ENDBRANCH   1   2
BRANCH   1  16
ATOM     16  N   UNL     1      -2.048  -1.383  -1.445  0.00  0.00    -0.186 NA
ATOM     17  H   UNL     1      -2.930  -1.087  -1.719  0.00  0.00    +0.148 HD
BRANCH  16  18
ATOM     18  S   UNL     1      -1.575  -1.222   0.134  0.00  0.00    +0.059 S 
ATOM     19  O   UNL     1      -1.044  -2.479   0.529  0.00  0.00    -0.153 OA
ATOM     20  O   UNL     1      -2.654  -0.602   0.820  0.00  0.00    -0.153 OA
BRANCH  18  26
ATOM     21  C   UNL     1      -0.481   1.274   0.313  0.00  0.00    +0.032 A 
ATOM     22  C   UNL     1       0.565   2.174   0.340  0.00  0.00    +0.048 A 
ATOM     23  C   UNL     1       1.878   1.727   0.214  0.00  0.00    +0.124 A 
ATOM     24  C   UNL     1       2.111   0.367   0.056  0.00  0.00    -0.001 A 
ATOM     25  C   UNL     1       1.067  -0.530   0.034  0.00  0.00    +0.035 A 
ATOM     26  C   UNL     1      -0.235  -0.078   0.162  0.00  0.00    +0.106 A 
ATOM     27  C   UNL     1       3.611   0.186  -0.078  0.00  0.00    +0.080 C 
ATOM     28  C   UNL     1       4.083   1.631  -0.366  0.00  0.00    +0.234 C 
ATOM     29  O   UNL     1       3.044   2.429   0.226  0.00  0.00    -0.491 OA
ENDBRANCH  18  26
ENDBRANCH  16  18
ENDBRANCH   1  16
TORSDOF 4
