REMARK  Name = ZINC38734830
REMARK  5 active torsions:
REMARK  status: ('A' for Active; 'I' for Inactive)
REMARK    1  A    between atoms: C_1  and  C_2
REMARK    2  A    between atoms: C_5  and  C_29
REMARK    3  A    between atoms: C_8  and  C_10
REMARK    4  A    between atoms: C_12  and  C_23
REMARK    5  A    between atoms: C_33  and  O_35
REMARK                            x       y       z     vdW  Elec       q    Type
REMARK                         _______ _______ _______ _____ _____    ______ ____
ROOT
ATOM      1  C   UNL     1      -4.895  -0.655   0.062  0.00  0.00    +0.152 C 
ATOM      2  C   UNL     1      -4.979   0.846   0.259  0.00  0.00    -0.014 C 
ATOM      3  C   UNL     1      -5.617   1.583  -0.743  0.00  0.00    +0.002 A 
ATOM      4  C   UNL     1      -5.739   2.984  -0.640  0.00  0.00    +0.030 A 
ATOM      5  C   UNL     1      -6.365   3.678  -1.630  0.00  0.00    +0.042 A 
ATOM      6  C   UNL     1      -6.890   3.030  -2.748  0.00  0.00    +0.022 A 
ATOM      7  C   UNL     1      -6.803   1.680  -2.902  0.00  0.00    +0.025 A 
ATOM      8  C   UNL     1      -6.169   0.900  -1.919  0.00  0.00    +0.041 A 
ATOM      9  N   UNL     1      -6.084  -0.426  -2.073  0.00  0.00    -0.284 N 
ATOM     10  C   UNL     1      -5.506  -1.225  -1.198  0.00  0.00    +0.230 C 
ATOM     11  O   UNL     1      -5.465  -2.423  -1.406  0.00  0.00    -0.274 OA
ATOM     12 CL   UNL     1      -6.513   5.402  -1.499  0.00  0.00    -0.084 Cl
ATOM     13  H   UNL     1      -6.467  -0.820  -2.872  0.00  0.00    +0.155 HD
ENDROOT
BRANCH   1  20
ATOM     14  C   UNL     1       0.005   1.325   0.096  0.00  0.00    +0.111 C 
ATOM     15  C   UNL     1      -0.027  -0.182   0.113  0.00  0.00    +0.232 C 
ATOM     16  O   UNL     1       1.010  -0.811   0.130  0.00  0.00    -0.274 OA
ATOM     17  N   UNL     1      -1.208  -0.831   0.109  0.00  0.00    -0.186 N 
ATOM     18  C   UNL     1      -1.385  -2.292   0.130  0.00  0.00    +0.137 C 
ATOM     19  C   UNL     1      -2.918  -2.463   0.114  0.00  0.00    +0.083 C 
ATOM     20  C   UNL     1      -3.439  -1.044   0.086  0.00  0.00    +0.055 C 
ATOM     21  N   UNL     1      -2.465  -0.229   0.091  0.00  0.00    -0.185 NA
BRANCH  18  22
ATOM     22  C   UNL     1      -0.794  -2.882   1.384  0.00  0.00    -0.021 A 
ATOM     23  C   UNL     1      -0.923  -2.215   2.589  0.00  0.00    +0.006 A 
ATOM     24  C   UNL     1      -0.382  -2.753   3.741  0.00  0.00    +0.004 A 
ATOM     25  C   UNL     1       0.291  -3.959   3.692  0.00  0.00    +0.045 A 
ATOM     26  C   UNL     1       0.422  -4.630   2.485  0.00  0.00    +0.117 A 
ATOM     27  C   UNL     1      -0.127  -4.090   1.331  0.00  0.00    +0.051 A 
BRANCH  26  28
ATOM     28  O   UNL     1       1.084  -5.816   2.434  0.00  0.00    -0.507 OA
ATOM     29  H   UNL     1       0.518  -6.588   2.575  0.00  0.00    +0.292 HD
ENDBRANCH  26  28
ENDBRANCH  18  22
ENDBRANCH   1  20
BRANCH   2  30
ATOM     30  C   UNL     1      -4.435   1.474   1.407  0.00  0.00    -0.020 A 
ATOM     31  C   UNL     1      -3.396   2.410   1.276  0.00  0.00    +0.008 A 
ATOM     32  C   UNL     1      -2.875   3.014   2.399  0.00  0.00    +0.001 A 
ATOM     33  C   UNL     1      -3.372   2.702   3.654  0.00  0.00    +0.000 A 
ATOM     34  C   UNL     1      -4.397   1.780   3.794  0.00  0.00    +0.001 A 
ATOM     35  C   UNL     1      -4.936   1.169   2.684  0.00  0.00    +0.008 A 
ENDBRANCH   2  30
TORSDOF 4
