REMARK  Name = ZINC09782595
REMARK  6 active torsions:
REMARK  status: ('A' for Active; 'I' for Inactive)
REMARK    1  A    between atoms: C_4  and  C_7
REMARK    2  A    between atoms: C_7  and  C_8
REMARK    3  A    between atoms: C_7  and  N_55
REMARK    4  A    between atoms: C_19  and  C_21
REMARK    5  A    between atoms: C_21  and  N_22
REMARK    6  A    between atoms: C_23  and  C_25
REMARK                            x       y       z     vdW  Elec       q    Type
REMARK                         _______ _______ _______ _____ _____    ______ ____
ROOT
ATOM      1  C   UNL     1       1.493   1.844  -0.366  0.00  0.00    -0.058 C 
ATOM      2  C   UNL     1       2.385   1.367   0.785  0.00  0.00    +0.089 C 
ATOM      3  N   UNL     1       2.211  -0.086   0.939  0.00  0.00    -0.304 N 
ATOM      4  C   UNL     1       0.844  -0.616   1.048  0.00  0.00    +0.089 C 
ATOM      5  C   UNL     1       0.013  -0.060  -0.113  0.00  0.00    -0.058 C 
ATOM      6  C   UNL     1       3.278  -0.909   0.980  0.00  0.00    +0.233 C 
ATOM      7  O   UNL     1       3.116  -2.104   1.107  0.00  0.00    -0.274 OA
ATOM      8  N   UNL     1       0.102   1.416  -0.098  0.00  0.00    +0.389 N 
ATOM      9  H   UNL     1      -0.178   1.757   0.829  0.00  0.00    -0.080 HD
ENDROOT
BRANCH   8  10
ATOM     10  C   UNL     1      -0.806   1.987  -1.115  0.00  0.00    -0.007 C 
BRANCH  10  14
ATOM     11  C   UNL     1      -4.799   0.729  -0.267  0.00  0.00    +0.000 A 
ATOM     12  C   UNL     1      -4.332   0.716  -1.568  0.00  0.00    +0.000 A 
ATOM     13  C   UNL     1      -3.040   1.124  -1.842  0.00  0.00    +0.002 A 
ATOM     14  C   UNL     1      -2.214   1.543  -0.815  0.00  0.00    -0.057 A 
ATOM     15  C   UNL     1      -2.679   1.550   0.486  0.00  0.00    +0.002 A 
ATOM     16  C   UNL     1      -3.973   1.147   0.760  0.00  0.00    +0.000 A 
ENDBRANCH  10  14
BRANCH  10  17
ATOM     17  C   UNL     1      -0.728   3.490  -1.049  0.00  0.00    -0.057 A 
ATOM     18  C   UNL     1      -0.724   4.129   0.177  0.00  0.00    +0.002 A 
ATOM     19  C   UNL     1      -0.648   5.508   0.238  0.00  0.00    +0.000 A 
ATOM     20  C   UNL     1      -0.586   6.249  -0.928  0.00  0.00    +0.000 A 
ATOM     21  C   UNL     1      -0.595   5.610  -2.154  0.00  0.00    +0.000 A 
ATOM     22  C   UNL     1      -0.666   4.231  -2.214  0.00  0.00    +0.002 A 
ENDBRANCH  10  17
ENDBRANCH   8  10
BRANCH   6  23
ATOM     23  C   UNL     1       4.670  -0.344   0.866  0.00  0.00    +0.200 C 
BRANCH  23  24
ATOM     24  N   UNL     1       5.646  -1.435   0.937  0.00  0.00    -0.300 N 
ATOM     25  C   UNL     1       6.965  -1.165   0.857  0.00  0.00    +0.280 C 
ATOM     26  O   UNL     1       7.344  -0.016   0.725  0.00  0.00    -0.267 OA
ATOM     27  H   UNL     1       5.344  -2.350   1.042  0.00  0.00    +0.150 HD
BRANCH  25  28
ATOM     28  C   UNL     1       7.941  -2.256   0.928  0.00  0.00    +0.191 A 
ATOM     29  C   UNL     1       9.299  -2.123   0.860  0.00  0.00    +0.056 A 
ATOM     30  C   UNL     1       9.837  -3.414   0.969  0.00  0.00    +0.058 A 
ATOM     31  C   UNL     1       8.796  -4.269   1.098  0.00  0.00    +0.171 A 
ATOM     32  O   UNL     1       7.656  -3.567   1.078  0.00  0.00    -0.444 OA
ATOM     33 BR   UNL     1       8.930  -6.146   1.283  0.00  0.00    -0.008 Br
ENDBRANCH  25  28
ENDBRANCH  23  24
ENDBRANCH   6  23
TORSDOF 6
