REMARK  Name = ZINC43425425
REMARK  4 active torsions:
REMARK  status: ('A' for Active; 'I' for Inactive)
REMARK    1  A    between atoms: C_1  and  C_2
REMARK    2  A    between atoms: C_2  and  C_3
REMARK    3  A    between atoms: C_7  and  C_24
REMARK    4  A    between atoms: C_9  and  N_12
REMARK                            x       y       z     vdW  Elec       q    Type
REMARK                         _______ _______ _______ _____ _____    ______ ____
ROOT
ATOM      1  C   UNL     1      -1.489  -0.504  -0.331  0.00  0.00    -0.010 C 
ATOM      2  C   UNL     1      -1.840  -0.123   1.109  0.00  0.00    +0.005 C 
ATOM      3  C   UNL     1      -3.219  -0.682   1.464  0.00  0.00    +0.020 C 
ATOM      4  C   UNL     1      -3.201  -2.206   1.329  0.00  0.00    +0.109 C 
ATOM      5  C   UNL     1      -2.851  -2.587  -0.110  0.00  0.00    +0.074 C 
ATOM      6  C   UNL     1      -1.472  -2.028  -0.465  0.00  0.00    +0.023 C 
ENDROOT
BRANCH   5   7
ATOM      7  N   UNL     1      -2.834  -4.051  -0.239  0.00  0.00    -0.291 NA
ATOM      8  C   UNL     1      -2.130  -4.671   0.893  0.00  0.00    +0.113 C 
ATOM      9  C   UNL     1      -2.091  -6.189   0.700  0.00  0.00    +0.175 C 
ATOM     10  O   UNL     1      -3.425  -6.685   0.549  0.00  0.00    -0.374 OA
ATOM     11  C   UNL     1      -4.127  -6.101  -0.550  0.00  0.00    +0.135 C 
ATOM     12  C   UNL     1      -4.197  -4.585  -0.352  0.00  0.00    +0.086 C 
ATOM     13  C   UNL     1      -4.914  -3.953  -1.545  0.00  0.00    +0.021 C 
ATOM     14  C   UNL     1      -6.334  -4.516  -1.637  0.00  0.00    +0.002 C 
ATOM     15  C   UNL     1      -6.276  -6.034  -1.816  0.00  0.00    +0.003 C 
ATOM     16  C   UNL     1      -5.547  -6.664  -0.627  0.00  0.00    +0.033 C 
ENDBRANCH   5   7
BRANCH   1  18
ATOM     17  C   UNL     1      -0.161   1.584  -0.672  0.00  0.00    +0.004 C 
ATOM     18  C   UNL     1      -0.110   0.055  -0.685  0.00  0.00    +0.000 C 
ENDBRANCH   1  18
BRANCH   4  19
ATOM     19  C   UNL     1      -4.528  -2.744   1.670  0.00  0.00    +0.067 C 
ATOM     20  N   UNL     1      -5.553  -3.159   1.934  0.00  0.00    -0.196 NA
ENDBRANCH   4  19
TORSDOF 3
