REMARK  Name = ZINC03909972
REMARK  6 active torsions:
REMARK  status: ('A' for Active; 'I' for Inactive)
REMARK    1  A    between atoms: C_1  and  C_2
REMARK    2  A    between atoms: C_5  and  N_8
REMARK    3  A    between atoms: N_8  and  C_9
REMARK    4  A    between atoms: C_10  and  C_18
REMARK    5  A    between atoms: C_21  and  S_24
REMARK    6  A    between atoms: S_24  and  C_25
REMARK                            x       y       z     vdW  Elec       q    Type
REMARK                         _______ _______ _______ _____ _____    ______ ____
ROOT
ATOM      1  C   UNL     1       0.181  -4.871   1.181  0.00  0.00    +0.154 A 
ATOM      2  C   UNL     1       0.314  -6.223   1.322  0.00  0.00    +0.115 A 
ATOM      3  N   UNL     1       0.401  -6.495   2.650  0.00  0.00    -0.209 NA
ATOM      4  C   UNL     1       0.327  -5.371   3.326  0.00  0.00    +0.233 A 
ATOM      5  N   UNL     1       0.194  -4.337   2.443  0.00  0.00    -0.182 N 
ATOM      6  N   UNL     1       0.124  -3.157   3.192  0.00  0.00    -0.153 NA
ATOM      7  C   UNL     1       0.212  -3.456   4.449  0.00  0.00    +0.222 A 
ATOM      8  N   UNL     1       0.333  -4.813   4.587  0.00  0.00    -0.314 N 
ATOM      9  H   UNL     1       0.417  -5.296   5.423  0.00  0.00    +0.170 HD
ENDROOT
BRANCH   2  10
ATOM     10  C   UNL     1       0.356  -7.215   0.224  0.00  0.00    +0.004 A 
ATOM     11  C   UNL     1      -0.408  -7.017  -0.927  0.00  0.00    +0.011 A 
ATOM     12  C   UNL     1      -0.366  -7.942  -1.948  0.00  0.00    +0.015 A 
ATOM     13  C   UNL     1       0.435  -9.072  -1.832  0.00  0.00    +0.008 A 
ATOM     14  C   UNL     1       1.197  -9.273  -0.687  0.00  0.00    +0.015 A 
ATOM     15  C   UNL     1       1.164  -8.347   0.335  0.00  0.00    +0.011 A 
BRANCH  13  16
ATOM     16  S   UNL     1       0.485 -10.253  -3.139  0.00  0.00    -0.129 S 
ATOM     17  C   UNL     1       1.640 -11.519  -2.543  0.00  0.00    +0.090 C 
ENDBRANCH  13  16
ENDBRANCH   2  10
BRANCH   1  18
ATOM     18  N   UNL     1       0.059  -4.167  -0.021  0.00  0.00    -0.298 N 
ATOM     19  H   UNL     1       0.157  -4.631  -0.867  0.00  0.00    +0.154 HD
BRANCH  18  24
ATOM     20  C   UNL     1      -0.999   1.403   0.051  0.00  0.00    +0.044 C 
ATOM     21  C   UNL     1      -0.717  -0.077   0.032  0.00  0.00    -0.050 A 
ATOM     22  C   UNL     1      -1.294  -0.901   0.982  0.00  0.00    +0.005 A 
ATOM     23  C   UNL     1      -1.039  -2.258   0.967  0.00  0.00    +0.023 A 
ATOM     24  C   UNL     1      -0.201  -2.796  -0.003  0.00  0.00    +0.032 A 
ATOM     25  C   UNL     1       0.377  -1.964  -0.955  0.00  0.00    +0.023 A 
ATOM     26  C   UNL     1       0.113  -0.609  -0.938  0.00  0.00    +0.005 A 
ENDBRANCH  18  24
ENDBRANCH   1  18
TORSDOF 4
