REMARK  Name = ZINC21715322
REMARK  6 active torsions:
REMARK  status: ('A' for Active; 'I' for Inactive)
REMARK    1  A    between atoms: C_1  and  C_2
REMARK    2  A    between atoms: C_6  and  C_8
REMARK    3  A    between atoms: C_8  and  N_9
REMARK    4  A    between atoms: C_12  and  C_15
REMARK    5  A    between atoms: C_15  and  N_16
REMARK    6  A    between atoms: C_19  and  C_27
REMARK                            x       y       z     vdW  Elec       q    Type
REMARK                         _______ _______ _______ _____ _____    ______ ____
ROOT
ATOM      1  C   UNL     1      -4.762   0.622   5.252  0.00  0.00    +0.106 C 
ENDROOT
BRANCH   1   2
ATOM      2  N   UNL     1      -4.782   1.821   6.093  0.00  0.00    -0.330 N 
ATOM      3  C   UNL     1      -5.032   1.710   7.453  0.00  0.00    +0.097 A 
ATOM      4  C   UNL     1      -5.263   0.439   7.997  0.00  0.00    +0.057 A 
ATOM      5  C   UNL     1      -5.514   0.314   9.355  0.00  0.00    +0.075 A 
ATOM      6  C   UNL     1      -5.523   1.542  10.152  0.00  0.00    +0.013 A 
ATOM      7  C   UNL     1      -5.766   1.518  11.529  0.00  0.00    +0.011 A 
ATOM      8  C   UNL     1      -5.764   2.685  12.234  0.00  0.00    +0.001 A 
ATOM      9  C   UNL     1      -5.524   3.901  11.599  0.00  0.00    +0.002 A 
ATOM     10  C   UNL     1      -5.284   3.959  10.260  0.00  0.00    +0.026 A 
ATOM     11  C   UNL     1      -5.277   2.776   9.501  0.00  0.00    +0.049 A 
ATOM     12  N   UNL     1      -5.039   2.800   8.186  0.00  0.00    -0.343 N 
ATOM     13  H   UNL     1      -4.598   2.809   5.646  0.00  0.00    +0.147 HD
ATOM     14  H   UNL     1      -4.844   3.778   7.721  0.00  0.00    +0.167 HD
BRANCH   5  15
ATOM     15  C   UNL     1      -5.763  -1.005   9.973  0.00  0.00    +0.387 C 
ATOM     16  O   UNL     1      -5.878  -1.099  11.178  0.00  0.00    -0.241 OA
ATOM     17  O   UNL     1      -5.862  -2.104   9.199  0.00  0.00    -0.241 OA
ENDBRANCH   5  15
ENDBRANCH   1   2
BRANCH   1  21
ATOM     18  N   UNL     1      -2.849   0.719   1.431  0.00  0.00    +0.382 N 
ATOM     19  C   UNL     1      -2.738   1.932   2.251  0.00  0.00    -0.078 C 
ATOM     20  C   UNL     1      -3.050   1.593   3.710  0.00  0.00    -0.014 C 
ATOM     21  C   UNL     1      -4.466   1.019   3.804  0.00  0.00    +0.003 C 
ATOM     22  C   UNL     1      -4.569  -0.216   2.904  0.00  0.00    -0.014 C 
ATOM     23  C   UNL     1      -4.212   0.175   1.468  0.00  0.00    -0.078 C 
ATOM     24  H   UNL     1      -2.175  -0.038   1.859  0.00  0.00    -0.081 HD
BRANCH  18  25
ATOM     25  C   UNL     1      -2.422   0.976   0.049  0.00  0.00    -0.043 C 
BRANCH  25  31
ATOM     26  C   UNL     1       0.000   5.355   0.076  0.00  0.00    +0.044 C 
ATOM     27  C   UNL     1       0.028   3.849   0.072  0.00  0.00    -0.050 A 
ATOM     28  C   UNL     1       1.238   3.179   0.071  0.00  0.00    +0.003 A 
ATOM     29  C   UNL     1       1.263   1.798   0.066  0.00  0.00    +0.000 A 
ATOM     30  C   UNL     1       0.079   1.084   0.063  0.00  0.00    +0.002 A 
ATOM     31  C   UNL     1      -1.131   1.753   0.059  0.00  0.00    -0.064 A 
ATOM     32  C   UNL     1      -1.156   3.136   0.069  0.00  0.00    +0.005 A 
ENDBRANCH  25  31
ENDBRANCH  18  25
ENDBRANCH   1  21
TORSDOF 5
