REMARK  Name = ZINC46426363
REMARK  6 active torsions:
REMARK  status: ('A' for Active; 'I' for Inactive)
REMARK    1  A    between atoms: C_1  and  C_2
REMARK    2  A    between atoms: C_5  and  C_27
REMARK    3  A    between atoms: N_8  and  C_10
REMARK    4  A    between atoms: C_10  and  C_11
REMARK    5  A    between atoms: C_11  and  C_12
REMARK    6  A    between atoms: C_12  and  N_13
REMARK                            x       y       z     vdW  Elec       q    Type
REMARK                         _______ _______ _______ _____ _____    ______ ____
ROOT
ATOM      1  N   UNL     1       2.210   0.405   6.106  0.00  0.00    -0.299 N 
ATOM      2  C   UNL     1       2.669   0.154   7.348  0.00  0.00    +0.302 C 
ATOM      3  O   UNL     1       3.558  -0.659   7.515  0.00  0.00    -0.253 OA
ATOM      4  N   UNL     1       2.144   0.805   8.405  0.00  0.00    -0.283 N 
ATOM      5  C   UNL     1       0.991   1.699   8.235  0.00  0.00    +0.128 C 
ATOM      6  C   UNL     1      -0.124   1.248   9.186  0.00  0.00    +0.126 C 
ATOM      7  N   UNL     1       0.446   1.075  10.529  0.00  0.00    -0.307 N 
ATOM      8  C   UNL     1       1.599   0.180  10.700  0.00  0.00    +0.126 C 
ATOM      9  C   UNL     1       2.711   0.628   9.749  0.00  0.00    +0.128 C 
ATOM     10  C   UNL     1      -0.095   1.744  11.616  0.00  0.00    +0.161 A 
ATOM     11  N   UNL     1      -1.119   2.570  11.642  0.00  0.00    -0.233 NA
ATOM     12  C   UNL     1      -1.514   3.131  12.771  0.00  0.00    +0.120 A 
ATOM     13  C   UNL     1      -0.820   2.818  13.891  0.00  0.00    +0.068 A 
ATOM     14  S   UNL     1       0.396   1.692  13.226  0.00  0.00    -0.061 S 
ATOM     15  H   UNL     1       1.453   0.999   5.979  0.00  0.00    +0.150 HD
ENDROOT
BRANCH   1  16
ATOM     16  C   UNL     1       2.853  -0.219   4.947  0.00  0.00    +0.104 C 
BRANCH  16  17
ATOM     17  C   UNL     1       2.143   0.228   3.668  0.00  0.00    +0.000 C 
BRANCH  17  18
ATOM     18  C   UNL     1       2.815  -0.424   2.457  0.00  0.00    -0.077 C 
BRANCH  18  24
ATOM     19  C   UNL     1      -0.001   1.545   0.007  0.00  0.00    +0.005 C 
ATOM     20  C   UNL     1       0.015   0.015  -0.003  0.00  0.00    -0.031 C 
ATOM     21  C   UNL     1       0.735  -0.480  -1.261  0.00  0.00    +0.003 C 
ATOM     22  C   UNL     1       2.192  -0.013  -1.221  0.00  0.00    -0.031 C 
ATOM     23  C   UNL     1       2.851  -0.524   0.063  0.00  0.00    -0.076 C 
ATOM     24  N   UNL     1       2.133   0.005   1.229  0.00  0.00    +0.380 N 
ATOM     25  C   UNL     1       0.753  -0.497   1.236  0.00  0.00    -0.076 C 
ATOM     26  C   UNL     1       2.940  -0.567  -2.435  0.00  0.00    +0.005 C 
ATOM     27  H   UNL     1       2.123   1.013   1.187  0.00  0.00    -0.082 HD
ENDBRANCH  18  24
ENDBRANCH  17  18
ENDBRANCH  16  17
ENDBRANCH   1  16
TORSDOF 4
