REMARK  Name = ZINC13988508
REMARK  6 active torsions:
REMARK  status: ('A' for Active; 'I' for Inactive)
REMARK    1  A    between atoms: C_1  and  C_2
REMARK    2  A    between atoms: C_2  and  C_21
REMARK    3  A    between atoms: N_5  and  C_9
REMARK    4  A    between atoms: C_9  and  C_10
REMARK    5  A    between atoms: N_12  and  C_13
REMARK    6  A    between atoms: C_14  and  C_18
REMARK                            x       y       z     vdW  Elec       q    Type
REMARK                         _______ _______ _______ _____ _____    ______ ____
ROOT
ATOM      1  C   UNL     1      -1.577   8.181  -1.051  0.00  0.00    +0.047 C 
ATOM      2  C   UNL     1      -0.152   8.488  -0.586  0.00  0.00    +0.136 C 
ATOM      3  C   UNL     1       0.818   7.434  -1.081  0.00  0.00    +0.251 C 
ATOM      4  O   UNL     1       1.073   7.157  -2.234  0.00  0.00    -0.272 OA
ATOM      5  N   UNL     1       1.336   6.866   0.025  0.00  0.00    -0.215 N 
ATOM      6  C   UNL     1       0.840   7.415   1.140  0.00  0.00    +0.310 C 
ATOM      7  O   UNL     1       1.159   7.073   2.262  0.00  0.00    -0.252 OA
ATOM      8  N   UNL     1      -0.053   8.388   0.881  0.00  0.00    -0.281 N 
ATOM      9  H   UNL     1      -0.536   8.919   1.532  0.00  0.00    +0.152 HD
ENDROOT
BRANCH   2  10
ATOM     10  C   UNL     1       0.273   9.856  -1.053  0.00  0.00    +0.003 A 
ATOM     11  C   UNL     1       0.648  10.816  -0.132  0.00  0.00    +0.009 A 
ATOM     12  C   UNL     1       1.043  12.069  -0.561  0.00  0.00    +0.020 A 
ATOM     13  C   UNL     1       1.054  12.367  -1.912  0.00  0.00    +0.042 A 
ATOM     14  C   UNL     1       0.674  11.408  -2.834  0.00  0.00    +0.040 A 
ATOM     15  C   UNL     1       0.284  10.152  -2.405  0.00  0.00    +0.048 A 
ATOM     16 CL   UNL     1      -0.194   8.949  -3.561  0.00  0.00    -0.083 Cl
ATOM     17 CL   UNL     1       1.545  13.943  -2.450  0.00  0.00    -0.083 Cl
ENDBRANCH   2  10
BRANCH   5  18
ATOM     18  C   UNL     1       2.326   5.787   0.010  0.00  0.00    +0.214 C 
BRANCH  18  19
ATOM     19  C   UNL     1       1.618   4.456   0.010  0.00  0.00    +0.236 C 
ATOM     20  O   UNL     1       0.406   4.414   0.022  0.00  0.00    -0.274 OA
ATOM     21  N   UNL     1       2.332   3.313  -0.003  0.00  0.00    -0.278 N 
ATOM     22  H   UNL     1       3.302   3.347  -0.012  0.00  0.00    +0.155 HD
BRANCH  21  23
ATOM     23  C   UNL     1       1.681   2.089  -0.003  0.00  0.00    +0.084 A 
ATOM     24  C   UNL     1       2.237   0.815  -0.015  0.00  0.00    +0.065 A 
ATOM     25  C   UNL     1       1.315  -0.296  -0.012  0.00  0.00    +0.022 A 
ATOM     26  C   UNL     1       0.002  -0.004   0.002  0.00  0.00    +0.048 A 
ATOM     27  S   UNL     1      -0.022   1.776   0.012  0.00  0.00    -0.081 S 
BRANCH  24  28
ATOM     28  C   UNL     1       3.689   0.610  -0.030  0.00  0.00    +0.244 C 
ATOM     29  O   UNL     1       4.439   1.568  -0.033  0.00  0.00    -0.270 OA
ATOM     30  N   UNL     1       4.192  -0.640  -0.042  0.00  0.00    -0.325 N 
ATOM     31  H   UNL     1       3.595  -1.404  -0.040  0.00  0.00    +0.145 HD
ATOM     32  H   UNL     1       5.153  -0.776  -0.052  0.00  0.00    +0.145 HD
ENDBRANCH  24  28
ENDBRANCH  21  23
ENDBRANCH  18  19
ENDBRANCH   5  18
TORSDOF 5
