REMARK  Name = ZINC08695587
REMARK  12 active torsions:
REMARK  status: ('A' for Active; 'I' for Inactive)
REMARK    1  A    between atoms: C_1  and  C_2
REMARK    2  A    between atoms: C_2  and  C_3
REMARK    3  A    between atoms: C_3  and  C_5
REMARK    4  A    between atoms: C_3  and  O_6
REMARK    5  A    between atoms: O_6  and  C_7
REMARK    6  A    between atoms: C_12  and  C_13
REMARK    7  A    between atoms: C_18  and  C_23
REMARK    8  A    between atoms: C_26  and  O_31
REMARK    9  A    between atoms: C_27  and  O_29
REMARK   10  A    between atoms: O_29  and  C_30
REMARK   11  A    between atoms: O_31  and  C_32
REMARK   12  A    between atoms: C_41  and  C_43
REMARK                            x       y       z     vdW  Elec       q    Type
REMARK                         _______ _______ _______ _____ _____    ______ ____
ROOT
ATOM      1  C   UNL     1      -9.677  -3.947  -0.004  0.00  0.00    +0.150 C 
ATOM      2  C   UNL     1      -8.645  -2.850   0.111  0.00  0.00    +0.037 C 
ATOM      3  C   UNL     1      -8.309  -2.199   1.236  0.00  0.00    +0.017 C 
ATOM      4  C   UNL     1      -7.266  -1.093   1.204  0.00  0.00    +0.059 C 
ATOM      5  C   UNL     1      -6.217  -1.399   0.137  0.00  0.00    +0.032 C 
ATOM      6  C   UNL     1      -6.938  -1.489  -1.214  0.00  0.00    +0.088 C 
ATOM      7  C   UNL     1      -8.012  -2.530  -1.114  0.00  0.00    +0.163 C 
ATOM      8  O   UNL     1      -8.352  -3.119  -2.120  0.00  0.00    -0.292 OA
ATOM      9  N   UNL     1      -8.840  -2.441   2.462  0.00  0.00    -0.316 N 
ATOM     10  C   UNL     1     -10.197  -2.580   2.724  0.00  0.00    +0.053 A 
ATOM     11  C   UNL     1     -10.893  -1.687   3.520  0.00  0.00    +0.025 A 
ATOM     12  C   UNL     1     -12.235  -1.909   3.778  0.00  0.00    +0.002 A 
ATOM     13  C   UNL     1     -12.873  -3.015   3.247  0.00  0.00    +0.002 A 
ATOM     14  C   UNL     1     -12.183  -3.901   2.437  0.00  0.00    +0.025 A 
ATOM     15  C   UNL     1     -10.845  -3.669   2.160  0.00  0.00    +0.059 A 
ATOM     16  N   UNL     1     -10.138  -4.471   1.264  0.00  0.00    -0.254 N 
ATOM     17  C   UNL     1      -9.881  -5.755   1.584  0.00  0.00    +0.252 C 
ATOM     18  O   UNL     1      -9.314  -6.478   0.788  0.00  0.00    -0.270 OA
ATOM     19  H   UNL     1      -8.227  -2.523   3.209  0.00  0.00    +0.152 HD
ENDROOT
BRANCH   1  25
ATOM     20  C   UNL     1     -11.796  -4.282  -1.302  0.00  0.00    +0.126 A 
ATOM     21  C   UNL     1     -12.888  -3.783  -1.997  0.00  0.00    +0.046 A 
ATOM     22  C   UNL     1     -13.046  -2.419  -2.146  0.00  0.00    +0.004 A 
ATOM     23  C   UNL     1     -12.116  -1.551  -1.604  0.00  0.00    +0.001 A 
ATOM     24  C   UNL     1     -11.029  -2.045  -0.907  0.00  0.00    +0.009 A 
ATOM     25  C   UNL     1     -10.864  -3.409  -0.760  0.00  0.00    +0.020 A 
BRANCH  20  26
ATOM     26  O   UNL     1     -11.638  -5.623  -1.154  0.00  0.00    -0.489 OA
BRANCH  26  27
ATOM     27  C   UNL     1     -12.669  -6.460  -1.682  0.00  0.00    +0.170 C 
ATOM     28  C   UNL     1     -13.814  -6.557  -0.672  0.00  0.00    +0.052 C 
BRANCH  27  30
ATOM     29  C   UNL     1     -11.033  -7.775  -3.038  0.00  0.00    +0.007 C 
ATOM     30  C   UNL     1     -12.105  -7.857  -1.950  0.00  0.00    +0.041 C 
ENDBRANCH  27  30
ENDBRANCH  26  27
ENDBRANCH  20  26
ENDBRANCH   1  25
BRANCH   5  31
ATOM     31  C   UNL     1      -5.192  -0.295   0.097  0.00  0.00    -0.040 A 
ATOM     32  C   UNL     1      -5.589   1.005  -0.152  0.00  0.00    +0.008 A 
ATOM     33  C   UNL     1      -4.653   2.022  -0.190  0.00  0.00    +0.049 A 
ATOM     34  C   UNL     1      -3.313   1.738   0.023  0.00  0.00    +0.161 A 
ATOM     35  C   UNL     1      -2.913   0.428   0.268  0.00  0.00    +0.162 A 
ATOM     36  C   UNL     1      -3.857  -0.585   0.310  0.00  0.00    +0.053 A 
BRANCH  35  37
ATOM     37  O   UNL     1      -1.599   0.144   0.471  0.00  0.00    -0.491 OA
ATOM     38  C   UNL     1      -1.261  -1.223   0.717  0.00  0.00    +0.277 C 
ENDBRANCH  35  37
BRANCH  34  39
ATOM     39  O   UNL     1      -2.391   2.737  -0.014  0.00  0.00    -0.491 OA
ATOM     40  C   UNL     1      -2.873   4.056  -0.277  0.00  0.00    +0.277 C 
ENDBRANCH  34  39
ENDBRANCH   5  31
BRANCH  17  41
ATOM     41  C   UNL     1     -10.288  -6.284   2.902  0.00  0.00    +0.037 A 
ATOM     42  C   UNL     1     -10.496  -5.413   3.973  0.00  0.00    +0.013 A 
ATOM     43  C   UNL     1     -10.882  -5.913   5.200  0.00  0.00    +0.001 A 
ATOM     44  C   UNL     1     -11.051  -7.275   5.373  0.00  0.00    +0.000 A 
ATOM     45  C   UNL     1     -10.841  -8.144   4.317  0.00  0.00    +0.001 A 
ATOM     46  C   UNL     1     -10.461  -7.657   3.084  0.00  0.00    +0.013 A 
ENDBRANCH  17  41
TORSDOF 8
