REMARK  Name = ZINC26464367
REMARK  6 active torsions:
REMARK  status: ('A' for Active; 'I' for Inactive)
REMARK    1  A    between atoms: C_1  and  C_2
REMARK    2  A    between atoms: C_5  and  C_23
REMARK    3  A    between atoms: N_11  and  C_12
REMARK    4  A    between atoms: C_12  and  C_13
REMARK    5  A    between atoms: C_16  and  C_22
REMARK    6  A    between atoms: C_18  and  C_21
REMARK                            x       y       z     vdW  Elec       q    Type
REMARK                         _______ _______ _______ _____ _____    ______ ____
ROOT
ATOM      1  C   UNL     1       1.298  -3.225  -0.507  0.00  0.00    +0.044 C 
ATOM      2  C   UNL     1       2.267  -2.267  -1.151  0.00  0.00    -0.040 A 
ATOM      3  C   UNL     1       3.484  -2.727  -1.623  0.00  0.00    +0.004 A 
ATOM      4  C   UNL     1       4.371  -1.846  -2.213  0.00  0.00    +0.005 A 
ATOM      5  C   UNL     1       4.048  -0.510  -2.336  0.00  0.00    -0.029 A 
ATOM      6  C   UNL     1       2.825  -0.039  -1.865  0.00  0.00    +0.048 A 
ATOM      7  C   UNL     1       1.941  -0.935  -1.271  0.00  0.00    +0.045 A 
ATOM      8  C   UNL     1       0.735  -0.127  -0.876  0.00  0.00    +0.279 C 
ATOM      9  C   UNL     1       1.054   1.279  -1.313  0.00  0.00    +0.285 C 
ATOM     10  O   UNL     1       0.342   2.254  -1.188  0.00  0.00    -0.269 OA
ATOM     11  N   UNL     1       2.277   1.245  -1.873  0.00  0.00    -0.265 N 
ATOM     12  O   UNL     1       0.501  -0.193   0.532  0.00  0.00    -0.332 OA
ATOM     13  C   UNL     1      -0.926  -0.155   0.722  0.00  0.00    +0.148 C 
ATOM     14  C   UNL     1      -1.519  -0.086  -0.704  0.00  0.00    +0.148 C 
ATOM     15  O   UNL     1      -0.448  -0.611  -1.528  0.00  0.00    -0.332 OA
ATOM     16  C   UNL     1      -1.837   1.361  -1.087  0.00  0.00    +0.040 C 
ATOM     17  C   UNL     1      -1.324   1.086   1.524  0.00  0.00    +0.040 C 
ATOM     18  C   UNL     1       5.022   0.442  -2.981  0.00  0.00    +0.045 C 
ENDROOT
BRANCH  11  19
ATOM     19  C   UNL     1       2.955   2.420  -2.427  0.00  0.00    +0.125 C 
BRANCH  19  20
ATOM     20  C   UNL     1       2.582   2.575  -3.903  0.00  0.00    +0.099 C 
ATOM     21 BR   UNL     1       3.492   4.151  -4.646  0.00  0.00    -0.090 Br
ENDBRANCH  19  20
ENDBRANCH  11  19
TORSDOF 2
