REMARK  Name = ZINC13203070
REMARK  7 active torsions:
REMARK  status: ('A' for Active; 'I' for Inactive)
REMARK    1  A    between atoms: C_5  and  N_7
REMARK    2  A    between atoms: C_8  and  C_10
REMARK    3  A    between atoms: C_10  and  S_11
REMARK    4  A    between atoms: S_11  and  C_12
REMARK    5  A    between atoms: C_15  and  C_20
REMARK    6  A    between atoms: N_16  and  C_17
REMARK    7  A    between atoms: C_17  and  C_18
REMARK                            x       y       z     vdW  Elec       q    Type
REMARK                         _______ _______ _______ _____ _____    ______ ____
ROOT
ATOM      1  C   UNL     1       2.165   6.910  -0.180  0.00  0.00    +0.193 A 
ATOM      2  N   UNL     1       0.945   7.249   0.168  0.00  0.00    -0.122 NA
ATOM      3  N   UNL     1       0.202   6.205   0.255  0.00  0.00    -0.128 NA
ATOM      4  C   UNL     1       0.903   5.130  -0.034  0.00  0.00    +0.172 A 
ATOM      5  N   UNL     1       2.184   5.549  -0.316  0.00  0.00    -0.291 N 
ENDROOT
BRANCH   4   6
ATOM      6  C   UNL     1       0.413   3.743  -0.046  0.00  0.00    +0.056 A 
ATOM      7  C   UNL     1      -0.880   3.282  -0.045  0.00  0.00    +0.019 A 
ATOM      8  C   UNL     1      -1.097   1.922  -0.064  0.00  0.00    +0.008 A 
ATOM      9  C   UNL     1      -0.030   1.082  -0.073  0.00  0.00    +0.046 A 
ATOM     10  S   UNL     1       1.345   2.220  -0.067  0.00  0.00    -0.094 S 
ENDBRANCH   4   6
BRANCH   1  11
ATOM     11  S   UNL     1       3.526   8.003  -0.420  0.00  0.00    -0.077 S 
BRANCH  11  12
ATOM     12  C   UNL     1       2.726   9.585  -0.055  0.00  0.00    +0.173 C 
BRANCH  12  14
ATOM     13  N   UNL     1       3.356  11.976   0.023  0.00  0.00    -0.284 N 
ATOM     14  C   UNL     1       3.729  10.700  -0.201  0.00  0.00    +0.228 C 
ATOM     15  O   UNL     1       4.872  10.450  -0.520  0.00  0.00    -0.275 OA
ATOM     16  H   UNL     1       2.428  12.183   0.215  0.00  0.00    +0.155 HD
BRANCH  13  21
ATOM     17  C   UNL     1       6.300  13.947  -0.960  0.00  0.00    +0.002 A 
ATOM     18  C   UNL     1       6.190  15.028  -0.104  0.00  0.00    +0.001 A 
ATOM     19  C   UNL     1       5.142  15.098   0.794  0.00  0.00    +0.017 A 
ATOM     20  C   UNL     1       4.200  14.088   0.839  0.00  0.00    +0.039 A 
ATOM     21  C   UNL     1       4.308  13.001  -0.020  0.00  0.00    +0.047 A 
ATOM     22  C   UNL     1       5.365  12.932  -0.917  0.00  0.00    +0.024 A 
ATOM     23 BR   UNL     1       2.767  14.184   2.069  0.00  0.00    -0.048 Br
ENDBRANCH  13  21
ENDBRANCH  12  14
ENDBRANCH  11  12
ENDBRANCH   1  11
BRANCH   5  24
ATOM     24  C   UNL     1       3.328   4.712  -0.687  0.00  0.00    +0.250 C 
BRANCH  24  25
ATOM     25  C   UNL     1       3.374   4.559  -2.185  0.00  0.00    +0.375 C 
ATOM     26  O   UNL     1       2.537   5.095  -2.873  0.00  0.00    -0.244 OA
ATOM     27  O   UNL     1       4.344   3.829  -2.756  0.00  0.00    -0.244 OA
ENDBRANCH  24  25
ENDBRANCH   5  24
TORSDOF 7
