REMARK  Name = ZINC18103238
REMARK  10 active torsions:
REMARK  status: ('A' for Active; 'I' for Inactive)
REMARK    1  A    between atoms: C_1  and  C_2
REMARK    2  A    between atoms: C_6  and  O_9
REMARK    3  A    between atoms: C_7  and  C_8
REMARK    4  A    between atoms: O_9  and  C_10
REMARK    5  A    between atoms: C_10  and  C_12
REMARK    6  A    between atoms: C_10  and  C_13
REMARK    7  A    between atoms: N_15  and  N_16
REMARK    8  A    between atoms: C_17  and  C_19
REMARK    9  A    between atoms: C_19  and  C_20
REMARK   10  A    between atoms: C_23  and  C_25
REMARK                            x       y       z     vdW  Elec       q    Type
REMARK                         _______ _______ _______ _____ _____    ______ ____
ROOT
ATOM      1  N   UNL     1      -1.198   2.210   0.319  0.00  0.00    -0.234 N 
ATOM      2  C   UNL     1       0.017   1.650   0.484  0.00  0.00    +0.235 C 
ATOM      3  O   UNL     1       0.114   0.455   0.668  0.00  0.00    -0.274 OA
ATOM      4  H   UNL     1      -1.276   3.166   0.172  0.00  0.00    +0.173 HD
ENDROOT
BRANCH   1   7
ATOM      5  C   UNL     1      -3.563   1.972   0.196  0.00  0.00    +0.270 C 
ATOM      6  O   UNL     1      -3.660   3.167   0.012  0.00  0.00    -0.270 OA
ATOM      7  N   UNL     1      -2.349   1.412   0.361  0.00  0.00    -0.231 N 
ATOM      8  H   UNL     1      -2.271   0.457   0.508  0.00  0.00    +0.173 HD
BRANCH   5   9
ATOM      9  C   UNL     1      -4.801   1.114   0.241  0.00  0.00    +0.257 C 
ATOM     10  C   UNL     1      -4.788   0.139  -0.938  0.00  0.00    +0.062 C 
BRANCH   9  11
ATOM     11  O   UNL     1      -5.961   1.945   0.158  0.00  0.00    -0.480 OA
BRANCH  11  17
ATOM     12  C   UNL     1     -10.649   2.610   1.340  0.00  0.00    +0.044 C 
ATOM     13  C   UNL     1      -9.415   1.747   1.283  0.00  0.00    -0.044 A 
ATOM     14  C   UNL     1      -9.453   0.454   1.772  0.00  0.00    +0.004 A 
ATOM     15  C   UNL     1      -8.322  -0.339   1.722  0.00  0.00    +0.004 A 
ATOM     16  C   UNL     1      -7.153   0.155   1.176  0.00  0.00    +0.046 A 
ATOM     17  C   UNL     1      -7.111   1.454   0.690  0.00  0.00    +0.125 A 
ATOM     18  C   UNL     1      -8.247   2.249   0.742  0.00  0.00    -0.006 A 
ATOM     19  C   UNL     1      -8.207   3.658   0.209  0.00  0.00    +0.048 C 
ENDBRANCH  11  17
ENDBRANCH   9  11
ENDBRANCH   5   9
ENDBRANCH   1   7
BRANCH   2  20
ATOM     20  C   UNL     1       1.255   2.508   0.433  0.00  0.00    +0.153 C 
BRANCH  20  21
ATOM     21  C   UNL     1       2.473   1.644   0.638  0.00  0.00    +0.058 A 
ATOM     22  C   UNL     1       3.475   1.652  -0.280  0.00  0.00    +0.071 A 
ATOM     23  S   UNL     1       4.611   0.486   0.460  0.00  0.00    -0.075 S 
ATOM     24  C   UNL     1       3.625   0.109   1.904  0.00  0.00    +0.109 A 
ATOM     25  N   UNL     1       2.565   0.879   1.700  0.00  0.00    -0.243 NA
BRANCH  24  26
ATOM     26  C   UNL     1       3.914  -0.812   3.024  0.00  0.00    +0.008 A 
ATOM     27  C   UNL     1       2.999  -0.956   4.067  0.00  0.00    +0.010 A 
ATOM     28  C   UNL     1       3.272  -1.821   5.107  0.00  0.00    +0.002 A 
ATOM     29  C   UNL     1       4.455  -2.538   5.121  0.00  0.00    +0.015 A 
ATOM     30  C   UNL     1       5.370  -2.397   4.092  0.00  0.00    +0.019 A 
ATOM     31  C   UNL     1       5.106  -1.538   3.044  0.00  0.00    +0.025 A 
ATOM     32 BR   UNL     1       6.984  -3.381   4.123  0.00  0.00    -0.050 Br
ENDBRANCH  24  26
ENDBRANCH  20  21
ENDBRANCH   2  20
TORSDOF 7
