REMARK  Name = ZINC63393840
REMARK  5 active torsions:
REMARK  status: ('A' for Active; 'I' for Inactive)
REMARK    1  A    between atoms: C_1  and  C_2
REMARK    2  A    between atoms: C_2  and  C_27
REMARK    3  A    between atoms: C_6  and  C_14
REMARK    4  A    between atoms: C_8  and  C_12
REMARK    5  A    between atoms: C_9  and  N_11
REMARK                            x       y       z     vdW  Elec       q    Type
REMARK                         _______ _______ _______ _____ _____    ______ ____
ROOT
ATOM      1  C   UNL     1      -0.019   1.526   0.010  0.00  0.00    +0.012 C 
ATOM      2  C   UNL     1       0.002  -0.004   0.002  0.00  0.00    -0.021 C 
ATOM      3  C   UNL     1      -1.431  -0.538   0.038  0.00  0.00    +0.081 C 
ATOM      4  C   UNL     1      -1.410  -2.048   0.073  0.00  0.00    +0.115 C 
ATOM      5  C   UNL     1      -0.400  -2.708   0.668  0.00  0.00    +0.044 C 
ATOM      6  C   UNL     1      -0.385  -4.217   0.707  0.00  0.00    +0.097 C 
ATOM      7  C   UNL     1      -1.321  -4.773  -0.329  0.00  0.00    +0.096 C 
ATOM      8  C   UNL     1      -2.285  -3.993  -0.875  0.00  0.00    +0.198 C 
ATOM      9  O   UNL     1      -2.431  -2.709  -0.505  0.00  0.00    -0.445 OA
ATOM     10  C   UNL     1       0.673  -2.019   1.265  0.00  0.00    +0.164 C 
ATOM     11  O   UNL     1       1.558  -2.648   1.809  0.00  0.00    -0.292 OA
ATOM     12  C   UNL     1       0.743  -0.516   1.242  0.00  0.00    +0.086 C 
ATOM     13  C   UNL     1       0.709  -0.502  -1.260  0.00  0.00    +0.012 C 
ENDROOT
BRANCH   6  14
ATOM     14  C   UNL     1      -0.827  -4.692   2.092  0.00  0.00    +0.116 C 
ATOM     15  C   UNL     1      -2.285  -4.359   2.317  0.00  0.00    +0.008 C 
ATOM     16  C   UNL     1      -2.915  -5.540   2.509  0.00  0.00    -0.004 A 
ATOM     17  C   UNL     1      -4.316  -5.889   2.773  0.00  0.00    +0.010 A 
ATOM     18  C   UNL     1      -4.651  -7.190   2.923  0.00  0.00    +0.001 A 
ATOM     19  C   UNL     1      -3.696  -8.212   2.833  0.00  0.00    +0.002 A 
ATOM     20  C   UNL     1      -2.390  -7.971   2.593  0.00  0.00    +0.026 A 
ATOM     21  C   UNL     1      -1.926  -6.638   2.418  0.00  0.00    +0.043 A 
ATOM     22  N   UNL     1      -0.729  -6.153   2.181  0.00  0.00    -0.377 N 
ATOM     23  H   UNL     1       0.083  -6.673   2.080  0.00  0.00    +0.160 HD
ENDBRANCH   6  14
BRANCH   8  24
ATOM     24  N   UNL     1      -3.127  -4.522  -1.822  0.00  0.00    -0.328 N 
ATOM     25  H   UNL     1      -3.029  -5.447  -2.095  0.00  0.00    +0.145 HD
ATOM     26  H   UNL     1      -3.820  -3.970  -2.217  0.00  0.00    +0.145 HD
ENDBRANCH   8  24
BRANCH   7  27
ATOM     27  C   UNL     1      -1.193  -6.138  -0.743  0.00  0.00    +0.101 C 
ATOM     28  N   UNL     1      -1.092  -7.221  -1.071  0.00  0.00    -0.191 NA
ENDBRANCH   7  27
TORSDOF 3
