REMARK  Name = ZINC67346626
REMARK  1 active torsions:
REMARK  status: ('A' for Active; 'I' for Inactive)
REMARK    1  A    between atoms: C_8  and  C_10
REMARK                            x       y       z     vdW  Elec       q    Type
REMARK                         _______ _______ _______ _____ _____    ______ ____
ROOT
ATOM      1  C   UNL     1       3.642  -3.377  -0.051  0.00  0.00    +0.078 C 
ATOM      2  C   UNL     1       4.534  -3.451   1.190  0.00  0.00    +0.032 C 
ATOM      3  C   UNL     1       5.293  -4.782   1.189  0.00  0.00    +0.109 C 
ATOM      4  N   UNL     1       6.017  -4.913  -0.083  0.00  0.00    -0.300 N 
ATOM      5  C   UNL     1       5.270  -4.768  -1.339  0.00  0.00    +0.109 C 
ATOM      6  C   UNL     1       4.511  -3.437  -1.310  0.00  0.00    +0.032 C 
ATOM      7  C   UNL     1       7.378  -5.168  -0.097  0.00  0.00    +0.218 A 
ATOM      8  N   UNL     1       8.023  -5.298   1.053  0.00  0.00    -0.222 NA
ATOM      9  C   UNL     1       9.323  -5.542   1.075  0.00  0.00    +0.131 A 
ATOM     10  C   UNL     1      10.009  -5.661  -0.124  0.00  0.00    +0.054 A 
ATOM     11  C   UNL     1       9.303  -5.518  -1.309  0.00  0.00    +0.131 A 
ATOM     12  N   UNL     1       8.002  -5.280  -1.260  0.00  0.00    -0.222 NA
ATOM     13 BR   UNL     1      11.868  -6.009  -0.144  0.00  0.00    -0.047 Br
ENDROOT
BRANCH   1  21
ATOM     14  C   UNL     1      -0.017   1.373   0.010  0.00  0.00    +0.002 A 
ATOM     15  C   UNL     1       1.170   2.091   0.002  0.00  0.00    +0.004 A 
ATOM     16  C   UNL     1       2.384   1.437  -0.013  0.00  0.00    +0.048 A 
ATOM     17  C   UNL     1       2.421   0.051  -0.021  0.00  0.00    +0.155 A 
ATOM     18  C   UNL     1       1.223  -0.680  -0.013  0.00  0.00    +0.110 A 
ATOM     19  C   UNL     1       0.002  -0.004   0.002  0.00  0.00    +0.031 A 
ATOM     20  N   UNL     1       1.572  -1.995  -0.024  0.00  0.00    -0.213 NA
ATOM     21  C   UNL     1       2.868  -2.084  -0.037  0.00  0.00    +0.200 A 
ATOM     22  O   UNL     1       3.419  -0.860  -0.036  0.00  0.00    -0.439 OA
ENDBRANCH   1  21
TORSDOF 1
