REMARK  Name = ZINC09934827
REMARK  7 active torsions:
REMARK  status: ('A' for Active; 'I' for Inactive)
REMARK    1  A    between atoms: C_1  and  N_48
REMARK    2  A    between atoms: C_7  and  N_11
REMARK    3  A    between atoms: C_8  and  C_9
REMARK    4  A    between atoms: C_12  and  C_13
REMARK    5  A    between atoms: C_15  and  N_20
REMARK    6  A    between atoms: C_18  and  O_19
REMARK    7  A    between atoms: N_21  and  C_22
REMARK                            x       y       z     vdW  Elec       q    Type
REMARK                         _______ _______ _______ _____ _____    ______ ____
ROOT
ATOM      1  C   UNL     1       5.731   6.266  -0.723  0.00  0.00    +0.037 A 
ATOM      2  C   UNL     1       5.518   7.601  -1.069  0.00  0.00    +0.042 A 
ATOM      3  C   UNL     1       6.606   8.465  -1.192  0.00  0.00    +0.087 A 
ATOM      4  C   UNL     1       7.906   7.988  -0.979  0.00  0.00    +0.033 A 
ATOM      5  C   UNL     1       8.116   6.669  -0.643  0.00  0.00    +0.048 A 
ATOM      6  C   UNL     1       7.041   5.800  -0.512  0.00  0.00    +0.126 A 
ENDROOT
BRANCH   1   8
ATOM      7  N   UNL     1       4.794   4.098  -0.266  0.00  0.00    -0.246 NA
ATOM      8  C   UNL     1       4.591   5.349  -0.586  0.00  0.00    +0.123 C 
BRANCH   7  15
ATOM      9  C   UNL     1      -1.349  -0.550   0.188  0.00  0.00    -0.096 C 
ATOM     10  C   UNL     1       0.922  -0.514   1.028  0.00  0.00    -0.074 C 
ATOM     11  C   UNL     1       2.372  -0.254   0.613  0.00  0.00    +0.019 C 
ATOM     12  C   UNL     1       2.510   1.226   0.261  0.00  0.00    -0.021 A 
ATOM     13  C   UNL     1       1.396   1.958  -0.001  0.00  0.00    -0.020 A 
ATOM     14  S   UNL     1       2.003   3.585  -0.350  0.00  0.00    -0.075 S 
ATOM     15  C   UNL     1       3.746   3.255  -0.140  0.00  0.00    +0.119 A 
ATOM     16  C   UNL     1       3.742   1.894   0.191  0.00  0.00    +0.088 A 
ATOM     17  C   UNL     1      -0.018   1.471   0.010  0.00  0.00    -0.036 C 
ATOM     18  N   UNL     1       0.013  -0.011  -0.021  0.00  0.00    +0.381 N 
ATOM     19  H   UNL     1       0.356  -0.320  -0.938  0.00  0.00    -0.082 HD
BRANCH  16  20
ATOM     20  C   UNL     1       4.967   1.200   0.450  0.00  0.00    +0.102 C 
ATOM     21  N   UNL     1       5.939   0.649   0.655  0.00  0.00    -0.191 NA
ENDBRANCH  16  20
ENDBRANCH   7  15
ENDBRANCH   1   8
BRANCH   6  22
ATOM     22  O   UNL     1       7.254   4.503  -0.181  0.00  0.00    -0.506 OA
ATOM     23  H   UNL     1       7.380   3.919  -0.942  0.00  0.00    +0.292 HD
ENDBRANCH   6  22
BRANCH   3  24
ATOM     24  N   UNL     1       6.405   9.774  -1.524  0.00  0.00    -0.149 NA
ATOM     25  N   UNL     1       7.412  10.572  -1.642  0.00  0.00    -0.149 NA
BRANCH  25  26
ATOM     26  C   UNL     1       7.210  11.882  -1.975  0.00  0.00    +0.087 A 
ATOM     27  C   UNL     1       5.915  12.360  -2.194  0.00  0.00    +0.029 A 
ATOM     28  C   UNL     1       5.719  13.684  -2.525  0.00  0.00    +0.003 A 
ATOM     29  C   UNL     1       6.801  14.538  -2.651  0.00  0.00    +0.015 A 
ATOM     30  C   UNL     1       8.087  14.071  -2.441  0.00  0.00    +0.020 A 
ATOM     31  C   UNL     1       8.299  12.749  -2.104  0.00  0.00    +0.044 A 
ATOM     32 BR   UNL     1       9.558  15.246  -2.615  0.00  0.00    -0.050 Br
ENDBRANCH  25  26
ENDBRANCH   3  24
TORSDOF 6
