REMARK  Name = ZINC05649535
REMARK  4 active torsions:
REMARK  status: ('A' for Active; 'I' for Inactive)
REMARK    1  A    between atoms: C_6  and  C_7
REMARK    2  A    between atoms: C_7  and  C_8
REMARK    3  A    between atoms: C_13  and  N_15
REMARK    4  A    between atoms: N_15  and  C_16
REMARK                            x       y       z     vdW  Elec       q    Type
REMARK                         _______ _______ _______ _____ _____    ______ ____
ROOT
ATOM      1  C   UNL     1      -2.006  -0.740  -0.783  0.00  0.00    +0.146 C 
ATOM      2  C   UNL     1      -3.184  -1.654  -1.099  0.00  0.00    +0.252 C 
ATOM      3  O   UNL     1      -3.250  -2.795  -0.684  0.00  0.00    -0.272 OA
ATOM      4  N   UNL     1      -4.116  -1.127  -1.844  0.00  0.00    -0.156 NA
ATOM      5  C   UNL     1      -4.088   0.111  -2.318  0.00  0.00    +0.171 C 
ATOM      6  S   UNL     1      -2.546   0.769  -1.692  0.00  0.00    -0.078 S 
ENDROOT
BRANCH   1   7
ATOM      7  C   UNL     1      -1.891  -0.475   0.720  0.00  0.00    +0.059 C 
BRANCH   7  13
ATOM      8  C   UNL     1      -0.863   1.791   0.988  0.00  0.00    +0.005 A 
ATOM      9  C   UNL     1       0.224   2.610   1.230  0.00  0.00    +0.020 A 
ATOM     10  C   UNL     1       1.469   2.055   1.467  0.00  0.00    +0.041 A 
ATOM     11  C   UNL     1       1.625   0.680   1.462  0.00  0.00    +0.020 A 
ATOM     12  C   UNL     1       0.538  -0.138   1.220  0.00  0.00    +0.005 A 
ATOM     13  C   UNL     1      -0.706   0.417   0.983  0.00  0.00    -0.046 A 
ATOM     14 CL   UNL     1       2.834   3.083   1.771  0.00  0.00    -0.084 Cl
ENDBRANCH   7  13
ENDBRANCH   1   7
BRANCH   5  15
ATOM     15  N   UNL     1      -5.016   0.737  -3.100  0.00  0.00    -0.192 NA
BRANCH  15  16
ATOM     16  C   UNL     1      -6.259   0.136  -3.326  0.00  0.00    +0.056 A 
ATOM     17  C   UNL     1      -6.994   0.463  -4.458  0.00  0.00    +0.026 A 
ATOM     18  C   UNL     1      -8.221  -0.132  -4.679  0.00  0.00    +0.022 A 
ATOM     19  C   UNL     1      -8.719  -1.052  -3.773  0.00  0.00    +0.041 A 
ATOM     20  C   UNL     1      -7.989  -1.378  -2.643  0.00  0.00    +0.022 A 
ATOM     21  C   UNL     1      -6.758  -0.791  -2.421  0.00  0.00    +0.026 A 
ATOM     22 CL   UNL     1     -10.261  -1.797  -4.053  0.00  0.00    -0.084 Cl
ENDBRANCH  15  16
ENDBRANCH   5  15
TORSDOF 4
