REMARK  Name = ZINC38989922
REMARK  6 active torsions:
REMARK  status: ('A' for Active; 'I' for Inactive)
REMARK    1  A    between atoms: C_4  and  N_7
REMARK    2  A    between atoms: C_8  and  C_10
REMARK    3  A    between atoms: C_10  and  S_11
REMARK    4  A    between atoms: S_11  and  C_12
REMARK    5  A    between atoms: C_15  and  C_19
REMARK    6  A    between atoms: N_17  and  N_18
REMARK                            x       y       z     vdW  Elec       q    Type
REMARK                         _______ _______ _______ _____ _____    ______ ____
ROOT
ATOM      1  C   UNL     1       5.590  -4.218  -4.945  0.00  0.00    +0.189 C 
ATOM      2  N   UNL     1       5.622  -3.448  -5.979  0.00  0.00    -0.161 NA
ATOM      3  N   UNL     1       6.311  -4.044  -7.042  0.00  0.00    -0.243 N 
ATOM      4  C   UNL     1       6.750  -5.364  -6.557  0.00  0.00    +0.222 C 
ATOM      5  N   UNL     1       6.250  -5.416  -5.173  0.00  0.00    -0.223 N 
ATOM      6  H   UNL     1       6.468  -3.665  -7.921  0.00  0.00    +0.170 HD
ENDROOT
BRANCH   4   7
ATOM      7  C   UNL     1       8.277  -5.465  -6.579  0.00  0.00    +0.197 C 
ATOM      8  C   UNL     1       8.808  -5.249  -7.981  0.00  0.00    -0.017 C 
ATOM      9  C   UNL     1       9.573  -4.163  -7.891  0.00  0.00    +0.065 C 
ATOM     10  C   UNL     1      10.170  -3.840  -9.249  0.00  0.00    +0.057 C 
ATOM     11  C   UNL     1      10.001  -5.130 -10.081  0.00  0.00    +0.011 C 
ATOM     12  C   UNL     1       8.790  -5.794  -9.386  0.00  0.00    +0.035 C 
ATOM     13  N   UNL     1       9.569  -3.699  -6.612  0.00  0.00    -0.158 NA
ATOM     14  N   UNL     1       8.883  -4.356  -5.822  0.00  0.00    -0.176 NA
ENDBRANCH   4   7
BRANCH   5  15
ATOM     15  N   UNL     1       6.405  -6.445  -4.287  0.00  0.00    -0.250 NA
ATOM     16  H   UNL     1       5.965  -6.231  -3.404  0.00  0.00    +0.141 HD
ATOM     17  H   UNL     1       6.048  -7.308  -4.669  0.00  0.00    +0.141 HD
ENDBRANCH   5  15
BRANCH   1  18
ATOM     18  S   UNL     1       4.808  -3.796  -3.423  0.00  0.00    -0.078 S 
BRANCH  18  19
ATOM     19  C   UNL     1       4.130  -2.140  -3.723  0.00  0.00    +0.172 C 
BRANCH  19  21
ATOM     20  N   UNL     1       2.839  -0.440  -2.473  0.00  0.00    -0.312 N 
ATOM     21  C   UNL     1       3.424  -1.655  -2.483  0.00  0.00    +0.224 C 
ATOM     22  O   UNL     1       3.383  -2.356  -1.495  0.00  0.00    -0.275 OA
ATOM     23  H   UNL     1       2.872   0.121  -3.264  0.00  0.00    +0.149 HD
BRANCH  20  27
ATOM     24  C   UNL     1      -0.019   1.526   0.010  0.00  0.00    +0.000 C 
ATOM     25  C   UNL     1       1.417   2.055  -0.000  0.00  0.00    +0.002 C 
ATOM     26  C   UNL     1       2.133   1.562  -1.259  0.00  0.00    +0.022 C 
ATOM     27  C   UNL     1       2.154   0.032  -1.268  0.00  0.00    +0.073 C 
ATOM     28  C   UNL     1       0.718  -0.497  -1.257  0.00  0.00    +0.022 C 
ATOM     29  C   UNL     1       0.002  -0.004   0.002  0.00  0.00    +0.002 C 
ENDBRANCH  20  27
ENDBRANCH  19  21
ENDBRANCH  18  19
ENDBRANCH   1  18
TORSDOF 6
