REMARK  Name = ZINC15150320
REMARK  14 active torsions:
REMARK  status: ('A' for Active; 'I' for Inactive)
REMARK    1  A    between atoms: C_1  and  C_2
REMARK    2  A    between atoms: C_2  and  N_3
REMARK    3  A    between atoms: N_3  and  C_4
REMARK    4  A    between atoms: N_3  and  S_6
REMARK    5  A    between atoms: C_4  and  C_5
REMARK    6  A    between atoms: S_6  and  C_9
REMARK    7  A    between atoms: C_11  and  N_29
REMARK    8  A    between atoms: C_14  and  N_15
REMARK    9  A    between atoms: N_15  and  N_16
REMARK   10  A    between atoms: N_16  and  C_17
REMARK   11  A    between atoms: C_17  and  N_19
REMARK   12  A    between atoms: N_19  and  C_20
REMARK   13  A    between atoms: C_21  and  C_28
REMARK   14  A    between atoms: C_23  and  C_27
REMARK                            x       y       z     vdW  Elec       q    Type
REMARK                         _______ _______ _______ _____ _____    ______ ____
ROOT
ATOM      1  C   UNL     1      -4.037   1.760  -1.135  0.00  0.00    +0.130 A 
ATOM      2  C   UNL     1      -5.330   1.307  -1.312  0.00  0.00    +0.063 A 
ATOM      3  C   UNL     1      -5.606  -0.046  -1.236  0.00  0.00    +0.128 A 
ATOM      4  C   UNL     1      -4.589  -0.950  -0.990  0.00  0.00    +0.035 A 
ATOM      5  C   UNL     1      -3.293  -0.504  -0.817  0.00  0.00    +0.028 A 
ATOM      6  C   UNL     1      -3.013   0.855  -0.892  0.00  0.00    +0.071 A 
ENDROOT
BRANCH   1   7
ATOM      7  S   UNL     1      -3.688   3.485  -1.223  0.00  0.00    +0.063 S 
ATOM      8  O   UNL     1      -2.512   3.621  -2.009  0.00  0.00    -0.153 OA
ATOM      9  O   UNL     1      -4.908   4.130  -1.559  0.00  0.00    -0.153 OA
BRANCH   7  10
ATOM     10  N   UNL     1      -3.295   3.984   0.307  0.00  0.00    -0.177 NA
BRANCH  10  12
ATOM     11  C   UNL     1      -1.702   5.811   0.635  0.00  0.00    +0.022 C 
ATOM     12  C   UNL     1      -1.903   4.294   0.641  0.00  0.00    +0.106 C 
ENDBRANCH  10  12
BRANCH  10  13
ATOM     13  C   UNL     1      -4.340   4.115   1.325  0.00  0.00    +0.106 C 
ATOM     14  C   UNL     1      -4.407   2.831   2.155  0.00  0.00    +0.022 C 
ENDBRANCH  10  13
ENDBRANCH   7  10
ENDBRANCH   1   7
BRANCH   3  15
ATOM     15  N   UNL     1      -6.994  -0.528  -1.420  0.00  0.00    +0.056 N 
ATOM     16  O   UNL     1      -7.239  -1.719  -1.354  0.00  0.00    -0.126 OA
ATOM     17  O   UNL     1      -7.891   0.267  -1.637  0.00  0.00    -0.126 OA
ENDBRANCH   3  15
BRANCH   6  18
ATOM     18  N   UNL     1      -1.703   1.309  -0.718  0.00  0.00    -0.263 N 
ATOM     19  H   UNL     1      -1.522   2.261  -0.675  0.00  0.00    +0.170 HD
BRANCH  18  20
ATOM     20  N   UNL     1      -0.652   0.390  -0.605  0.00  0.00    -0.248 N 
ATOM     21  H   UNL     1      -0.820  -0.557  -0.732  0.00  0.00    +0.172 HD
BRANCH  20  22
ATOM     22  C   UNL     1       0.593   0.822  -0.324  0.00  0.00    +0.151 C 
ATOM     23  S   UNL     1       1.863  -0.306  -0.112  0.00  0.00    -0.017 S 
BRANCH  22  24
ATOM     24  N   UNL     1       0.839   2.143  -0.210  0.00  0.00    -0.294 N 
ATOM     25  H   UNL     1       1.191   2.637  -0.967  0.00  0.00    +0.154 HD
BRANCH  24  26
ATOM     26  C   UNL     1       0.586   2.800   0.999  0.00  0.00    +0.054 A 
ATOM     27  C   UNL     1       1.053   4.092   1.200  0.00  0.00    -0.028 A 
ATOM     28  C   UNL     1       0.802   4.738   2.395  0.00  0.00    +0.008 A 
ATOM     29  C   UNL     1       0.086   4.100   3.391  0.00  0.00    -0.049 A 
ATOM     30  C   UNL     1      -0.381   2.813   3.195  0.00  0.00    +0.025 A 
ATOM     31  C   UNL     1      -0.138   2.163   2.000  0.00  0.00    +0.063 A 
ATOM     32 CL   UNL     1      -0.731   0.550   1.751  0.00  0.00    -0.082 Cl
ATOM     33  C   UNL     1      -0.185   4.808   4.693  0.00  0.00    +0.044 C 
ATOM     34  C   UNL     1       1.834   4.789   0.116  0.00  0.00    +0.046 C 
ENDBRANCH  24  26
ENDBRANCH  22  24
ENDBRANCH  20  22
ENDBRANCH  18  20
ENDBRANCH   6  18
TORSDOF 10
