REMARK  Name = ZINC09065680
REMARK  9 active torsions:
REMARK  status: ('A' for Active; 'I' for Inactive)
REMARK    1  A    between atoms: C_1  and  C_2
REMARK    2  A    between atoms: C_2  and  O_3
REMARK    3  A    between atoms: O_3  and  C_4
REMARK    4  A    between atoms: N_13  and  C_14
REMARK    5  A    between atoms: C_14  and  C_15
REMARK    6  A    between atoms: C_21  and  C_23
REMARK    7  A    between atoms: N_28  and  S_29
REMARK    8  A    between atoms: S_29  and  C_32
REMARK    9  A    between atoms: C_35  and  C_38
REMARK                            x       y       z     vdW  Elec       q    Type
REMARK                         _______ _______ _______ _____ _____    ______ ____
ROOT
ATOM      1  C   UNL     1       0.056  -4.869  -0.739  0.00  0.00    +0.147 A 
ATOM      2  C   UNL     1       0.086  -6.101  -1.350  0.00  0.00    +0.048 A 
ATOM      3  C   UNL     1       0.730  -6.291  -2.563  0.00  0.00    +0.005 A 
ATOM      4  C   UNL     1       1.358  -5.220  -3.173  0.00  0.00    +0.017 A 
ATOM      5  C   UNL     1       1.334  -3.986  -2.571  0.00  0.00    +0.044 A 
ATOM      6  C   UNL     1       0.689  -3.750  -1.338  0.00  0.00    +0.122 A 
ATOM      7  N   UNL     1       0.759  -2.483  -0.872  0.00  0.00    -0.221 NA
ATOM      8  C   UNL     1       1.374  -1.526  -1.524  0.00  0.00    +0.168 A 
ATOM      9  S   UNL     1       1.982  -2.380  -2.972  0.00  0.00    -0.052 S 
ATOM     10  N   UNL     1       1.522  -0.192  -1.176  0.00  0.00    -0.247 N 
ATOM     11  C   UNL     1       0.985   0.268  -0.029  0.00  0.00    +0.240 C 
ATOM     12  O   UNL     1       0.422  -0.496   0.727  0.00  0.00    -0.273 OA
ENDROOT
BRANCH  11  13
ATOM     13  C   UNL     1       1.084   1.732   0.316  0.00  0.00    +0.166 C 
ATOM     14  C   UNL     1       2.189   1.963   1.376  0.00  0.00    +0.031 C 
ATOM     15  C   UNL     1       1.722   3.291   2.028  0.00  0.00    +0.019 C 
ATOM     16  C   UNL     1       0.184   3.165   2.007  0.00  0.00    +0.110 C 
ATOM     17  N   UNL     1      -0.160   2.193   0.960  0.00  0.00    -0.165 NA
BRANCH  17  18
ATOM     18  S   UNL     1      -1.690   1.698   0.567  0.00  0.00    +0.062 S 
ATOM     19  O   UNL     1      -2.536   2.829   0.728  0.00  0.00    -0.153 OA
ATOM     20  O   UNL     1      -1.587   0.993  -0.663  0.00  0.00    -0.153 OA
BRANCH  18  21
ATOM     21  C   UNL     1      -2.186   0.522   1.781  0.00  0.00    +0.106 A 
ATOM     22  C   UNL     1      -2.082  -0.831   1.516  0.00  0.00    +0.029 A 
ATOM     23  C   UNL     1      -2.466  -1.754   2.471  0.00  0.00    +0.005 A 
ATOM     24  C   UNL     1      -2.963  -1.324   3.687  0.00  0.00    -0.050 A 
ATOM     25  C   UNL     1      -3.072   0.028   3.950  0.00  0.00    +0.005 A 
ATOM     26  C   UNL     1      -2.683   0.951   2.998  0.00  0.00    +0.029 A 
ATOM     27  C   UNL     1      -3.386  -2.331   4.726  0.00  0.00    +0.044 C 
ENDBRANCH  18  21
ENDBRANCH  17  18
ENDBRANCH  11  13
BRANCH   1  28
ATOM     28  O   UNL     1      -0.588  -4.722   0.449  0.00  0.00    -0.490 OA
BRANCH  28  30
ATOM     29  C   UNL     1      -1.874  -5.529   2.329  0.00  0.00    +0.048 C 
ATOM     30  C   UNL     1      -1.206  -5.887   1.000  0.00  0.00    +0.226 C 
ENDBRANCH  28  30
ENDBRANCH   1  28
BRANCH  10  31
ATOM     31  C   UNL     1       2.261   0.717  -2.055  0.00  0.00    +0.147 C 
BRANCH  31  32
ATOM     32  C   UNL     1       3.707   0.834  -1.568  0.00  0.00    +0.136 C 
ATOM     33  C   UNL     1       4.484   1.854  -2.430  0.00  0.00    +0.035 C 
ATOM     34  C   UNL     1       5.898   1.242  -2.553  0.00  0.00    +0.031 C 
ATOM     35  C   UNL     1       5.807  -0.075  -1.750  0.00  0.00    +0.160 C 
ATOM     36  O   UNL     1       4.404  -0.417  -1.758  0.00  0.00    -0.375 OA
ENDBRANCH  31  32
ENDBRANCH  10  31
TORSDOF 7
