REMARK  Name = ZINC34733382
REMARK  9 active torsions:
REMARK  status: ('A' for Active; 'I' for Inactive)
REMARK    1  A    between atoms: C_1  and  C_2
REMARK    2  A    between atoms: C_2  and  C_3
REMARK    3  A    between atoms: C_4  and  C_32
REMARK    4  A    between atoms: N_11  and  C_28
REMARK    5  A    between atoms: N_14  and  C_17
REMARK    6  A    between atoms: C_17  and  C_18
REMARK    7  A    between atoms: N_20  and  C_21
REMARK    8  A    between atoms: C_26  and  C_27
REMARK    9  A    between atoms: C_28  and  C_29
REMARK                            x       y       z     vdW  Elec       q    Type
REMARK                         _______ _______ _______ _____ _____    ______ ____
ROOT
ATOM      1  C   UNL     1       0.682  -0.510  -1.228  0.00  0.00    -0.040 C 
ATOM      2  C   UNL     1       1.958  -0.844  -1.271  0.00  0.00    -0.064 C 
ATOM      3  C   UNL     1       2.264  -1.280  -2.687  0.00  0.00    +0.073 C 
ATOM      4  C   UNL     1       0.966  -1.137  -3.422  0.00  0.00    +0.004 A 
ATOM      5  C   UNL     1       0.023  -0.685  -2.554  0.00  0.00    +0.003 A 
ATOM      6  C   UNL     1      -1.334  -0.489  -3.109  0.00  0.00    +0.078 A 
ATOM      7  C   UNL     1      -2.544  -0.009  -2.411  0.00  0.00    +0.266 A 
ATOM      8  O   UNL     1      -2.500   0.282  -1.230  0.00  0.00    -0.267 OA
ATOM      9  N   UNL     1      -3.695   0.102  -3.098  0.00  0.00    -0.251 N 
ATOM     10  C   UNL     1      -3.777  -0.212  -4.402  0.00  0.00    +0.334 A 
ATOM     11  O   UNL     1      -4.841  -0.094  -4.978  0.00  0.00    -0.246 OA
ATOM     12  N   UNL     1      -2.701  -0.654  -5.084  0.00  0.00    -0.278 N 
ATOM     13  C   UNL     1      -1.494  -0.794  -4.457  0.00  0.00    +0.098 A 
ATOM     14  S   UNL     1       0.121  -1.314  -4.969  0.00  0.00    -0.074 S 
ATOM     15  C   UNL     1       2.931  -0.799  -0.122  0.00  0.00    +0.039 C 
ENDROOT
BRANCH   1  17
ATOM     16  C   UNL     1      -0.033   1.512   0.017  0.00  0.00    +0.009 C 
ATOM     17  C   UNL     1      -0.024  -0.018   0.009  0.00  0.00    +0.032 C 
ENDBRANCH   1  17
BRANCH  12  18
ATOM     18  C   UNL     1      -2.827  -0.987  -6.505  0.00  0.00    +0.223 C 
BRANCH  18  19
ATOM     19  C   UNL     1      -2.537   0.237  -7.335  0.00  0.00    +0.237 C 
ATOM     20  O   UNL     1      -2.254   1.285  -6.793  0.00  0.00    -0.274 OA
ATOM     21  N   UNL     1      -2.593   0.168  -8.680  0.00  0.00    -0.284 N 
ATOM     22  H   UNL     1      -2.740  -0.685  -9.116  0.00  0.00    +0.155 HD
BRANCH  21  23
ATOM     23  C   UNL     1      -2.438   1.328  -9.447  0.00  0.00    +0.036 A 
ATOM     24  C   UNL     1      -2.738   2.569  -8.900  0.00  0.00    +0.023 A 
ATOM     25  C   UNL     1      -2.584   3.712  -9.660  0.00  0.00    +0.002 A 
ATOM     26  C   UNL     1      -2.133   3.622 -10.964  0.00  0.00    +0.000 A 
ATOM     27  C   UNL     1      -1.834   2.388 -11.511  0.00  0.00    +0.005 A 
ATOM     28  C   UNL     1      -1.979   1.242 -10.755  0.00  0.00    -0.029 A 
ATOM     29  C   UNL     1      -1.646  -0.102 -11.350  0.00  0.00    +0.045 C 
ENDBRANCH  21  23
ENDBRANCH  18  19
ENDBRANCH  12  18
BRANCH   9  30
ATOM     30  C   UNL     1      -4.895   0.578  -2.405  0.00  0.00    +0.225 C 
BRANCH  30  31
ATOM     31  C   UNL     1      -4.972   2.080  -2.509  0.00  0.00    +0.231 C 
ATOM     32  O   UNL     1      -4.111   2.692  -3.104  0.00  0.00    -0.274 OA
ATOM     33  N   UNL     1      -5.999   2.743  -1.941  0.00  0.00    -0.328 N 
ATOM     34  H   UNL     1      -6.689   2.253  -1.465  0.00  0.00    +0.145 HD
ATOM     35  H   UNL     1      -6.049   3.709  -2.009  0.00  0.00    +0.145 HD
ENDBRANCH  30  31
ENDBRANCH   9  30
TORSDOF 6
