REMARK  Name = ZINC39556253
REMARK  5 active torsions:
REMARK  status: ('A' for Active; 'I' for Inactive)
REMARK    1  A    between atoms: C_5  and  C_7
REMARK    2  A    between atoms: C_7  and  N_8
REMARK    3  A    between atoms: C_12  and  C_13
REMARK    4  A    between atoms: N_15  and  C_22
REMARK    5  A    between atoms: C_22  and  C_23
REMARK                            x       y       z     vdW  Elec       q    Type
REMARK                         _______ _______ _______ _____ _____    ______ ____
ROOT
ATOM      1  C   UNL     1       4.864  -3.747   3.614  0.00  0.00    +0.002 A 
ATOM      2  C   UNL     1       5.325  -3.335   2.395  0.00  0.00    +0.095 A 
ATOM      3  N   UNL     1       6.672  -3.489   2.340  0.00  0.00    -0.342 N 
ATOM      4  C   UNL     1       7.146  -4.011   3.526  0.00  0.00    +0.050 A 
ATOM      5  C   UNL     1       6.045  -4.191   4.379  0.00  0.00    +0.007 A 
ATOM      6  C   UNL     1       6.230  -4.703   5.660  0.00  0.00    +0.010 A 
ATOM      7  C   UNL     1       7.499  -5.030   6.087  0.00  0.00    +0.001 A 
ATOM      8  C   UNL     1       8.588  -4.850   5.248  0.00  0.00    +0.002 A 
ATOM      9  C   UNL     1       8.418  -4.351   3.974  0.00  0.00    +0.026 A 
ENDROOT
BRANCH   1  14
ATOM     10  N   UNL     1       1.884  -0.782   2.937  0.00  0.00    -0.216 N 
ATOM     11  C   UNL     1       3.009  -1.511   3.072  0.00  0.00    +0.269 C 
ATOM     12  O   UNL     1       4.125  -1.196   2.697  0.00  0.00    -0.268 OA
ATOM     13  C   UNL     1       2.649  -2.716   3.733  0.00  0.00    +0.098 C 
ATOM     14  C   UNL     1       3.475  -3.743   4.073  0.00  0.00    +0.038 C 
ATOM     15  N   UNL     1       1.267  -2.630   3.964  0.00  0.00    -0.265 N 
ATOM     16  C   UNL     1       0.848  -1.448   3.475  0.00  0.00    +0.313 C 
ATOM     17  O   UNL     1      -0.298  -1.044   3.511  0.00  0.00    -0.252 OA
ATOM     18  H   UNL     1       0.716  -3.298   4.400  0.00  0.00    +0.157 HD
BRANCH  10  19
ATOM     19  C   UNL     1       1.803   0.538   2.307  0.00  0.00    +0.156 C 
BRANCH  19  24
ATOM     20  C   UNL     1       1.163   3.255   4.849  0.00  0.00    +0.000 A 
ATOM     21  C   UNL     1       2.449   3.566   5.253  0.00  0.00    +0.003 A 
ATOM     22  C   UNL     1       3.526   2.897   4.705  0.00  0.00    +0.038 A 
ATOM     23  C   UNL     1       3.319   1.915   3.750  0.00  0.00    +0.128 A 
ATOM     24  C   UNL     1       2.031   1.605   3.346  0.00  0.00    +0.006 A 
ATOM     25  C   UNL     1       0.955   2.276   3.896  0.00  0.00    +0.008 A 
ATOM     26  F   UNL     1       4.372   1.261   3.213  0.00  0.00    -0.205 F 
ENDBRANCH  19  24
ENDBRANCH  10  19
ENDBRANCH   1  14
BRANCH   3  27
ATOM     27  C   UNL     1       7.505  -3.150   1.183  0.00  0.00    +0.157 C 
BRANCH  27  28
ATOM     28  C   UNL     1       7.720  -4.381   0.341  0.00  0.00    -0.026 A 
ATOM     29  C   UNL     1       8.799  -5.210   0.591  0.00  0.00    +0.007 A 
ATOM     30  C   UNL     1       8.997  -6.339  -0.181  0.00  0.00    +0.022 A 
ATOM     31  C   UNL     1       8.116  -6.641  -1.204  0.00  0.00    +0.059 A 
ATOM     32  C   UNL     1       7.036  -5.812  -1.454  0.00  0.00    +0.060 A 
ATOM     33  C   UNL     1       6.836  -4.685  -0.677  0.00  0.00    +0.026 A 
ATOM     34 CL   UNL     1       5.930  -6.189  -2.737  0.00  0.00    -0.082 Cl
ATOM     35 CL   UNL     1       8.365  -8.059  -2.175  0.00  0.00    -0.082 Cl
ENDBRANCH  27  28
ENDBRANCH   3  27
TORSDOF 5
