REMARK  Name = ZINC06321025
REMARK  6 active torsions:
REMARK  status: ('A' for Active; 'I' for Inactive)
REMARK    1  A    between atoms: C_1  and  C_2
REMARK    2  A    between atoms: C_6  and  C_15
REMARK    3  A    between atoms: C_13  and  C_14
REMARK    4  A    between atoms: C_15  and  C_17
REMARK    5  A    between atoms: C_15  and  N_66
REMARK    6  A    between atoms: N_21  and  C_22
REMARK                            x       y       z     vdW  Elec       q    Type
REMARK                         _______ _______ _______ _____ _____    ______ ____
ROOT
ATOM      1  C   UNL     1      -4.986   3.842   0.069  0.00  0.00    +0.039 C 
ENDROOT
BRANCH   1   7
ATOM      2  C   UNL     1       2.458   4.196  -0.215  0.00  0.00    +0.044 C 
ATOM      3  C   UNL     1       1.183   3.399  -0.120  0.00  0.00    -0.047 A 
ATOM      4  C   UNL     1      -0.021   4.045  -0.118  0.00  0.00    +0.013 A 
ATOM      5  C   UNL     1      -1.205   3.305  -0.030  0.00  0.00    -0.001 A 
ATOM      6  C   UNL     1      -2.512   3.964  -0.026  0.00  0.00    +0.017 A 
ATOM      7  C   UNL     1      -3.625   3.195   0.061  0.00  0.00    +0.011 A 
ATOM      8  C   UNL     1      -3.514   1.791   0.145  0.00  0.00    +0.251 A 
ATOM      9  O   UNL     1      -4.528   1.118   0.223  0.00  0.00    -0.268 OA
ATOM     10  N   UNL     1      -2.318   1.176   0.142  0.00  0.00    -0.322 N 
ATOM     11  H   UNL     1      -2.278   0.208   0.201  0.00  0.00    +0.169 HD
ATOM     12  C   UNL     1      -1.149   1.900   0.050  0.00  0.00    +0.049 A 
ATOM     13  C   UNL     1       0.088   1.265   0.051  0.00  0.00    +0.030 A 
ATOM     14  C   UNL     1       1.242   2.015  -0.036  0.00  0.00    -0.046 A 
ATOM     15  C   UNL     1       2.581   1.324  -0.040  0.00  0.00    +0.044 C 
ENDBRANCH   1   7
BRANCH   1  22
ATOM     16  C   UNL     1      -7.150   3.830   1.175  0.00  0.00    -0.077 C 
ATOM     17  C   UNL     1      -7.890   3.621   2.468  0.00  0.00    -0.019 C 
ATOM     18  C   UNL     1      -7.808   4.921   3.295  0.00  0.00    -0.002 C 
ATOM     19  C   UNL     1      -6.520   5.068   3.963  0.00  0.00    -0.002 C 
ATOM     20  C   UNL     1      -5.348   5.134   2.962  0.00  0.00    -0.019 C 
ATOM     21  C   UNL     1      -5.040   3.737   2.496  0.00  0.00    -0.077 C 
ATOM     22  N   UNL     1      -5.734   3.329   1.227  0.00  0.00    +0.389 N 
ATOM     23  H   UNL     1      -5.751   2.304   1.183  0.00  0.00    -0.080 HD
ENDBRANCH   1  22
BRANCH   1  24
ATOM     24  C   UNL     1      -5.729   3.464  -1.187  0.00  0.00    +0.143 A 
ATOM     25  N   UNL     1      -6.320   2.320  -1.432  0.00  0.00    -0.115 NA
ATOM     26  N   UNL     1      -6.842   2.386  -2.608  0.00  0.00    -0.023 NA
ATOM     27  N   UNL     1      -6.599   3.542  -3.119  0.00  0.00    -0.044 NA
ATOM     28  N   UNL     1      -5.920   4.238  -2.272  0.00  0.00    -0.227 N 
BRANCH  28  29
ATOM     29  C   UNL     1      -5.442   5.610  -2.456  0.00  0.00    +0.111 C 
ATOM     30  C   UNL     1      -6.637   6.540  -2.679  0.00  0.00    +0.027 C 
ATOM     31  C   UNL     1      -6.139   7.974  -2.872  0.00  0.00    +0.002 C 
ATOM     32  C   UNL     1      -5.213   8.032  -4.089  0.00  0.00    +0.000 C 
ATOM     33  C   UNL     1      -4.018   7.103  -3.866  0.00  0.00    +0.002 C 
ATOM     34  C   UNL     1      -4.517   5.669  -3.673  0.00  0.00    +0.027 C 
ENDBRANCH  28  29
ENDBRANCH   1  24
TORSDOF 4
