REMARK  Name = ZINC13032931
REMARK  12 active torsions:
REMARK  status: ('A' for Active; 'I' for Inactive)
REMARK    1  A    between atoms: C_1  and  C_2
REMARK    2  A    between atoms: C_7  and  C_15
REMARK    3  A    between atoms: C_13  and  C_14
REMARK    4  A    between atoms: C_15  and  N_64
REMARK    5  A    between atoms: C_16  and  C_17
REMARK    6  A    between atoms: C_16  and  N_64
REMARK    7  A    between atoms: C_20  and  O_23
REMARK    8  A    between atoms: O_23  and  C_24
REMARK    9  A    between atoms: C_25  and  C_26
REMARK   10  A    between atoms: C_25  and  N_64
REMARK   11  A    between atoms: N_30  and  C_31
REMARK   12  A    between atoms: C_31  and  C_32
REMARK                            x       y       z     vdW  Elec       q    Type
REMARK                         _______ _______ _______ _____ _____    ______ ____
ROOT
ATOM      1  N   UNL     1       1.100  -2.460  -1.454  0.00  0.00    +0.390 N 
ATOM      2  H   UNL     1       1.800  -2.009  -2.055  0.00  0.00    -0.080 HD
ENDROOT
BRANCH   1   3
ATOM      3  C   UNL     1      -0.246  -2.199  -2.006  0.00  0.00    -0.036 C 
BRANCH   3  10
ATOM      4  C   UNL     1      -0.766  -5.249  -9.357  0.00  0.00    +0.044 C 
ATOM      5  C   UNL     1      -0.764  -4.873  -7.898  0.00  0.00    -0.046 A 
ATOM      6  C   UNL     1      -1.264  -5.765  -6.959  0.00  0.00    +0.004 A 
ATOM      7  C   UNL     1      -1.272  -5.444  -5.631  0.00  0.00    +0.010 A 
ATOM      8  C   UNL     1      -0.772  -4.207  -5.214  0.00  0.00    -0.001 A 
ATOM      9  C   UNL     1      -0.760  -3.832  -3.798  0.00  0.00    +0.017 A 
ATOM     10  C   UNL     1      -0.269  -2.617  -3.453  0.00  0.00    +0.001 A 
ATOM     11  C   UNL     1       0.228  -1.744  -4.445  0.00  0.00    +0.251 A 
ATOM     12  O   UNL     1       0.670  -0.657  -4.113  0.00  0.00    -0.268 OA
ATOM     13  N   UNL     1       0.226  -2.080  -5.747  0.00  0.00    -0.322 N 
ATOM     14  H   UNL     1       0.575  -1.456  -6.402  0.00  0.00    +0.169 HD
ATOM     15  C   UNL     1      -0.265  -3.299  -6.163  0.00  0.00    +0.052 A 
ATOM     16  C   UNL     1      -0.267  -3.648  -7.510  0.00  0.00    -0.024 A 
ATOM     17  C   UNL     1       0.271  -2.689  -8.540  0.00  0.00    +0.046 C 
ENDBRANCH   3  10
ENDBRANCH   1   3
BRANCH   1  18
ATOM     18  C   UNL     1       1.205  -1.899  -0.091  0.00  0.00    -0.042 C 
BRANCH  18  19
ATOM     19  C   UNL     1       1.182  -0.395  -0.181  0.00  0.00    -0.064 A 
ATOM     20  C   UNL     1      -0.001   0.291   0.020  0.00  0.00    +0.005 A 
ATOM     21  C   UNL     1      -0.025   1.670  -0.062  0.00  0.00    +0.046 A 
ATOM     22  C   UNL     1       1.141   2.366  -0.347  0.00  0.00    +0.120 A 
ATOM     23  C   UNL     1       2.327   1.676  -0.549  0.00  0.00    +0.046 A 
ATOM     24  C   UNL     1       2.345   0.297  -0.466  0.00  0.00    +0.005 A 
BRANCH  22  25
ATOM     25  O   UNL     1       1.121   3.723  -0.429  0.00  0.00    -0.495 OA
ATOM     26  C   UNL     1       2.358   4.373  -0.727  0.00  0.00    +0.277 C 
ENDBRANCH  22  25
ENDBRANCH  18  19
ENDBRANCH   1  18
BRANCH   1  27
ATOM     27  C   UNL     1       1.360  -3.915  -1.423  0.00  0.00    +0.001 C 
BRANCH  27  28
ATOM     28  C   UNL     1       2.806  -4.143  -1.068  0.00  0.00    +0.136 A 
ATOM     29  N   UNL     1       3.813  -4.227  -1.903  0.00  0.00    -0.115 NA
ATOM     30  N   UNL     1       4.885  -4.423  -1.216  0.00  0.00    -0.023 NA
ATOM     31  N   UNL     1       4.588  -4.473   0.035  0.00  0.00    -0.044 NA
ATOM     32  N   UNL     1       3.315  -4.304   0.167  0.00  0.00    -0.224 N 
BRANCH  32  33
ATOM     33  C   UNL     1       2.565  -4.292   1.426  0.00  0.00    +0.221 C 
BRANCH  33  34
ATOM     34  C   UNL     1       2.111  -5.690   1.754  0.00  0.00    +0.126 A 
ATOM     35  C   UNL     1       2.801  -6.593   2.474  0.00  0.00    +0.046 A 
ATOM     36  C   UNL     1       2.007  -7.761   2.538  0.00  0.00    +0.041 A 
ATOM     37  C   UNL     1       0.882  -7.505   1.845  0.00  0.00    +0.195 A 
ATOM     38  O   UNL     1       0.951  -6.249   1.373  0.00  0.00    -0.466 OA
ENDBRANCH  33  34
ENDBRANCH  32  33
ENDBRANCH  27  28
ENDBRANCH   1  27
TORSDOF 9
