REMARK  Name = ZINC16091237
REMARK  12 active torsions:
REMARK  status: ('A' for Active; 'I' for Inactive)
REMARK    1  A    between atoms: C_1  and  C_2
REMARK    2  A    between atoms: C_2  and  C_3
REMARK    3  A    between atoms: C_3  and  C_5
REMARK    4  A    between atoms: C_3  and  C_6
REMARK    5  A    between atoms: C_6  and  C_7
REMARK    6  A    between atoms: C_8  and  C_32
REMARK    7  A    between atoms: C_15  and  S_17
REMARK    8  A    between atoms: S_17  and  C_18
REMARK    9  A    between atoms: C_18  and  C_19
REMARK   10  A    between atoms: N_21  and  C_22
REMARK   11  A    between atoms: C_23  and  C_31
REMARK   12  A    between atoms: C_27  and  N_28
REMARK                            x       y       z     vdW  Elec       q    Type
REMARK                         _______ _______ _______ _____ _____    ______ ____
ROOT
ATOM      1  C   UNL     1       1.812  -1.176  -2.466  0.00  0.00    -0.023 A 
ATOM      2  C   UNL     1       1.296  -0.645  -3.586  0.00  0.00    -0.007 A 
ATOM      3  S   UNL     1       2.741  -0.223  -4.542  0.00  0.00    -0.075 S 
ATOM      4  C   UNL     1       3.988  -0.773  -3.408  0.00  0.00    +0.092 A 
ATOM      5  C   UNL     1       3.254  -1.260  -2.322  0.00  0.00    +0.075 A 
ATOM      6  C   UNL     1       4.062  -1.791  -1.198  0.00  0.00    +0.282 A 
ATOM      7  O   UNL     1       3.514  -2.244  -0.205  0.00  0.00    -0.265 OA
ATOM      8  N   UNL     1       5.395  -1.768  -1.283  0.00  0.00    -0.185 NA
ATOM      9  C   UNL     1       6.027  -1.290  -2.333  0.00  0.00    +0.171 A 
ATOM     10  N   UNL     1       5.349  -0.796  -3.408  0.00  0.00    -0.328 N 
ATOM     11  C   UNL     1      -0.154  -0.452  -3.948  0.00  0.00    +0.052 C 
ATOM     12  H   UNL     1       5.838  -0.449  -4.170  0.00  0.00    +0.168 HD
ENDROOT
BRANCH   1  13
ATOM     13  C   UNL     1       0.905  -1.672  -1.369  0.00  0.00    +0.040 C 
BRANCH  13  14
ATOM     14  C   UNL     1       0.615  -0.531  -0.392  0.00  0.00    -0.010 C 
ATOM     15  C   UNL     1      -0.178   0.564  -1.108  0.00  0.00    +0.008 C 
BRANCH  14  17
ATOM     16  C   UNL     1      -0.386   0.046   1.823  0.00  0.00    +0.004 C 
ATOM     17  C   UNL     1      -0.202  -1.064   0.786  0.00  0.00    +0.000 C 
ENDBRANCH  14  17
ENDBRANCH  13  14
ENDBRANCH   1  13
BRANCH   9  18
ATOM     18  S   UNL     1       7.789  -1.300  -2.357  0.00  0.00    -0.078 S 
BRANCH  18  19
ATOM     19  C   UNL     1       8.245  -2.042  -0.766  0.00  0.00    +0.173 C 
BRANCH  19  20
ATOM     20  C   UNL     1       9.747  -2.111  -0.656  0.00  0.00    +0.228 C 
ATOM     21  O   UNL     1      10.441  -1.701  -1.562  0.00  0.00    -0.275 OA
ATOM     22  N   UNL     1      10.318  -2.630   0.449  0.00  0.00    -0.283 N 
ATOM     23  H   UNL     1       9.767  -2.893   1.202  0.00  0.00    +0.155 HD
BRANCH  22  24
ATOM     24  C   UNL     1      11.707  -2.788   0.510  0.00  0.00    +0.067 A 
ATOM     25  C   UNL     1      12.376  -3.459  -0.505  0.00  0.00    -0.027 A 
ATOM     26  C   UNL     1      13.747  -3.614  -0.442  0.00  0.00    +0.005 A 
ATOM     27  C   UNL     1      14.454  -3.100   0.630  0.00  0.00    +0.003 A 
ATOM     28  C   UNL     1      13.791  -2.432   1.642  0.00  0.00    +0.034 A 
ATOM     29  C   UNL     1      12.420  -2.268   1.582  0.00  0.00    +0.148 A 
ATOM     30  C   UNL     1      11.607  -4.019  -1.674  0.00  0.00    +0.046 C 
BRANCH  29  31
ATOM     31  N   UNL     1      11.712  -1.546   2.663  0.00  0.00    +0.058 N 
ATOM     32  O   UNL     1      12.316  -1.188   3.647  0.00  0.00    -0.126 OA
ATOM     33  O   UNL     1      10.530  -1.314   2.561  0.00  0.00    -0.126 OA
ENDBRANCH  29  31
ENDBRANCH  22  24
ENDBRANCH  19  20
ENDBRANCH  18  19
ENDBRANCH   9  18
TORSDOF 8
