REMARK  Name = ZINC39674693
REMARK  7 active torsions:
REMARK  status: ('A' for Active; 'I' for Inactive)
REMARK    1  A    between atoms: C_1  and  C_2
REMARK    2  A    between atoms: C_4  and  C_14
REMARK    3  A    between atoms: C_7  and  C_12
REMARK    4  A    between atoms: C_14  and  C_15
REMARK    5  A    between atoms: C_15  and  N_16
REMARK    6  A    between atoms: C_17  and  C_19
REMARK    7  A    between atoms: C_30  and  C_32
REMARK                            x       y       z     vdW  Elec       q    Type
REMARK                         _______ _______ _______ _____ _____    ______ ____
ROOT
ATOM      1  C   UNL     1       1.238  -1.629  -7.109  0.00  0.00    +0.100 C 
ATOM      2  C   UNL     1      -0.143  -2.062  -7.650  0.00  0.00    +0.121 C 
ATOM      3  N   UNL     1       0.116  -2.478  -9.048  0.00  0.00    -0.296 N 
ATOM      4  C   UNL     1       1.415  -3.191  -8.987  0.00  0.00    +0.115 C 
ATOM      5  C   UNL     1       2.258  -2.373  -7.989  0.00  0.00    -0.004 C 
ATOM      6  C   UNL     1       3.138  -1.375  -8.735  0.00  0.00    -0.010 C 
ATOM      7  C   UNL     1       4.180  -2.138  -9.559  0.00  0.00    -0.082 C 
ATOM      8  N   UNL     1       4.997  -2.971  -8.668  0.00  0.00    +0.379 N 
ATOM      9  C   UNL     1       4.157  -3.987  -8.023  0.00  0.00    -0.082 C 
ATOM     10  C   UNL     1       3.114  -3.303  -7.135  0.00  0.00    -0.010 C 
ATOM     11  C   UNL     1      -0.654  -2.257 -10.132  0.00  0.00    +0.247 C 
ATOM     12  O   UNL     1      -1.634  -1.542 -10.046  0.00  0.00    -0.270 OA
ATOM     13  H   UNL     1       5.721  -3.425  -9.204  0.00  0.00    -0.086 HD
ATOM     14  H   UNL     1       5.420  -2.389  -7.960  0.00  0.00    -0.086 HD
ENDROOT
BRANCH  11  15
ATOM     15  C   UNL     1      -0.309  -2.885 -11.425  0.00  0.00    +0.037 A 
ATOM     16  C   UNL     1       0.515  -4.011 -11.459  0.00  0.00    +0.013 A 
ATOM     17  C   UNL     1       0.833  -4.593 -12.669  0.00  0.00    +0.001 A 
ATOM     18  C   UNL     1       0.338  -4.061 -13.847  0.00  0.00    +0.000 A 
ATOM     19  C   UNL     1      -0.478  -2.945 -13.820  0.00  0.00    +0.001 A 
ATOM     20  C   UNL     1      -0.809  -2.357 -12.616  0.00  0.00    +0.013 A 
ENDBRANCH  11  15
BRANCH   1  22
ATOM     21  N   UNL     1       2.158  -1.310  -4.835  0.00  0.00    -0.315 N 
ATOM     22  C   UNL     1       1.390  -2.041  -5.668  0.00  0.00    +0.218 C 
ATOM     23  O   UNL     1       0.822  -3.030  -5.257  0.00  0.00    -0.275 OA
ATOM     24  H   UNL     1       2.612  -0.519  -5.164  0.00  0.00    +0.149 HD
BRANCH  21  25
ATOM     25  C   UNL     1       2.305  -1.710  -3.433  0.00  0.00    +0.108 C 
BRANCH  25  26
ATOM     26  C   UNL     1       3.221  -0.719  -2.713  0.00  0.00    +0.052 C 
BRANCH  26  29
ATOM     27  C   UNL     1       5.665  -0.405  -0.608  0.00  0.00    +0.035 C 
ATOM     28  C   UNL     1       4.189  -0.432  -0.208  0.00  0.00    +0.103 C 
ATOM     29  C   UNL     1       3.373  -1.131  -1.272  0.00  0.00    -0.037 C 
ATOM     30  C   UNL     1       2.806  -2.205  -0.666  0.00  0.00    +0.000 A 
ATOM     31  C   UNL     1       1.943  -3.221  -1.153  0.00  0.00    +0.028 A 
ATOM     32  C   UNL     1       1.503  -4.216  -0.311  0.00  0.00    +0.052 A 
ATOM     33  C   UNL     1       1.906  -4.255   1.091  0.00  0.00    +0.021 A 
ATOM     34  C   UNL     1       2.724  -3.316   1.609  0.00  0.00    +0.027 A 
ATOM     35  C   UNL     1       3.221  -2.232   0.754  0.00  0.00    +0.043 A 
ATOM     36  N   UNL     1       4.011  -1.218   1.018  0.00  0.00    -0.378 N 
ATOM     37  H   UNL     1       4.412  -1.021   1.879  0.00  0.00    +0.160 HD
BRANCH  32  38
ATOM     38  C   UNL     1       0.633  -5.234  -0.820  0.00  0.00    +0.099 C 
ATOM     39  N   UNL     1      -0.056  -6.041  -1.224  0.00  0.00    -0.191 NA
ENDBRANCH  32  38
ENDBRANCH  26  29
ENDBRANCH  25  26
ENDBRANCH  21  25
ENDBRANCH   1  22
TORSDOF 6
