REMARK  Name = ZINC42738254
REMARK  6 active torsions:
REMARK  status: ('A' for Active; 'I' for Inactive)
REMARK    1  A    between atoms: C_1  and  C_2
REMARK    2  A    between atoms: N_11  and  C_12
REMARK    3  A    between atoms: C_12  and  C_13
REMARK    4  A    between atoms: C_13  and  C_14
REMARK    5  A    between atoms: C_14  and  N_15
REMARK    6  A    between atoms: C_17  and  N_22
REMARK                            x       y       z     vdW  Elec       q    Type
REMARK                         _______ _______ _______ _____ _____    ______ ____
ROOT
ATOM      1  C   UNL     1      -0.024  -0.105   2.394  0.00  0.00    -0.076 C 
ENDROOT
BRANCH   1  11
ATOM      2  C   UNL     1      -0.019   1.526   0.010  0.00  0.00    -0.008 C 
ATOM      3  C   UNL     1       0.002  -0.004   0.002  0.00  0.00    -0.040 C 
ATOM      4  C   UNL     1       0.722  -0.499  -1.248  0.00  0.00    -0.051 A 
ATOM      5  C   UNL     1       0.571   0.069  -2.511  0.00  0.00    +0.010 A 
ATOM      6  C   UNL     1       1.253  -0.435  -3.566  0.00  0.00    +0.045 A 
ATOM      7  S   UNL     1       2.167  -1.773  -2.810  0.00  0.00    -0.101 S 
ATOM      8  C   UNL     1       1.572  -1.560  -1.157  0.00  0.00    -0.010 A 
ATOM      9  C   UNL     1       1.893  -2.335   0.080  0.00  0.00    +0.024 C 
ATOM     10  C   UNL     1       0.853  -1.956   1.148  0.00  0.00    -0.073 C 
ATOM     11  N   UNL     1       0.718  -0.493   1.187  0.00  0.00    +0.384 N 
ATOM     12  H   UNL     1       1.637  -0.077   1.214  0.00  0.00    -0.081 HD
ENDBRANCH   1  11
BRANCH   1  13
ATOM     13  C   UNL     1       0.778  -0.502   3.635  0.00  0.00    +0.003 C 
BRANCH  13  14
ATOM     14  C   UNL     1       0.005  -0.098   4.892  0.00  0.00    +0.123 C 
BRANCH  14  15
ATOM     15  N   UNL     1       0.773  -0.478   6.080  0.00  0.00    -0.314 N 
ATOM     16  C   UNL     1       0.594  -1.708   6.632  0.00  0.00    +0.111 A 
ATOM     17  C   UNL     1       1.295  -2.081   7.734  0.00  0.00    +0.041 A 
ATOM     18  C   UNL     1       2.216  -1.190   8.312  0.00  0.00    +0.029 A 
ATOM     19  C   UNL     1       2.391   0.042   7.753  0.00  0.00    +0.072 A 
ATOM     20  C   UNL     1       1.653   0.393   6.611  0.00  0.00    +0.251 A 
ATOM     21  O   UNL     1       1.806   1.491   6.100  0.00  0.00    -0.268 OA
BRANCH  17  22
ATOM     22  N   UNL     1       1.101  -3.353   8.294  0.00  0.00    -0.357 N 
ATOM     23  H   UNL     1       0.465  -3.967   7.895  0.00  0.00    +0.142 HD
ATOM     24  H   UNL     1       1.603  -3.618   9.081  0.00  0.00    +0.142 HD
ENDBRANCH  17  22
ENDBRANCH  14  15
ENDBRANCH  13  14
ENDBRANCH   1  13
TORSDOF 5
