REMARK  Name = ZINC13131670
REMARK  4 active torsions:
REMARK  status: ('A' for Active; 'I' for Inactive)
REMARK    1  A    between atoms: C_1  and  O_2
REMARK    2  A    between atoms: O_2  and  C_3
REMARK    3  A    between atoms: C_7  and  C_9
REMARK    4  A    between atoms: C_12  and  C_21
REMARK                            x       y       z     vdW  Elec       q    Type
REMARK                         _______ _______ _______ _____ _____    ______ ____
ROOT
ATOM      1  C   UNL     1       1.325  -4.106  -2.289  0.00  0.00    +0.106 C 
ATOM      2  C   UNL     1       2.707  -4.596  -1.840  0.00  0.00    +0.059 C 
ATOM      3  C   UNL     1       3.793  -3.946  -2.707  0.00  0.00    +0.144 C 
ATOM      4  N   UNL     1       3.427  -4.099  -4.115  0.00  0.00    -0.224 N 
ATOM      5  C   UNL     1       2.175  -4.374  -4.552  0.00  0.00    +0.216 A 
ATOM      6  N   UNL     1       2.206  -4.444  -5.856  0.00  0.00    -0.180 NA
ATOM      7  C   UNL     1       3.456  -4.219  -6.287  0.00  0.00    +0.233 A 
ATOM      8  N   UNL     1       4.234  -4.002  -5.250  0.00  0.00    -0.132 NA
ATOM      9  N   UNL     1       3.865  -4.214  -7.621  0.00  0.00    -0.326 N 
ATOM     10  N   UNL     1       1.100  -4.534  -3.683  0.00  0.00    -0.307 N 
ATOM     11  H   UNL     1       3.221  -4.384  -8.326  0.00  0.00    +0.145 HD
ATOM     12  H   UNL     1       4.793  -4.041  -7.843  0.00  0.00    +0.145 HD
ATOM     13  H   UNL     1       0.253  -4.907  -3.973  0.00  0.00    +0.149 HD
ENDROOT
BRANCH   3  14
ATOM     14  C   UNL     1       5.115  -4.622  -2.450  0.00  0.00    -0.004 A 
ATOM     15  C   UNL     1       5.261  -5.974  -2.700  0.00  0.00    +0.008 A 
ATOM     16  C   UNL     1       6.473  -6.594  -2.465  0.00  0.00    +0.020 A 
ATOM     17  C   UNL     1       7.542  -5.862  -1.979  0.00  0.00    +0.042 A 
ATOM     18  C   UNL     1       7.397  -4.510  -1.729  0.00  0.00    +0.040 A 
ATOM     19  C   UNL     1       6.185  -3.888  -1.969  0.00  0.00    +0.048 A 
ATOM     20 CL   UNL     1       6.004  -2.189  -1.661  0.00  0.00    -0.083 Cl
ATOM     21 CL   UNL     1       9.065  -6.642  -1.683  0.00  0.00    -0.083 Cl
ENDBRANCH   3  14
BRANCH   1  26
ATOM     22  C   UNL     1       0.606  -0.607  -1.056  0.00  0.00    +0.120 A 
ATOM     23  C   UNL     1       1.173   0.161  -2.063  0.00  0.00    +0.045 A 
ATOM     24  C   UNL     1       1.786  -0.455  -3.136  0.00  0.00    +0.004 A 
ATOM     25  C   UNL     1       1.836  -1.835  -3.208  0.00  0.00    +0.006 A 
ATOM     26  C   UNL     1       1.271  -2.602  -2.207  0.00  0.00    -0.024 A 
ATOM     27  C   UNL     1       0.661  -1.991  -1.128  0.00  0.00    +0.051 A 
BRANCH  22  29
ATOM     28  C   UNL     1      -0.017   1.425   0.010  0.00  0.00    +0.277 C 
ATOM     29  O   UNL     1       0.002  -0.004   0.002  0.00  0.00    -0.495 OA
ENDBRANCH  22  29
ENDBRANCH   1  26
TORSDOF 3
