REMARK  Name = ZINC63985643
REMARK  10 active torsions:
REMARK  status: ('A' for Active; 'I' for Inactive)
REMARK    1  A    between atoms: C_1  and  C_2
REMARK    2  A    between atoms: C_2  and  N_3
REMARK    3  A    between atoms: C_7  and  C_9
REMARK    4  A    between atoms: C_9  and  N_10
REMARK    5  A    between atoms: C_11  and  C_13
REMARK    6  A    between atoms: N_16  and  C_18
REMARK    7  A    between atoms: C_18  and  C_19
REMARK    8  A    between atoms: C_19  and  O_20
REMARK    9  A    between atoms: O_20  and  C_21
REMARK   10  A    between atoms: C_26  and  C_28
REMARK                            x       y       z     vdW  Elec       q    Type
REMARK                         _______ _______ _______ _____ _____    ______ ____
ROOT
ATOM      1  C   UNL     1      -3.495  -1.308   3.776  0.00  0.00    +0.152 A 
ATOM      2  C   UNL     1      -4.434  -1.443   4.812  0.00  0.00    +0.023 A 
ATOM      3  C   UNL     1      -5.484  -0.656   4.472  0.00  0.00    +0.046 A 
ATOM      4  N   UNL     1      -5.185  -0.088   3.291  0.00  0.00    -0.265 N 
ATOM      5  N   UNL     1      -4.019  -0.470   2.899  0.00  0.00    -0.166 NA
ATOM      6  C   UNL     1      -6.726  -0.490   5.309  0.00  0.00    +0.074 C 
ATOM      7  C   UNL     1      -6.803  -1.648   6.312  0.00  0.00    +0.114 C 
ATOM      8  N   UNL     1      -5.484  -1.847   6.930  0.00  0.00    -0.295 N 
ATOM      9  C   UNL     1      -4.364  -2.271   6.068  0.00  0.00    +0.147 C 
ATOM     10  C   UNL     1      -5.301  -1.646   8.250  0.00  0.00    +0.242 C 
ATOM     11  O   UNL     1      -4.207  -1.815   8.743  0.00  0.00    -0.273 OA
ENDROOT
BRANCH  10  12
ATOM     12  C   UNL     1      -6.458  -1.213   9.113  0.00  0.00    +0.190 C 
ATOM     13  C   UNL     1      -6.967   0.138   8.663  0.00  0.00    +0.016 C 
ATOM     14  C   UNL     1      -6.810   0.969   9.719  0.00  0.00    -0.004 A 
ATOM     15  C   UNL     1      -7.108   2.392   9.917  0.00  0.00    +0.010 A 
ATOM     16  C   UNL     1      -6.832   2.959  11.114  0.00  0.00    +0.001 A 
ATOM     17  C   UNL     1      -6.271   2.224  12.166  0.00  0.00    +0.002 A 
ATOM     18  C   UNL     1      -5.969   0.912  12.060  0.00  0.00    +0.026 A 
ATOM     19  C   UNL     1      -6.217   0.214  10.846  0.00  0.00    +0.043 A 
ATOM     20  N   UNL     1      -6.016  -1.036  10.500  0.00  0.00    -0.370 N 
ATOM     21  H   UNL     1      -5.638  -1.727  11.066  0.00  0.00    +0.161 HD
ENDBRANCH  10  12
BRANCH   1  23
ATOM     22  N   UNL     1      -1.377  -1.737   2.629  0.00  0.00    -0.312 N 
ATOM     23  C   UNL     1      -2.177  -1.969   3.688  0.00  0.00    +0.264 C 
ATOM     24  O   UNL     1      -1.815  -2.723   4.571  0.00  0.00    -0.268 OA
ATOM     25  H   UNL     1      -1.666  -1.136   1.925  0.00  0.00    +0.149 HD
BRANCH  22  26
ATOM     26  C   UNL     1      -0.070  -2.393   2.541  0.00  0.00    +0.089 C 
BRANCH  26  31
ATOM     27  N   UNL     1       0.713  -0.491   1.192  0.00  0.00    +0.382 N 
ATOM     28  C   UNL     1       2.136  -0.100   1.116  0.00  0.00    -0.078 C 
ATOM     29  C   UNL     1       2.907  -1.290   1.740  0.00  0.00    -0.020 C 
ATOM     30  C   UNL     1       2.078  -2.500   1.235  0.00  0.00    -0.016 C 
ATOM     31  C   UNL     1       0.632  -1.962   1.251  0.00  0.00    -0.051 C 
ATOM     32  H   UNL     1       0.298  -0.094   2.022  0.00  0.00    -0.081 HD
BRANCH  27  34
ATOM     33  C   UNL     1      -0.019   1.526   0.010  0.00  0.00    -0.017 C 
ATOM     34  C   UNL     1       0.002  -0.004   0.002  0.00  0.00    -0.082 C 
ENDBRANCH  27  34
ENDBRANCH  26  31
ENDBRANCH  22  26
ENDBRANCH   1  23
BRANCH   4  35
ATOM     35  C   UNL     1      -6.056   0.836   2.560  0.00  0.00    +0.171 C 
BRANCH  35  36
ATOM     36  C   UNL     1      -5.756   2.272   2.995  0.00  0.00    +0.182 C 
BRANCH  36  37
ATOM     37  O   UNL     1      -6.605   3.173   2.282  0.00  0.00    -0.381 OA
ATOM     38  C   UNL     1      -6.404   4.548   2.616  0.00  0.00    +0.194 C 
ENDBRANCH  36  37
ENDBRANCH  35  36
ENDBRANCH   4  35
TORSDOF 8
