REMARK  Name = ZINC40729534
REMARK  5 active torsions:
REMARK  status: ('A' for Active; 'I' for Inactive)
REMARK    1  A    between atoms: C_4  and  C_7
REMARK    2  A    between atoms: C_7  and  C_8
REMARK    3  A    between atoms: C_15  and  N_29
REMARK    4  A    between atoms: C_16  and  N_20
REMARK    5  A    between atoms: N_20  and  C_21
REMARK                            x       y       z     vdW  Elec       q    Type
REMARK                         _______ _______ _______ _____ _____    ______ ____
ROOT
ATOM      1  C   UNL     1       4.266  -0.947   1.382  0.00  0.00    -0.004 C 
ATOM      2  C   UNL     1       3.263  -1.877   2.068  0.00  0.00    +0.023 C 
ATOM      3  C   UNL     1       3.697  -2.107   3.519  0.00  0.00    +0.107 C 
ATOM      4  N   UNL     1       5.080  -2.601   3.526  0.00  0.00    -0.314 N 
ATOM      5  C   UNL     1       6.110  -1.829   2.817  0.00  0.00    +0.107 C 
ATOM      6  C   UNL     1       5.649  -1.602   1.374  0.00  0.00    +0.023 C 
ATOM      7  C   UNL     1       5.409  -3.777   4.191  0.00  0.00    +0.147 A 
ATOM      8  C   UNL     1       5.894  -3.739   5.500  0.00  0.00    +0.106 A 
ATOM      9  C   UNL     1       6.209  -4.948   6.122  0.00  0.00    +0.149 A 
ATOM     10  N   UNL     1       6.036  -6.083   5.448  0.00  0.00    -0.219 NA
ATOM     11  C   UNL     1       5.575  -6.075   4.214  0.00  0.00    +0.225 A 
ATOM     12  N   UNL     1       5.260  -4.956   3.593  0.00  0.00    -0.219 NA
ENDROOT
BRANCH   8  13
ATOM     13  N   UNL     1       6.062  -2.517   6.172  0.00  0.00    -0.353 N 
ATOM     14  H   UNL     1       5.771  -1.691   5.756  0.00  0.00    +0.143 HD
ATOM     15  H   UNL     1       6.468  -2.500   7.053  0.00  0.00    +0.143 HD
ENDBRANCH   8  13
BRANCH   9  16
ATOM     16  N   UNL     1       6.696  -4.967   7.423  0.00  0.00    -0.296 N 
ATOM     17  H   UNL     1       6.738  -4.146   7.938  0.00  0.00    +0.154 HD
BRANCH  16  18
ATOM     18  C   UNL     1       7.127  -6.172   7.992  0.00  0.00    +0.068 A 
ATOM     19  C   UNL     1       7.554  -7.212   7.178  0.00  0.00    +0.029 A 
ATOM     20  C   UNL     1       7.979  -8.400   7.742  0.00  0.00    +0.040 A 
ATOM     21  C   UNL     1       7.979  -8.554   9.118  0.00  0.00    +0.126 A 
ATOM     22  C   UNL     1       7.553  -7.520   9.933  0.00  0.00    +0.078 A 
ATOM     23  C   UNL     1       7.132  -6.327   9.374  0.00  0.00    +0.147 A 
ATOM     24  F   UNL     1       6.721  -5.315  10.170  0.00  0.00    -0.203 F 
ATOM     25  F   UNL     1       8.395  -9.717   9.665  0.00  0.00    -0.205 F 
ENDBRANCH  16  18
ENDBRANCH   9  16
BRANCH   1  26
ATOM     26  C   UNL     1       3.818  -0.686  -0.058  0.00  0.00    +0.038 C 
BRANCH  26  30
ATOM     27  C   UNL     1       0.121   1.454  -0.035  0.00  0.00    +0.000 A 
ATOM     28  C   UNL     1       1.319   2.144  -0.037  0.00  0.00    +0.000 A 
ATOM     29  C   UNL     1       2.515   1.451  -0.044  0.00  0.00    +0.003 A 
ATOM     30  C   UNL     1       2.514   0.069  -0.049  0.00  0.00    -0.047 A 
ATOM     31  C   UNL     1       1.316  -0.621  -0.046  0.00  0.00    +0.003 A 
ATOM     32  C   UNL     1       0.119   0.071  -0.040  0.00  0.00    +0.000 A 
ENDBRANCH  26  30
ENDBRANCH   1  26
TORSDOF 5
