REMARK  Name = ZINC45620146
REMARK  2 active torsions:
REMARK  status: ('A' for Active; 'I' for Inactive)
REMARK    1  A    between atoms: C_3  and  C_6
REMARK    2  A    between atoms: C_16  and  C_18
REMARK                            x       y       z     vdW  Elec       q    Type
REMARK                         _______ _______ _______ _____ _____    ______ ____
ROOT
ATOM      1  C   UNL     1       3.986   1.923  -0.133  0.00  0.00    +0.144 C 
ATOM      2  C   UNL     1       4.647   1.729  -1.497  0.00  0.00    -0.012 A 
ATOM      3  C   UNL     1       4.462   2.603  -2.567  0.00  0.00    +0.013 A 
ATOM      4  C   UNL     1       5.076   2.366  -3.748  0.00  0.00    +0.046 A 
ATOM      5  S   UNL     1       5.971   0.859  -3.402  0.00  0.00    -0.101 S 
ATOM      6  C   UNL     1       5.463   0.662  -1.714  0.00  0.00    -0.003 A 
ATOM      7  C   UNL     1       5.840  -0.417  -0.751  0.00  0.00    +0.062 C 
ATOM      8  C   UNL     1       4.858  -0.388   0.430  0.00  0.00    +0.114 C 
ATOM      9  N   UNL     1       4.641   1.014   0.818  0.00  0.00    -0.284 N 
ATOM     10  C   UNL     1       5.037   1.460   2.026  0.00  0.00    +0.267 C 
ATOM     11  O   UNL     1       5.617   0.712   2.789  0.00  0.00    -0.268 OA
ENDROOT
BRANCH  10  12
ATOM     12  C   UNL     1       4.767   2.860   2.425  0.00  0.00    +0.145 A 
ATOM     13  C   UNL     1       5.315   3.362   3.604  0.00  0.00    +0.072 A 
ATOM     14  C   UNL     1       5.053   4.676   3.964  0.00  0.00    +0.025 A 
ATOM     15  C   UNL     1       4.253   5.442   3.132  0.00  0.00    +0.041 A 
ATOM     16  C   UNL     1       3.740   4.878   1.972  0.00  0.00    +0.130 A 
ATOM     17  N   UNL     1       4.009   3.630   1.652  0.00  0.00    -0.229 NA
ATOM     18 CL   UNL     1       2.737   5.833   0.926  0.00  0.00    -0.062 Cl
ATOM     19 CL   UNL     1       6.311   2.356   4.609  0.00  0.00    -0.081 Cl
ENDBRANCH  10  12
BRANCH   1  22
ATOM     20  C   UNL     1       0.186   1.903  -0.400  0.00  0.00    +0.008 A 
ATOM     21  C   UNL     1       1.460   2.435  -0.327  0.00  0.00    +0.013 A 
ATOM     22  C   UNL     1       2.518   1.594  -0.226  0.00  0.00    +0.015 A 
ATOM     23  S   UNL     1       1.723  -0.004  -0.232  0.00  0.00    -0.099 S 
ATOM     24  C   UNL     1       0.033   0.557  -0.369  0.00  0.00    +0.045 A 
ENDBRANCH   1  22
TORSDOF 2
