REMARK  Name = ZINC24843511
REMARK  13 active torsions:
REMARK  status: ('A' for Active; 'I' for Inactive)
REMARK    1  A    between atoms: C_1  and  C_2
REMARK    2  A    between atoms: C_2  and  O_3
REMARK    3  A    between atoms: O_3  and  C_4
REMARK    4  A    between atoms: C_4  and  C_6
REMARK    5  A    between atoms: C_7  and  C_15
REMARK    6  A    between atoms: C_12  and  C_14
REMARK    7  A    between atoms: C_15  and  O_16
REMARK    8  A    between atoms: O_16  and  C_17
REMARK    9  A    between atoms: C_17  and  C_19
REMARK   10  A    between atoms: C_19  and  C_21
REMARK   11  A    between atoms: C_19  and  N_22
REMARK   12  A    between atoms: N_22  and  S_23
REMARK   13  A    between atoms: S_23  and  C_26
REMARK                            x       y       z     vdW  Elec       q    Type
REMARK                         _______ _______ _______ _____ _____    ______ ____
ROOT
ATOM      1  O   UNL     1      -1.300  -1.646  -1.252  0.00  0.00    -0.457 OA
ENDROOT
BRANCH   1   2
ATOM      2  C   UNL     1      -2.384  -2.417  -1.428  0.00  0.00    +0.326 C 
ATOM      3  O   UNL     1      -3.275  -2.403  -0.612  0.00  0.00    -0.249 OA
BRANCH   2   4
ATOM      4  C   UNL     1      -2.491  -3.301  -2.644  0.00  0.00    +0.182 C 
ATOM      5  C   UNL     1      -2.440  -2.439  -3.907  0.00  0.00    +0.037 C 
BRANCH   4   6
ATOM      6  N   UNL     1      -3.757  -4.036  -2.604  0.00  0.00    -0.176 NA
ATOM      7  H   UNL     1      -4.612  -3.629  -2.044  0.00  0.00    +0.149 HD
BRANCH   6   8
ATOM      8  S   UNL     1      -3.836  -5.584  -3.187  0.00  0.00    +0.059 S 
ATOM      9  O   UNL     1      -5.171  -6.026  -2.986  0.00  0.00    -0.153 OA
ATOM     10  O   UNL     1      -3.224  -5.566  -4.470  0.00  0.00    -0.153 OA
BRANCH   8  11
ATOM     11  C   UNL     1      -2.814  -6.581  -2.155  0.00  0.00    +0.105 A 
ATOM     12  C   UNL     1      -1.478  -6.755  -2.466  0.00  0.00    +0.030 A 
ATOM     13  C   UNL     1      -0.675  -7.533  -1.654  0.00  0.00    +0.022 A 
ATOM     14  C   UNL     1      -1.210  -8.146  -0.535  0.00  0.00    +0.041 A 
ATOM     15  C   UNL     1      -2.548  -7.976  -0.227  0.00  0.00    +0.022 A 
ATOM     16  C   UNL     1      -3.349  -7.193  -1.037  0.00  0.00    +0.030 A 
ATOM     17 CL   UNL     1      -0.203  -9.129   0.482  0.00  0.00    -0.084 Cl
ENDBRANCH   8  11
ENDBRANCH   6   8
ENDBRANCH   4   6
ENDBRANCH   2   4
ENDBRANCH   1   2
BRANCH   1  18
ATOM     18  C   UNL     1      -1.265  -0.821  -0.058  0.00  0.00    +0.283 C 
BRANCH  18  20
ATOM     19  C   UNL     1       0.305   0.733   1.046  0.00  0.00    +0.077 C 
ATOM     20  C   UNL     1       0.018  -0.031  -0.030  0.00  0.00    +0.061 C 
ATOM     21  N   UNL     1       0.873  -0.100  -1.093  0.00  0.00    -0.269 N 
ATOM     22  C   UNL     1       2.033   0.565  -1.158  0.00  0.00    +0.304 C 
ATOM     23  O   UNL     1       2.728   0.439  -2.147  0.00  0.00    -0.252 OA
ATOM     24  N   UNL     1       2.456   1.367  -0.161  0.00  0.00    -0.292 N 
ATOM     25  C   UNL     1       1.606   1.510   1.032  0.00  0.00    +0.110 C 
ATOM     26  C   UNL     1       1.271   2.994   1.198  0.00  0.00    +0.033 C 
ATOM     27  H   UNL     1       0.621  -0.728  -1.961  0.00  0.00    +0.156 HD
ATOM     28  H   UNL     1       3.412   1.909  -0.224  0.00  0.00    +0.151 HD
BRANCH  19  29
ATOM     29  C   UNL     1      -0.581   0.810   2.145  0.00  0.00    +0.339 C 
ATOM     30  O   UNL     1      -1.669   0.268   2.089  0.00  0.00    -0.245 OA
BRANCH  29  31
ATOM     31  O   UNL     1      -0.221   1.484   3.257  0.00  0.00    -0.462 OA
BRANCH  31  33
ATOM     32  C   UNL     1      -0.584   2.325   5.494  0.00  0.00    +0.048 C 
ATOM     33  C   UNL     1      -1.165   1.521   4.329  0.00  0.00    +0.229 C 
ENDBRANCH  31  33
ENDBRANCH  29  31
ENDBRANCH  19  29
ENDBRANCH  18  20
ENDBRANCH   1  18
TORSDOF 10
