REMARK  Name = ZINC24750978
REMARK  9 active torsions:
REMARK  status: ('A' for Active; 'I' for Inactive)
REMARK    1  A    between atoms: C_1  and  C_2
REMARK    2  A    between atoms: C_5  and  C_7
REMARK    3  A    between atoms: C_10  and  C_12
REMARK    4  A    between atoms: C_12  and  N_13
REMARK    5  A    between atoms: N_13  and  C_14
REMARK    6  A    between atoms: C_15  and  C_17
REMARK    7  A    between atoms: C_22  and  N_23
REMARK    8  A    between atoms: N_23  and  S_24
REMARK    9  A    between atoms: S_24  and  C_27
REMARK                            x       y       z     vdW  Elec       q    Type
REMARK                         _______ _______ _______ _____ _____    ______ ____
ROOT
ATOM      1  C   UNL     1      -4.080  -4.615  -2.701  0.00  0.00    +0.059 A 
ATOM      2  C   UNL     1      -3.905  -5.290  -1.490  0.00  0.00    +0.015 A 
ATOM      3  C   UNL     1      -3.492  -6.604  -1.490  0.00  0.00    +0.001 A 
ATOM      4  C   UNL     1      -3.250  -7.263  -2.685  0.00  0.00    +0.002 A 
ATOM      5  C   UNL     1      -3.418  -6.610  -3.889  0.00  0.00    +0.025 A 
ATOM      6  C   UNL     1      -3.839  -5.286  -3.910  0.00  0.00    +0.060 A 
ENDROOT
BRANCH   1   9
ATOM      7  N   UNL     1      -4.277  -2.420  -1.644  0.00  0.00    -0.293 N 
ATOM      8  C   UNL     1      -3.535  -2.947  -0.497  0.00  0.00    +0.133 C 
ATOM      9  C   UNL     1      -4.522  -3.208  -2.709  0.00  0.00    +0.249 C 
ATOM     10  O   UNL     1      -5.106  -2.760  -3.677  0.00  0.00    -0.270 OA
BRANCH   7  11
ATOM     11  C   UNL     1      -4.755  -1.035  -1.634  0.00  0.00    +0.182 C 
BRANCH  11  15
ATOM     12  C   UNL     1      -1.964   1.196  -2.390  0.00  0.00    +0.109 A 
ATOM     13  C   UNL     1      -2.467   1.054  -3.630  0.00  0.00    +0.045 A 
ATOM     14  C   UNL     1      -3.582   0.192  -3.524  0.00  0.00    +0.046 A 
ATOM     15  C   UNL     1      -3.700  -0.135  -2.224  0.00  0.00    +0.122 A 
ATOM     16  O   UNL     1      -2.717   0.476  -1.542  0.00  0.00    -0.463 OA
BRANCH  12  20
ATOM     17  C   UNL     1       1.823   1.806  -1.697  0.00  0.00    +0.008 C 
ATOM     18  C   UNL     1       0.417   1.306  -1.361  0.00  0.00    -0.003 C 
ATOM     19  C   UNL     1      -0.478   2.223  -0.524  0.00  0.00    +0.015 C 
ATOM     20  C   UNL     1      -0.764   2.026  -2.015  0.00  0.00    +0.058 C 
ENDBRANCH  12  20
ENDBRANCH  11  15
ENDBRANCH   7  11
ENDBRANCH   1   9
BRANCH   6  21
ATOM     21  N   UNL     1      -4.015  -4.629  -5.121  0.00  0.00    -0.216 N 
ATOM     22  H   UNL     1      -3.761  -3.562  -5.209  0.00  0.00    +0.174 HD
BRANCH  21  23
ATOM     23  S   UNL     1      -4.606  -5.451  -6.431  0.00  0.00    +0.072 S 
ATOM     24  O   UNL     1      -4.815  -4.488  -7.455  0.00  0.00    -0.150 OA
ATOM     25  O   UNL     1      -3.769  -6.585  -6.611  0.00  0.00    -0.150 OA
BRANCH  23  26
ATOM     26  C   UNL     1      -6.197  -6.065  -5.986  0.00  0.00    +0.111 A 
ATOM     27  C   UNL     1      -6.316  -7.319  -5.410  0.00  0.00    +0.031 A 
ATOM     28  C   UNL     1      -7.557  -7.807  -5.053  0.00  0.00    +0.030 A 
ATOM     29  C   UNL     1      -8.691  -7.042  -5.283  0.00  0.00    +0.067 A 
ATOM     30  C   UNL     1      -8.572  -5.780  -5.868  0.00  0.00    +0.069 A 
ATOM     31  C   UNL     1      -7.320  -5.296  -6.218  0.00  0.00    +0.056 A 
ATOM     32  N   UNL     1      -9.860  -5.261  -5.970  0.00  0.00    -0.306 N 
ATOM     33  H   UNL     1     -10.018  -4.263  -6.407  0.00  0.00    +0.170 HD
ATOM     34  C   UNL     1     -10.723  -6.165  -5.470  0.00  0.00    +0.325 A 
ATOM     35  O   UNL     1     -11.930  -6.022  -5.409  0.00  0.00    -0.247 OA
ATOM     36  N   UNL     1     -10.048  -7.250  -5.047  0.00  0.00    -0.306 N 
ATOM     37  H   UNL     1     -10.389  -8.189  -4.586  0.00  0.00    +0.170 HD
ENDBRANCH  23  26
ENDBRANCH  21  23
ENDBRANCH   6  21
TORSDOF 7
