REMARK  Name = ZINC26726166
REMARK  7 active torsions:
REMARK  status: ('A' for Active; 'I' for Inactive)
REMARK    1  A    between atoms: C_1  and  C_2
REMARK    2  A    between atoms: C_4  and  S_25
REMARK    3  A    between atoms: C_6  and  N_9
REMARK    4  A    between atoms: C_7  and  C_8
REMARK    5  A    between atoms: C_10  and  C_12
REMARK    6  A    between atoms: C_12  and  N_13
REMARK    7  A    between atoms: S_25  and  N_28
REMARK                            x       y       z     vdW  Elec       q    Type
REMARK                         _______ _______ _______ _____ _____    ______ ____
ROOT
ATOM      1  N   UNL     1      -3.629   0.621   3.539  0.00  0.00    -0.284 N 
ATOM      2  C   UNL     1      -3.963  -0.537   2.934  0.00  0.00    +0.235 C 
ATOM      3  O   UNL     1      -3.549  -0.781   1.821  0.00  0.00    -0.274 OA
ATOM      4  H   UNL     1      -3.946   0.812   4.574  0.00  0.00    +0.155 HD
ENDROOT
BRANCH   1  10
ATOM      5  C   UNL     1      -2.599   5.343   2.637  0.00  0.00    +0.044 C 
ATOM      6  C   UNL     1      -2.359   3.875   2.392  0.00  0.00    -0.044 A 
ATOM      7  C   UNL     1      -1.393   3.475   1.486  0.00  0.00    +0.032 A 
ATOM      8  C   UNL     1      -1.174   2.130   1.254  0.00  0.00    +0.107 A 
ATOM      9  C   UNL     1      -1.913   1.181   1.935  0.00  0.00    +0.052 A 
ATOM     10  C   UNL     1      -2.879   1.579   2.848  0.00  0.00    +0.038 A 
ATOM     11  C   UNL     1      -3.101   2.932   3.075  0.00  0.00    -0.026 A 
ATOM     12  C   UNL     1      -4.149   3.369   4.065  0.00  0.00    +0.046 C 
BRANCH   8  13
ATOM     13  S   UNL     1       0.052   1.625   0.095  0.00  0.00    +0.056 S 
ATOM     14  O   UNL     1       0.444   0.310   0.464  0.00  0.00    -0.153 OA
ATOM     15  O   UNL     1       0.981   2.696  -0.006  0.00  0.00    -0.153 OA
BRANCH  13  16
ATOM     16  N   UNL     1      -0.690   1.501  -1.380  0.00  0.00    -0.204 NA
ATOM     17  H   UNL     1       0.046   1.186  -2.135  0.00  0.00    +0.144 HD
ATOM     18  H   UNL     1      -1.110   2.477  -1.663  0.00  0.00    +0.144 HD
ENDBRANCH  13  16
ENDBRANCH   8  13
ENDBRANCH   1  10
BRANCH   2  19
ATOM     19  C   UNL     1      -4.851  -1.527   3.642  0.00  0.00    +0.201 C 
BRANCH  19  20
ATOM     20  N   UNL     1      -4.876  -2.788   2.889  0.00  0.00    -0.319 N 
ATOM     21  C   UNL     1      -3.519  -3.227   2.556  0.00  0.00    +0.106 C 
ATOM     22  C   UNL     1      -3.607  -4.559   1.800  0.00  0.00    +0.024 C 
ATOM     23  C   UNL     1      -4.098  -5.626   2.781  0.00  0.00    +0.039 C 
ATOM     24  C   UNL     1      -5.293  -5.106   3.540  0.00  0.00    -0.021 A 
ATOM     25  C   UNL     1      -5.617  -3.761   3.566  0.00  0.00    +0.069 A 
ATOM     26  C   UNL     1      -6.731  -3.337   4.295  0.00  0.00    +0.147 A 
ATOM     27  C   UNL     1      -7.506  -4.250   4.980  0.00  0.00    +0.078 A 
ATOM     28  C   UNL     1      -7.180  -5.596   4.947  0.00  0.00    +0.126 A 
ATOM     29  C   UNL     1      -6.077  -6.019   4.228  0.00  0.00    +0.044 A 
ATOM     30  F   UNL     1      -7.938  -6.493   5.614  0.00  0.00    -0.205 F 
ATOM     31  F   UNL     1      -7.051  -2.025   4.329  0.00  0.00    -0.203 F 
ENDBRANCH  19  20
ENDBRANCH   2  19
TORSDOF 5
