REMARK  Name = ZINC24509762
REMARK  7 active torsions:
REMARK  status: ('A' for Active; 'I' for Inactive)
REMARK    1  A    between atoms: C_1  and  C_2
REMARK    2  A    between atoms: C_16  and  C_17
REMARK    3  A    between atoms: C_17  and  O_19
REMARK    4  A    between atoms: O_19  and  C_20
REMARK    5  A    between atoms: C_20  and  C_21
REMARK    6  A    between atoms: N_26  and  C_27
REMARK    7  A    between atoms: C_27  and  C_28
REMARK                            x       y       z     vdW  Elec       q    Type
REMARK                         _______ _______ _______ _____ _____    ______ ____
ROOT
ATOM      1  C   UNL     1      -1.130  -0.933   0.007  0.00  0.00    +0.347 C 
ATOM      2  O   UNL     1      -2.268  -0.505   0.020  0.00  0.00    -0.244 OA
ENDROOT
BRANCH   1  18
ATOM      3  C   UNL     1      -1.331   2.098   0.020  0.00  0.00    +0.046 C 
ATOM      4  C   UNL     1      -0.016   1.361   0.009  0.00  0.00    -0.015 A 
ATOM      5  C   UNL     1       1.185   2.072   0.002  0.00  0.00    +0.076 A 
ATOM      6  C   UNL     1       2.363   1.290  -0.017  0.00  0.00    +0.116 A 
ATOM      7  N   UNL     1       3.570   1.842  -0.031  0.00  0.00    -0.226 NA
ATOM      8  C   UNL     1       3.733   3.135  -0.034  0.00  0.00    +0.114 A 
ATOM      9  N   UNL     1       2.671   3.991  -0.012  0.00  0.00    -0.296 N 
ATOM     10  C   UNL     1       1.406   3.536   0.011  0.00  0.00    +0.263 A 
ATOM     11  O   UNL     1       0.465   4.309   0.038  0.00  0.00    -0.267 OA
ATOM     12  C   UNL     1       2.942   5.435  -0.016  0.00  0.00    +0.126 C 
ATOM     13  C   UNL     1       3.399   5.855  -1.411  0.00  0.00    +0.022 C 
ATOM     14  C   UNL     1       4.908   5.743  -1.551  0.00  0.00    +0.002 C 
ATOM     15  C   UNL     1       5.387   4.305  -1.454  0.00  0.00    +0.008 C 
ATOM     16  C   UNL     1       5.123   3.729  -0.065  0.00  0.00    +0.074 C 
ATOM     17  S   UNL     1       1.748  -0.375  -0.017  0.00  0.00    -0.062 S 
ATOM     18  C   UNL     1       0.002  -0.004   0.002  0.00  0.00    +0.102 A 
ENDBRANCH   1  18
BRANCH   1  19
ATOM     19  O   UNL     1      -0.909  -2.264  -0.002  0.00  0.00    -0.451 OA
BRANCH  19  20
ATOM     20  C   UNL     1      -2.078  -3.126   0.004  0.00  0.00    +0.328 C 
BRANCH  20  21
ATOM     21  C   UNL     1      -1.639  -4.568  -0.007  0.00  0.00    +0.258 C 
ATOM     22  O   UNL     1      -0.459  -4.842  -0.020  0.00  0.00    -0.272 OA
ATOM     23  N   UNL     1      -2.560  -5.552  -0.004  0.00  0.00    -0.237 N 
ATOM     24  C   UNL     1      -2.168  -6.841  -0.015  0.00  0.00    +0.306 C 
ATOM     25  O   UNL     1      -0.984  -7.117  -0.027  0.00  0.00    -0.252 OA
ATOM     26  N   UNL     1      -3.088  -7.826  -0.011  0.00  0.00    -0.294 N 
ATOM     27  H   UNL     1      -3.631  -5.303   0.007  0.00  0.00    +0.159 HD
ATOM     28  H   UNL     1      -4.160  -7.577  -0.000  0.00  0.00    +0.151 HD
BRANCH  26  29
ATOM     29  C   UNL     1      -2.662  -9.227  -0.023  0.00  0.00    +0.148 C 
BRANCH  29  30
ATOM     30  C   UNL     1      -3.875 -10.122  -0.017  0.00  0.00    +0.007 A 
ATOM     31  C   UNL     1      -4.575 -10.618  -1.066  0.00  0.00    +0.013 A 
ATOM     32  C   UNL     1      -5.665 -11.431  -0.820  0.00  0.00    +0.008 A 
ATOM     33  C   UNL     1      -6.009 -11.699   0.464  0.00  0.00    +0.045 A 
ATOM     34  S   UNL     1      -4.767 -10.796   1.375  0.00  0.00    -0.100 S 
ENDBRANCH  29  30
ENDBRANCH  26  29
ENDBRANCH  20  21
ENDBRANCH  19  20
ENDBRANCH   1  19
TORSDOF 6
