REMARK  Name = ZINC13592237
REMARK  8 active torsions:
REMARK  status: ('A' for Active; 'I' for Inactive)
REMARK    1  A    between atoms: C_1  and  C_2
REMARK    2  A    between atoms: C_2  and  C_3
REMARK    3  A    between atoms: C_2  and  C_4
REMARK    4  A    between atoms: C_4  and  C_5
REMARK    5  A    between atoms: C_8  and  C_22
REMARK    6  A    between atoms: N_24  and  C_25
REMARK    7  A    between atoms: C_30  and  O_31
REMARK    8  A    between atoms: O_31  and  C_32
REMARK                            x       y       z     vdW  Elec       q    Type
REMARK                         _______ _______ _______ _____ _____    ______ ____
ROOT
ATOM      1  C   UNL     1      -1.456  -2.047  -0.098  0.00  0.00    +0.056 C 
ATOM      2  C   UNL     1      -2.891  -2.624   0.006  0.00  0.00    +0.034 C 
ATOM      3  C   UNL     1      -2.750  -3.962  -0.767  0.00  0.00    +0.110 C 
ATOM      4  C   UNL     1      -1.751  -3.609  -1.881  0.00  0.00    +0.135 C 
ATOM      5  N   UNL     1      -0.989  -2.430  -1.449  0.00  0.00    -0.296 NA
ATOM      6  C   UNL     1      -0.842  -4.772  -2.173  0.00  0.00    +0.005 A 
ATOM      7  C   UNL     1       0.068  -5.474  -1.414  0.00  0.00    +0.008 A 
ATOM      8  C   UNL     1       0.772  -6.525  -1.973  0.00  0.00    +0.002 A 
ATOM      9  C   UNL     1       0.560  -6.869  -3.296  0.00  0.00    +0.022 A 
ATOM     10  C   UNL     1      -0.350  -6.168  -4.061  0.00  0.00    +0.062 A 
ATOM     11  C   UNL     1      -1.063  -5.107  -3.504  0.00  0.00    +0.057 A 
ATOM     12  N   UNL     1      -2.020  -4.258  -4.064  0.00  0.00    -0.282 N 
ATOM     13  C   UNL     1      -2.473  -3.350  -3.179  0.00  0.00    +0.243 C 
ATOM     14  O   UNL     1      -3.302  -2.489  -3.386  0.00  0.00    -0.273 OA
ATOM     15 CL   UNL     1      -0.608  -6.609  -5.720  0.00  0.00    -0.082 Cl
ATOM     16  H   UNL     1      -1.102  -1.668  -2.101  0.00  0.00    +0.123 HD
ATOM     17  H   UNL     1      -2.324  -4.315  -4.983  0.00  0.00    +0.155 HD
ENDROOT
BRANCH   3  18
ATOM     18  C   UNL     1      -2.197  -5.041   0.128  0.00  0.00    +0.223 C 
ATOM     19  O   UNL     1      -1.389  -4.760   0.988  0.00  0.00    -0.275 OA
ATOM     20  N   UNL     1      -2.600  -6.318  -0.026  0.00  0.00    -0.282 N 
ATOM     21  H   UNL     1      -3.181  -6.557  -0.765  0.00  0.00    +0.155 HD
BRANCH  20  22
ATOM     22  C   UNL     1      -2.180  -7.300   0.881  0.00  0.00    +0.077 A 
ATOM     23  C   UNL     1      -1.990  -6.977   2.216  0.00  0.00    +0.047 A 
ATOM     24  C   UNL     1      -1.577  -7.948   3.110  0.00  0.00    +0.043 A 
ATOM     25  C   UNL     1      -1.351  -9.242   2.674  0.00  0.00    +0.024 A 
ATOM     26  C   UNL     1      -1.538  -9.570   1.344  0.00  0.00    +0.049 A 
ATOM     27  C   UNL     1      -1.958  -8.604   0.445  0.00  0.00    +0.141 A 
ATOM     28 CL   UNL     1      -1.339  -7.543   4.781  0.00  0.00    -0.083 Cl
BRANCH  27  29
ATOM     29  O   UNL     1      -2.149  -8.927  -0.863  0.00  0.00    -0.493 OA
ATOM     30  C   UNL     1      -1.902 -10.284  -1.238  0.00  0.00    +0.277 C 
ENDBRANCH  27  29
ENDBRANCH  20  22
ENDBRANCH   3  18
BRANCH   1  31
ATOM     31  C   UNL     1      -1.482  -0.524   0.044  0.00  0.00    +0.021 C 
BRANCH  31  33
ATOM     32  C   UNL     1      -0.081   1.545   0.042  0.00  0.00    +0.007 C 
ATOM     33  C   UNL     1      -0.051   0.015   0.025  0.00  0.00    -0.016 C 
ATOM     34  C   UNL     1       0.703  -0.493   1.256  0.00  0.00    +0.007 C 
ENDBRANCH  31  33
ENDBRANCH   1  31
TORSDOF 5
