REMARK  Name = ZINC39710480
REMARK  11 active torsions:
REMARK  status: ('A' for Active; 'I' for Inactive)
REMARK    1  A    between atoms: C_1  and  C_2
REMARK    2  A    between atoms: C_2  and  C_3
REMARK    3  A    between atoms: C_10  and  C_15
REMARK    4  A    between atoms: C_15  and  C_17
REMARK    5  A    between atoms: C_15  and  N_27
REMARK    6  A    between atoms: N_22  and  C_23
REMARK    7  A    between atoms: C_23  and  C_24
REMARK    8  A    between atoms: C_23  and  C_25
REMARK    9  A    between atoms: C_23  and  C_26
REMARK   10  A    between atoms: N_30  and  C_33
REMARK   11  A    between atoms: C_33  and  C_34
REMARK                            x       y       z     vdW  Elec       q    Type
REMARK                         _______ _______ _______ _____ _____    ______ ____
ROOT
ATOM      1  C   UNL     1      -5.489  -3.291  -3.407  0.00  0.00    -0.009 C 
ENDROOT
BRANCH   1   9
ATOM      2  C   UNL     1      -8.370  -4.066   1.607  0.00  0.00    -0.047 A 
ATOM      3  C   UNL     1      -9.316  -3.097   1.269  0.00  0.00    +0.005 A 
ATOM      4  C   UNL     1      -9.149  -2.243   0.226  0.00  0.00    +0.024 A 
ATOM      5  C   UNL     1      -7.991  -2.305  -0.570  0.00  0.00    +0.040 A 
ATOM      6  N   UNL     1      -7.838  -1.462  -1.591  0.00  0.00    -0.285 N 
ATOM      7  C   UNL     1      -6.775  -1.466  -2.378  0.00  0.00    +0.223 C 
ATOM      8  O   UNL     1      -6.692  -0.671  -3.295  0.00  0.00    -0.275 OA
ATOM      9  C   UNL     1      -5.665  -2.462  -2.133  0.00  0.00    +0.088 C 
ATOM     10  C   UNL     1      -5.833  -3.423  -0.973  0.00  0.00    -0.006 C 
ATOM     11  C   UNL     1      -6.975  -3.318  -0.235  0.00  0.00    -0.007 A 
ATOM     12  C   UNL     1      -7.216  -4.203   0.905  0.00  0.00    +0.013 A 
ATOM     13  H   UNL     1      -8.539  -0.814  -1.764  0.00  0.00    +0.155 HD
BRANCH   2  15
ATOM     14  C   UNL     1      -8.074  -4.336   4.055  0.00  0.00    +0.009 C 
ATOM     15  C   UNL     1      -8.632  -4.974   2.781  0.00  0.00    +0.032 C 
ENDBRANCH   2  15
ENDBRANCH   1   9
BRANCH   1  16
ATOM     16  N   UNL     1      -6.802  -3.757  -3.873  0.00  0.00    +0.386 N 
ATOM     17  C   UNL     1      -6.621  -4.879  -4.804  0.00  0.00    -0.063 C 
ATOM     18  C   UNL     1      -7.989  -5.377  -5.275  0.00  0.00    +0.066 C 
ATOM     19  N   UNL     1      -8.706  -4.278  -5.938  0.00  0.00    -0.302 NA
ATOM     20  C   UNL     1      -8.872  -3.138  -5.025  0.00  0.00    +0.066 C 
ATOM     21  C   UNL     1      -7.497  -2.658  -4.556  0.00  0.00    -0.063 C 
ATOM     22  H   UNL     1      -7.350  -4.062  -3.083  0.00  0.00    -0.081 HD
BRANCH  19  23
ATOM     23  C   UNL     1     -10.003  -4.732  -6.455  0.00  0.00    +0.119 C 
BRANCH  23  24
ATOM     24  C   UNL     1     -10.597  -3.660  -7.333  0.00  0.00    -0.030 A 
ATOM     25  C   UNL     1     -11.411  -2.689  -6.782  0.00  0.00    +0.009 A 
ATOM     26  C   UNL     1     -11.957  -1.704  -7.583  0.00  0.00    +0.050 A 
ATOM     27  C   UNL     1     -11.690  -1.688  -8.942  0.00  0.00    +0.166 A 
ATOM     28  C   UNL     1     -10.870  -2.667  -9.498  0.00  0.00    +0.167 A 
ATOM     29  C   UNL     1     -10.321  -3.648  -8.688  0.00  0.00    +0.054 A 
ATOM     30  O   UNL     1     -10.762  -2.435 -10.839  0.00  0.00    -0.453 OA
ATOM     31  C   UNL     1     -11.850  -1.550 -11.165  0.00  0.00    +0.466 C 
ATOM     32  O   UNL     1     -12.096  -0.844  -9.934  0.00  0.00    -0.453 OA
ENDBRANCH  23  24
ENDBRANCH  19  23
ENDBRANCH   1  16
BRANCH   1  33
ATOM     33  C   UNL     1      -4.595  -4.497  -3.112  0.00  0.00    +0.205 C 
ATOM     34  N   UNL     1      -5.141  -5.278  -1.993  0.00  0.00    -0.152 NA
ATOM     35  N   UNL     1      -4.319  -5.288  -1.075  0.00  0.00    -0.070 NA
ATOM     36  N   UNL     1      -3.160  -4.574  -1.376  0.00  0.00    -0.179 N 
ATOM     37  N   UNL     1      -3.267  -4.052  -2.642  0.00  0.00    -0.183 NA
ATOM     38  H   UNL     1      -2.399  -4.463  -0.786  0.00  0.00    +0.191 HD
BRANCH  37  39
ATOM     39  C   UNL     1      -3.181  -2.586  -2.617  0.00  0.00    +0.035 C 
ATOM     40  C   UNL     1      -3.690  -2.068  -1.270  0.00  0.00    +0.029 C 
ATOM     41  C   UNL     1      -1.726  -2.156  -2.811  0.00  0.00    +0.029 C 
ATOM     42  C   UNL     1      -4.039  -2.006  -3.743  0.00  0.00    +0.029 C 
ENDBRANCH  37  39
ENDBRANCH   1  33
TORSDOF 7
