REMARK  Name = ZINC51675981
REMARK  4 active torsions:
REMARK  status: ('A' for Active; 'I' for Inactive)
REMARK    1  A    between atoms: C_4  and  C_7
REMARK    2  A    between atoms: C_4  and  N_21
REMARK    3  A    between atoms: C_7  and  N_8
REMARK    4  A    between atoms: C_15  and  C_18
REMARK                            x       y       z     vdW  Elec       q    Type
REMARK                         _______ _______ _______ _____ _____    ______ ____
ROOT
ATOM      1  N   UNL     1       2.562  -1.874   0.234  0.00  0.00    -0.301 N 
ATOM      2  C   UNL     1       2.828  -2.480   1.408  0.00  0.00    +0.302 C 
ATOM      3  O   UNL     1       3.202  -1.824   2.360  0.00  0.00    -0.253 OA
ATOM      4  N   UNL     1       2.678  -3.815   1.526  0.00  0.00    -0.281 N 
ATOM      5  C   UNL     1       2.338  -4.645   0.360  0.00  0.00    +0.137 C 
ATOM      6  C   UNL     1       1.143  -5.531   0.730  0.00  0.00    +0.180 C 
ATOM      7  O   UNL     1       1.432  -6.229   1.943  0.00  0.00    -0.364 OA
ATOM      8  C   UNL     1       1.631  -5.378   3.075  0.00  0.00    +0.221 C 
ATOM      9  C   UNL     1       2.857  -4.485   2.824  0.00  0.00    +0.150 C 
ATOM     10  H   UNL     1       2.334  -2.405  -0.545  0.00  0.00    +0.150 HD
ENDROOT
BRANCH   8  11
ATOM     11  C   UNL     1       1.865  -6.220   4.303  0.00  0.00    +0.241 C 
ATOM     12  O   UNL     1       1.952  -7.425   4.204  0.00  0.00    -0.273 OA
ATOM     13  N   UNL     1       1.978  -5.632   5.511  0.00  0.00    -0.327 N 
ATOM     14  H   UNL     1       1.908  -4.668   5.589  0.00  0.00    +0.145 HD
ATOM     15  H   UNL     1       2.128  -6.174   6.301  0.00  0.00    +0.145 HD
ENDBRANCH   8  11
BRANCH   1  16
ATOM     16  C   UNL     1       2.617  -0.413   0.135  0.00  0.00    +0.094 C 
BRANCH  16  20
ATOM     17  C   UNL     1       0.009   1.876  -0.528  0.00  0.00    -0.000 C 
ATOM     18  C   UNL     1       1.482   2.245  -0.340  0.00  0.00    -0.001 C 
ATOM     19  C   UNL     1       2.325   1.535  -1.401  0.00  0.00    -0.010 C 
ATOM     20  C   UNL     1       2.156   0.021  -1.258  0.00  0.00    -0.050 C 
ATOM     21  C   UNL     1       0.683  -0.348  -1.446  0.00  0.00    -0.010 C 
ATOM     22  C   UNL     1      -0.160   0.362  -0.384  0.00  0.00    -0.001 C 
BRANCH  20  23
ATOM     23  N   UNL     1       2.966  -0.660  -2.276  0.00  0.00    +0.384 N 
ATOM     24  C   UNL     1       2.547  -0.214  -3.611  0.00  0.00    -0.078 C 
ATOM     25  C   UNL     1       3.331  -0.980  -4.678  0.00  0.00    -0.019 C 
ATOM     26  C   UNL     1       4.828  -0.714  -4.495  0.00  0.00    -0.004 C 
ATOM     27  C   UNL     1       5.237  -1.114  -3.074  0.00  0.00    -0.019 C 
ATOM     28  C   UNL     1       4.383  -0.343  -2.066  0.00  0.00    -0.078 C 
ATOM     29  H   UNL     1       2.830  -1.657  -2.200  0.00  0.00    -0.081 HD
ENDBRANCH  20  23
ENDBRANCH  16  20
ENDBRANCH   1  16
TORSDOF 4
