REMARK  Name = ZINC00973450
REMARK  5 active torsions:
REMARK  status: ('A' for Active; 'I' for Inactive)
REMARK    1  A    between atoms: C_1  and  C_2
REMARK    2  A    between atoms: C_3  and  C_17
REMARK    3  A    between atoms: C_4  and  C_10
REMARK    4  A    between atoms: C_17  and  O_19
REMARK    5  A    between atoms: O_19  and  C_20
REMARK                            x       y       z     vdW  Elec       q    Type
REMARK                         _______ _______ _______ _____ _____    ______ ____
ROOT
ATOM      1  C   UNL     1      -0.015   1.074   0.011  0.00  0.00    +0.061 C 
ATOM      2  C   UNL     1      -0.719   1.566   1.249  0.00  0.00    +0.021 C 
ATOM      3  C   UNL     1      -0.025   1.700   2.400  0.00  0.00    +0.078 C 
ATOM      4  C   UNL     1      -0.771   2.197   3.621  0.00  0.00    +0.143 C 
ATOM      5  N   UNL     1      -2.203   2.497   3.451  0.00  0.00    -0.288 N 
ATOM      6  C   UNL     1      -2.757   2.313   2.237  0.00  0.00    +0.304 C 
ATOM      7  O   UNL     1      -3.938   2.558   2.086  0.00  0.00    -0.252 OA
ATOM      8  N   UNL     1      -2.048   1.876   1.188  0.00  0.00    -0.273 N 
ATOM      9  H   UNL     1      -2.735   2.819   4.196  0.00  0.00    +0.151 HD
ATOM     10  H   UNL     1      -2.505   1.768   0.340  0.00  0.00    +0.156 HD
ENDROOT
BRANCH   4  11
ATOM     11  C   UNL     1      -0.639   1.157   4.702  0.00  0.00    -0.022 A 
ATOM     12  C   UNL     1      -1.451   0.038   4.687  0.00  0.00    +0.007 A 
ATOM     13  C   UNL     1      -1.327  -0.919   5.677  0.00  0.00    +0.015 A 
ATOM     14  C   UNL     1      -0.398  -0.753   6.687  0.00  0.00    +0.018 A 
ATOM     15  C   UNL     1       0.411   0.369   6.705  0.00  0.00    +0.015 A 
ATOM     16  C   UNL     1       0.290   1.323   5.712  0.00  0.00    +0.007 A 
ATOM     17 BR   UNL     1      -0.233  -2.059   8.045  0.00  0.00    -0.050 Br
ENDBRANCH   4  11
BRANCH   3  18
ATOM     18  C   UNL     1       1.353   1.385   2.463  0.00  0.00    +0.339 C 
ATOM     19  O   UNL     1       1.954   1.079   1.450  0.00  0.00    -0.245 OA
BRANCH  18  20
ATOM     20  O   UNL     1       2.001   1.424   3.646  0.00  0.00    -0.458 OA
BRANCH  20  21
ATOM     21  C   UNL     1       3.391   1.094   3.636  0.00  0.00    +0.177 C 
ATOM     22  C   UNL     1       3.560  -0.411   3.857  0.00  0.00    +0.044 C 
ATOM     23  C   UNL     1       4.976  -0.829   3.458  0.00  0.00    +0.004 C 
ATOM     24  C   UNL     1       5.353  -0.160   2.134  0.00  0.00    +0.000 C 
ATOM     25  C   UNL     1       6.475   0.852   2.375  0.00  0.00    +0.000 C 
ATOM     26  C   UNL     1       5.897   2.107   3.031  0.00  0.00    +0.000 C 
ATOM     27  C   UNL     1       5.614   1.827   4.508  0.00  0.00    +0.004 C 
ATOM     28  C   UNL     1       4.104   1.857   4.754  0.00  0.00    +0.044 C 
ENDBRANCH  20  21
ENDBRANCH  18  20
ENDBRANCH   3  18
TORSDOF 4
