REMARK  Name = ZINC09347716
REMARK  4 active torsions:
REMARK  status: ('A' for Active; 'I' for Inactive)
REMARK    1  A    between atoms: C_4  and  C_7
REMARK    2  A    between atoms: C_7  and  C_8
REMARK    3  A    between atoms: C_8  and  N_9
REMARK    4  A    between atoms: C_10  and  C_26
REMARK                            x       y       z     vdW  Elec       q    Type
REMARK                         _______ _______ _______ _____ _____    ______ ____
ROOT
ATOM      1  N   UNL     1      -3.450   2.888   0.026  0.00  0.00    -0.283 N 
ATOM      2  C   UNL     1      -2.649   1.663  -0.087  0.00  0.00    +0.147 C 
ATOM      3  C   UNL     1      -1.209   2.100  -0.010  0.00  0.00    +0.072 A 
ATOM      4  C   UNL     1       0.056   1.361  -0.053  0.00  0.00    +0.199 A 
ATOM      5  O   UNL     1       0.086   0.150  -0.183  0.00  0.00    -0.287 OA
ATOM      6  C   UNL     1       1.293   2.158   0.065  0.00  0.00    +0.066 A 
ATOM      7  C   UNL     1       2.550   1.558   0.032  0.00  0.00    +0.035 A 
ATOM      8  C   UNL     1       3.680   2.340   0.145  0.00  0.00    +0.042 A 
ATOM      9  C   UNL     1       3.563   3.717   0.291  0.00  0.00    +0.023 A 
ATOM     10  C   UNL     1       2.326   4.321   0.325  0.00  0.00    +0.048 A 
ATOM     11  C   UNL     1       1.172   3.551   0.213  0.00  0.00    +0.140 A 
ATOM     12  O   UNL     1      -0.042   4.130   0.245  0.00  0.00    -0.450 OA
ATOM     13  C   UNL     1      -1.199   3.447   0.142  0.00  0.00    +0.199 A 
ATOM     14  C   UNL     1      -2.604   3.925   0.159  0.00  0.00    +0.283 C 
ATOM     15  O   UNL     1      -2.942   5.086   0.276  0.00  0.00    -0.267 OA
ATOM     16 CL   UNL     1       5.251   1.603   0.105  0.00  0.00    -0.084 Cl
ENDROOT
BRANCH   2  17
ATOM     17  C   UNL     1      -2.914   0.990  -1.409  0.00  0.00    +0.013 A 
ATOM     18  C   UNL     1      -3.318   1.740  -2.498  0.00  0.00    +0.008 A 
ATOM     19  C   UNL     1      -3.560   1.123  -3.711  0.00  0.00    +0.001 A 
ATOM     20  C   UNL     1      -3.399  -0.245  -3.836  0.00  0.00    +0.003 A 
ATOM     21  C   UNL     1      -2.996  -0.996  -2.749  0.00  0.00    +0.039 A 
ATOM     22  C   UNL     1      -2.747  -0.378  -1.535  0.00  0.00    +0.129 A 
ATOM     23  F   UNL     1      -2.348  -1.111  -0.473  0.00  0.00    -0.205 F 
ENDBRANCH   2  17
BRANCH   1  24
ATOM     24  C   UNL     1      -4.912   2.967  -0.001  0.00  0.00    +0.114 C 
BRANCH  24  25
ATOM     25  C   UNL     1      -5.454   2.902   1.428  0.00  0.00    +0.054 C 
BRANCH  25  29
ATOM     26  C   UNL     1      -9.723   3.001   1.341  0.00  0.00    +0.000 A 
ATOM     27  C   UNL     1      -9.059   1.790   1.290  0.00  0.00    +0.000 A 
ATOM     28  C   UNL     1      -7.677   1.758   1.318  0.00  0.00    +0.004 A 
ATOM     29  C   UNL     1      -6.960   2.937   1.397  0.00  0.00    -0.046 A 
ATOM     30  C   UNL     1      -7.624   4.148   1.453  0.00  0.00    +0.004 A 
ATOM     31  C   UNL     1      -9.006   4.180   1.421  0.00  0.00    +0.000 A 
ENDBRANCH  25  29
ENDBRANCH  24  25
ENDBRANCH   1  24
TORSDOF 4
