REMARK  Name = ZINC63213874
REMARK  4 active torsions:
REMARK  status: ('A' for Active; 'I' for Inactive)
REMARK    1  A    between atoms: C_2  and  S_8
REMARK    2  A    between atoms: S_8  and  N_11
REMARK    3  A    between atoms: N_11  and  C_12
REMARK    4  A    between atoms: C_19  and  N_21
REMARK                            x       y       z     vdW  Elec       q    Type
REMARK                         _______ _______ _______ _____ _____    ______ ____
ROOT
ATOM      1  N   UNL     1       1.985   4.169   1.425  0.00  0.00    -0.188 NA
ATOM      2  H   UNL     1       1.488   4.555   2.164  0.00  0.00    +0.148 HD
ENDROOT
BRANCH   1   3
ATOM      3  C   UNL     1       3.406   3.852   1.585  0.00  0.00    +0.062 C 
ATOM      4  C   UNL     1       3.537   2.419   2.136  0.00  0.00    +0.019 C 
ATOM      5  C   UNL     1       4.896   2.149   2.722  0.00  0.00    +0.001 C 
ATOM      6  C   UNL     1       4.839   2.421   4.239  0.00  0.00    -0.000 C 
ATOM      7  C   UNL     1       4.935   3.839   4.553  0.00  0.00    -0.002 C 
ATOM      8  C   UNL     1       3.766   4.653   3.960  0.00  0.00    -0.015 C 
ATOM      9  C   UNL     1       4.050   4.905   2.506  0.00  0.00    -0.056 C 
BRANCH   9  10
ATOM     10  N   UNL     1       3.530   6.232   2.148  0.00  0.00    +0.381 N 
ATOM     11  H   UNL     1       2.528   6.243   2.264  0.00  0.00    -0.090 HD
ATOM     12  H   UNL     1       3.947   6.929   2.746  0.00  0.00    -0.090 HD
ATOM     13  H   UNL     1       3.760   6.434   1.186  0.00  0.00    -0.090 HD
ENDBRANCH   9  10
ENDBRANCH   1   3
BRANCH   1  14
ATOM     14  S   UNL     1       1.226   3.869  -0.016  0.00  0.00    +0.061 S 
ATOM     15  O   UNL     1      -0.119   4.303   0.135  0.00  0.00    -0.153 OA
ATOM     16  O   UNL     1       1.560   2.537  -0.381  0.00  0.00    -0.153 OA
BRANCH  14  18
ATOM     17  C   UNL     1       2.693   4.389  -2.268  0.00  0.00    +0.057 A 
ATOM     18  C   UNL     1       1.963   4.922  -1.221  0.00  0.00    +0.132 A 
ATOM     19  C   UNL     1       1.822   6.269  -1.137  0.00  0.00    +0.106 A 
ATOM     20  S   UNL     1       2.737   6.826  -2.565  0.00  0.00    -0.063 S 
ATOM     21  C   UNL     1       3.246   5.228  -3.178  0.00  0.00    +0.081 A 
ATOM     22 CL   UNL     1       4.202   4.848  -4.576  0.00  0.00    -0.076 Cl
ATOM     23 CL   UNL     1       0.972   7.207   0.050  0.00  0.00    -0.074 Cl
ENDBRANCH  14  18
ENDBRANCH   1  14
TORSDOF 4
