REMARK  Name = ZINC16717184
REMARK  11 active torsions:
REMARK  status: ('A' for Active; 'I' for Inactive)
REMARK    1  A    between atoms: C_1  and  C_2
REMARK    2  A    between atoms: C_5  and  N_8
REMARK    3  A    between atoms: C_11  and  C_16
REMARK    4  A    between atoms: C_16  and  O_17
REMARK    5  A    between atoms: O_17  and  C_18
REMARK    6  A    between atoms: C_18  and  C_20
REMARK    7  A    between atoms: C_20  and  C_22
REMARK    8  A    between atoms: C_20  and  N_26
REMARK    9  A    between atoms: C_22  and  C_23
REMARK   10  A    between atoms: C_23  and  C_24
REMARK   11  A    between atoms: C_23  and  C_25
REMARK                            x       y       z     vdW  Elec       q    Type
REMARK                         _______ _______ _______ _____ _____    ______ ____
ROOT
ATOM      1  C   UNL     1       3.434   7.690   0.428  0.00  0.00    +0.308 C 
ENDROOT
BRANCH   1   5
ATOM      2  N   UNL     1       1.162   3.484   0.009  0.00  0.00    -0.284 N 
ATOM      3  C   UNL     1       2.347   4.188   0.106  0.00  0.00    +0.224 A 
ATOM      4  N   UNL     1       2.328   5.515   0.208  0.00  0.00    -0.196 NA
ATOM      5  C   UNL     1       3.461   6.188   0.306  0.00  0.00    +0.173 A 
ATOM      6  N   UNL     1       4.617   5.548   0.292  0.00  0.00    -0.196 NA
ATOM      7  C   UNL     1       4.644   4.222   0.185  0.00  0.00    +0.217 A 
ATOM      8  N   UNL     1       3.507   3.541   0.092  0.00  0.00    -0.181 NA
ATOM      9  N   UNL     1       5.852   3.554   0.172  0.00  0.00    -0.327 N 
ATOM     10  H   UNL     1       0.207   4.024  -0.071  0.00  0.00    +0.155 HD
ATOM     11  H   UNL     1       5.874   2.458   0.084  0.00  0.00    +0.145 HD
ATOM     12  H   UNL     1       6.793   4.119   0.250  0.00  0.00    +0.145 HD
BRANCH   2  17
ATOM     13  C   UNL     1       1.221  -2.188   0.024  0.00  0.00    +0.044 C 
ATOM     14  C   UNL     1       1.205  -0.681   0.021  0.00  0.00    -0.050 A 
ATOM     15  C   UNL     1       2.143   0.021   0.755  0.00  0.00    +0.005 A 
ATOM     16  C   UNL     1       2.132   1.402   0.754  0.00  0.00    +0.023 A 
ATOM     17  C   UNL     1       1.177   2.086   0.013  0.00  0.00    +0.034 A 
ATOM     18  C   UNL     1       0.236   1.378  -0.725  0.00  0.00    +0.023 A 
ATOM     19  C   UNL     1       0.253  -0.003  -0.718  0.00  0.00    +0.005 A 
ENDBRANCH   2  17
ENDBRANCH   1   5
BRANCH   1  20
ATOM     20  O   UNL     1       3.472   8.284  -0.897  0.00  0.00    -0.455 OA
BRANCH  20  21
ATOM     21  C   UNL     1       3.454   9.624  -0.965  0.00  0.00    +0.329 C 
ATOM     22  O   UNL     1       3.409  10.280   0.049  0.00  0.00    -0.249 OA
BRANCH  21  23
ATOM     23  C   UNL     1       3.491  10.311  -2.305  0.00  0.00    +0.193 C 
BRANCH  23  24
ATOM     24  N   UNL     1       3.462  11.763  -2.111  0.00  0.00    -0.228 N 
ATOM     25  C   UNL     1       2.490  12.552  -2.606  0.00  0.00    +0.227 C 
ATOM     26  O   UNL     1       1.437  12.184  -3.081  0.00  0.00    -0.275 OA
ATOM     27  C   UNL     1       2.964  14.008  -2.456  0.00  0.00    +0.091 C 
ATOM     28  C   UNL     1       3.771  14.289  -3.726  0.00  0.00    +0.040 C 
ATOM     29  C   UNL     1       4.931  15.195  -3.499  0.00  0.00    -0.030 C 
ATOM     30  C   UNL     1       5.450  15.457  -2.346  0.00  0.00    -0.030 C 
ATOM     31  C   UNL     1       4.913  14.910  -1.061  0.00  0.00    +0.040 C 
ATOM     32  C   UNL     1       3.895  13.833  -1.245  0.00  0.00    +0.091 C 
ATOM     33  C   UNL     1       4.407  12.432  -1.413  0.00  0.00    +0.227 C 
ATOM     34  O   UNL     1       5.460  11.990  -1.005  0.00  0.00    -0.275 OA
ENDBRANCH  23  24
BRANCH  23  35
ATOM     35  C   UNL     1       4.772   9.921  -3.044  0.00  0.00    +0.037 C 
BRANCH  35  36
ATOM     36  C   UNL     1       4.751  10.517  -4.453  0.00  0.00    -0.015 C 
ATOM     37  C   UNL     1       6.084  10.233  -5.147  0.00  0.00    +0.007 C 
ATOM     38  C   UNL     1       3.612   9.887  -5.257  0.00  0.00    +0.007 C 
ENDBRANCH  35  36
ENDBRANCH  23  35
ENDBRANCH  21  23
ENDBRANCH  20  21
ENDBRANCH   1  20
TORSDOF 8
