REMARK  Name = ZINC27498064
REMARK  10 active torsions:
REMARK  status: ('A' for Active; 'I' for Inactive)
REMARK    1  A    between atoms: C_1  and  C_2
REMARK    2  A    between atoms: C_2  and  C_3
REMARK    3  A    between atoms: C_2  and  C_4
REMARK    4  A    between atoms: C_4  and  C_6
REMARK    5  A    between atoms: C_4  and  N_23
REMARK    6  A    between atoms: N_8  and  C_9
REMARK    7  A    between atoms: C_9  and  C_10
REMARK    8  A    between atoms: C_10  and  C_12
REMARK    9  A    between atoms: C_10  and  N_17
REMARK   10  A    between atoms: C_24  and  C_26
REMARK                            x       y       z     vdW  Elec       q    Type
REMARK                         _______ _______ _______ _____ _____    ______ ____
ROOT
ATOM      1  C   UNL     1      -0.856   0.660   1.479  0.00  0.00    +0.234 C 
ATOM      2  O   UNL     1      -1.976   1.079   1.273  0.00  0.00    -0.274 OA
ATOM      3  N   UNL     1      -0.304   0.786   2.702  0.00  0.00    -0.315 N 
ATOM      4  H   UNL     1       0.678   0.336   2.911  0.00  0.00    +0.149 HD
ENDROOT
BRANCH   1   5
ATOM      5  C   UNL     1      -0.083  -0.000   0.367  0.00  0.00    +0.162 C 
BRANCH   5   6
ATOM      6  N   UNL     1      -1.015  -0.503  -0.644  0.00  0.00    -0.300 N 
ATOM      7  C   UNL     1      -0.656  -1.529  -1.441  0.00  0.00    +0.250 C 
ATOM      8  O   UNL     1       0.442  -2.038  -1.320  0.00  0.00    -0.270 OA
ATOM      9  H   UNL     1      -2.008  -0.043  -0.754  0.00  0.00    +0.150 HD
BRANCH   7  10
ATOM     10  C   UNL     1      -1.595  -2.036  -2.460  0.00  0.00    +0.107 A 
ATOM     11  C   UNL     1      -1.595  -1.491  -3.749  0.00  0.00    +0.138 A 
ATOM     12  C   UNL     1      -2.475  -1.975  -4.699  0.00  0.00    +0.039 A 
ATOM     13  C   UNL     1      -3.360  -2.987  -4.376  0.00  0.00    +0.006 A 
ATOM     14  C   UNL     1      -3.370  -3.528  -3.103  0.00  0.00    +0.039 A 
ATOM     15  C   UNL     1      -2.494  -3.059  -2.142  0.00  0.00    +0.138 A 
ATOM     16  F   UNL     1      -2.505  -3.589  -0.899  0.00  0.00    -0.205 F 
ATOM     17  F   UNL     1      -0.736  -0.498  -4.065  0.00  0.00    -0.205 F 
ENDBRANCH   7  10
ENDBRANCH   5   6
BRANCH   5  19
ATOM     18  C   UNL     1       1.723   0.324  -1.329  0.00  0.00    +0.009 C 
ATOM     19  C   UNL     1       0.863   1.019  -0.272  0.00  0.00    +0.012 C 
ATOM     20  C   UNL     1       0.044   2.131  -0.931  0.00  0.00    +0.009 C 
ENDBRANCH   5  19
ENDBRANCH   1   5
BRANCH   3  21
ATOM     21  C   UNL     1      -1.011   1.523   3.753  0.00  0.00    +0.096 C 
BRANCH  21  22
ATOM     22  C   UNL     1      -0.173   1.516   5.033  0.00  0.00    +0.016 C 
BRANCH  22  23
ATOM     23  N   UNL     1       0.147   0.131   5.402  0.00  0.00    +0.387 N 
ATOM     24  C   UNL     1      -1.076  -0.665   5.567  0.00  0.00    -0.078 C 
ATOM     25  C   UNL     1      -0.705  -2.130   5.807  0.00  0.00    -0.019 C 
ATOM     26  C   UNL     1       0.166  -2.232   7.062  0.00  0.00    -0.004 C 
ATOM     27  C   UNL     1       1.409  -1.356   6.883  0.00  0.00    -0.019 C 
ATOM     28  C   UNL     1       0.977   0.087   6.612  0.00  0.00    -0.078 C 
ATOM     29  H   UNL     1       0.728  -0.314   4.581  0.00  0.00    -0.081 HD
ENDBRANCH  22  23
BRANCH  22  30
ATOM     30  C   UNL     1      -0.952   2.166   6.147  0.00  0.00    +0.093 A 
ATOM     31  C   UNL     1      -0.704   3.377   6.678  0.00  0.00    +0.043 A 
ATOM     32  C   UNL     1      -1.673   3.588   7.686  0.00  0.00    +0.041 A 
ATOM     33  C   UNL     1      -2.449   2.490   7.716  0.00  0.00    +0.195 A 
ATOM     34  O   UNL     1      -2.008   1.632   6.782  0.00  0.00    -0.469 OA
ENDBRANCH  22  30
ENDBRANCH  21  22
ENDBRANCH   3  21
TORSDOF 8
