REMARK  Name = ZINC14559502
REMARK  9 active torsions:
REMARK  status: ('A' for Active; 'I' for Inactive)
REMARK    1  A    between atoms: C_1  and  C_2
REMARK    2  A    between atoms: C_2  and  C_3
REMARK    3  A    between atoms: C_3  and  C_4
REMARK    4  A    between atoms: C_4  and  C_5
REMARK    5  A    between atoms: C_5  and  C_6
REMARK    6  A    between atoms: N_8  and  C_9
REMARK    7  A    between atoms: C_13  and  N_15
REMARK    8  A    between atoms: C_16  and  C_18
REMARK    9  A    between atoms: C_19  and  C_20
REMARK                            x       y       z     vdW  Elec       q    Type
REMARK                         _______ _______ _______ _____ _____    ______ ____
ROOT
ATOM      1  C   UNL     1      -2.418   1.183   0.113  0.00  0.00    +0.035 A 
ATOM      2  C   UNL     1      -2.452  -0.204   0.185  0.00  0.00    +0.023 A 
ATOM      3  C   UNL     1      -3.663  -0.864   0.265  0.00  0.00    +0.004 A 
ATOM      4  C   UNL     1      -4.844  -0.147   0.273  0.00  0.00    +0.023 A 
ATOM      5  C   UNL     1      -4.817   1.240   0.201  0.00  0.00    +0.035 A 
ATOM      6  C   UNL     1      -3.601   1.906   0.127  0.00  0.00    +0.046 A 
ENDROOT
BRANCH   1   9
ATOM      7  C   UNL     1      -1.091   2.994  -0.674  0.00  0.00    +0.217 C 
ATOM      8  O   UNL     1      -2.039   3.397  -1.314  0.00  0.00    -0.275 OA
ATOM      9  N   UNL     1      -1.190   1.850   0.032  0.00  0.00    -0.285 N 
ATOM     10  H   UNL     1      -0.411   1.489   0.483  0.00  0.00    +0.155 HD
BRANCH   7  11
ATOM     11  C   UNL     1       0.197   3.776  -0.663  0.00  0.00    +0.096 C 
BRANCH  11  12
ATOM     12  C   UNL     1       0.043   5.026  -1.531  0.00  0.00    +0.009 C 
BRANCH  12  13
ATOM     13  C   UNL     1       1.350   5.820  -1.520  0.00  0.00    +0.000 C 
BRANCH  13  15
ATOM     14  C   UNL     1       2.503   7.864  -2.377  0.00  0.00    +0.004 C 
ATOM     15  C   UNL     1       1.196   7.070  -2.389  0.00  0.00    -0.003 C 
ENDBRANCH  13  15
ENDBRANCH  12  13
ENDBRANCH  11  12
ENDBRANCH   7  11
ENDBRANCH   1   9
BRANCH   5  16
ATOM     16  N   UNL     1      -6.013   1.965   0.210  0.00  0.00    -0.282 N 
ATOM     17  C   UNL     1      -7.054   1.538   0.952  0.00  0.00    +0.241 C 
ATOM     18  O   UNL     1      -6.983   0.479   1.549  0.00  0.00    -0.270 OA
ATOM     19  H   UNL     1      -6.093   2.774  -0.319  0.00  0.00    +0.155 HD
BRANCH  17  20
ATOM     20  C   UNL     1      -8.229   2.321   1.037  0.00  0.00    +0.068 C 
ATOM     21  C   UNL     1      -9.277   1.892   1.784  0.00  0.00    +0.020 C 
BRANCH  21  22
ATOM     22  C   UNL     1     -10.453   2.676   1.870  0.00  0.00    +0.012 A 
ATOM     23  C   UNL     1     -11.626   2.422   2.571  0.00  0.00    +0.015 A 
ATOM     24  C   UNL     1     -12.622   3.361   2.480  0.00  0.00    +0.008 A 
ATOM     25  C   UNL     1     -12.420   4.473   1.724  0.00  0.00    +0.046 A 
ATOM     26  S   UNL     1     -10.813   4.250   1.112  0.00  0.00    -0.097 S 
ENDBRANCH  21  22
ENDBRANCH  17  20
ENDBRANCH   5  16
TORSDOF 8
