REMARK  Name = ZINC36032777
REMARK  12 active torsions:
REMARK  status: ('A' for Active; 'I' for Inactive)
REMARK    1  A    between atoms: C_1  and  C_2
REMARK    2  A    between atoms: C_2  and  C_3
REMARK    3  A    between atoms: C_3  and  C_5
REMARK    4  A    between atoms: C_3  and  C_6
REMARK    5  A    between atoms: C_6  and  N_7
REMARK    6  A    between atoms: C_10  and  C_29
REMARK    7  A    between atoms: N_16  and  C_19
REMARK    8  A    between atoms: C_19  and  N_21
REMARK    9  A    between atoms: N_21  and  C_22
REMARK   10  A    between atoms: C_29  and  C_30
REMARK   11  A    between atoms: C_30  and  C_31
REMARK   12  A    between atoms: C_30  and  C_32
REMARK                            x       y       z     vdW  Elec       q    Type
REMARK                         _______ _______ _______ _____ _____    ______ ____
ROOT
ATOM      1  N   UNL     1       1.624  -2.475  -2.480  0.00  0.00    -0.313 N 
ATOM      2  C   UNL     1       1.052  -2.731  -3.675  0.00  0.00    +0.200 C 
ATOM      3  O   UNL     1      -0.124  -2.595  -3.941  0.00  0.00    -0.277 OA
ATOM      4  C   UNL     1       2.124  -3.214  -4.627  0.00  0.00    +0.019 C 
ATOM      5  N   UNL     1       3.403  -2.819  -3.989  0.00  0.00    +0.401 N 
ATOM      6  C   UNL     1       3.059  -2.760  -2.555  0.00  0.00    +0.006 C 
ATOM      7  C   UNL     1       3.366  -4.106  -1.900  0.00  0.00    +0.025 C 
ATOM      8  C   UNL     1       2.973  -4.053  -0.420  0.00  0.00    +0.107 C 
ATOM      9  N   UNL     1       3.641  -2.902   0.204  0.00  0.00    -0.312 N 
ATOM     10  C   UNL     1       3.468  -1.573  -0.396  0.00  0.00    +0.107 C 
ATOM     11  C   UNL     1       3.856  -1.647  -1.877  0.00  0.00    +0.025 C 
ATOM     12  H   UNL     1       4.115  -3.512  -4.160  0.00  0.00    -0.082 HD
ATOM     13  H   UNL     1       3.700  -1.912  -4.318  0.00  0.00    -0.082 HD
ENDROOT
BRANCH   9  14
ATOM     14  C   UNL     1       4.397  -3.064   1.308  0.00  0.00    +0.137 C 
ATOM     15  S   UNL     1       4.696  -4.635   1.919  0.00  0.00    -0.018 S 
BRANCH  14  16
ATOM     16  N   UNL     1       4.918  -1.988   1.931  0.00  0.00    -0.295 N 
ATOM     17  H   UNL     1       5.872  -1.815   1.883  0.00  0.00    +0.154 HD
BRANCH  16  18
ATOM     18  C   UNL     1       4.084  -1.121   2.647  0.00  0.00    +0.068 A 
ATOM     19  C   UNL     1       2.740  -1.428   2.814  0.00  0.00    +0.026 A 
ATOM     20  C   UNL     1       1.920  -0.572   3.521  0.00  0.00    +0.002 A 
ATOM     21  C   UNL     1       2.434   0.592   4.063  0.00  0.00    +0.003 A 
ATOM     22  C   UNL     1       3.771   0.902   3.900  0.00  0.00    +0.040 A 
ATOM     23  C   UNL     1       4.600   0.047   3.198  0.00  0.00    +0.144 A 
ATOM     24  F   UNL     1       5.908   0.347   3.042  0.00  0.00    -0.204 F 
ENDBRANCH  16  18
ENDBRANCH  14  16
ENDBRANCH   9  14
BRANCH   1  25
ATOM     25  C   UNL     1       0.920  -1.982  -1.294  0.00  0.00    +0.109 C 
BRANCH  25  26
ATOM     26  C   UNL     1       0.902  -0.453  -1.310  0.00  0.00    +0.003 C 
ATOM     27  C   UNL     1       0.132   0.035  -2.539  0.00  0.00    +0.009 C 
BRANCH  26  29
ATOM     28  C   UNL     1       0.309   1.590   0.002  0.00  0.00    +0.004 C 
ATOM     29  C   UNL     1       0.217   0.063  -0.043  0.00  0.00    +0.001 C 
ENDBRANCH  26  29
ENDBRANCH  25  26
ENDBRANCH   1  25
BRANCH   4  30
ATOM     30  C   UNL     1       1.973  -2.534  -5.989  0.00  0.00    -0.004 C 
BRANCH  30  31
ATOM     31  C   UNL     1       3.010  -3.101  -6.961  0.00  0.00    -0.018 C 
ATOM     32  C   UNL     1       2.716  -4.582  -7.213  0.00  0.00    +0.007 C 
ATOM     33  C   UNL     1       2.942  -2.336  -8.284  0.00  0.00    +0.007 C 
ENDBRANCH  30  31
ENDBRANCH   4  30
TORSDOF 8
