REMARK  Name = ZINC33175426
REMARK  6 active torsions:
REMARK  status: ('A' for Active; 'I' for Inactive)
REMARK    1  A    between atoms: C_1  and  C_2
REMARK    2  A    between atoms: C_5  and  N_8
REMARK    3  A    between atoms: C_22  and  C_25
REMARK    4  A    between atoms: N_27  and  C_28
REMARK    5  A    between atoms: C_28  and  C_29
REMARK    6  A    between atoms: C_32  and  C_34
REMARK                            x       y       z     vdW  Elec       q    Type
REMARK                         _______ _______ _______ _____ _____    ______ ____
ROOT
ATOM      1  N   UNL     1       3.700  -7.776  -5.765  0.00  0.00    -0.248 N 
ATOM      2  C   UNL     1       3.805  -9.126  -5.810  0.00  0.00    +0.274 A 
ATOM      3  O   UNL     1       3.699  -9.726  -6.866  0.00  0.00    -0.266 OA
ATOM      4  C   UNL     1       4.035  -9.810  -4.619  0.00  0.00    +0.103 A 
ATOM      5  C   UNL     1       4.161  -9.132  -3.393  0.00  0.00    +0.087 A 
ATOM      6  C   UNL     1       4.390  -9.947  -2.275  0.00  0.00    +0.036 A 
ATOM      7  C   UNL     1       4.477 -11.287  -2.417  0.00  0.00    +0.048 A 
ATOM      8  S   UNL     1       4.237 -11.514  -4.171  0.00  0.00    -0.090 S 
ATOM      9  N   UNL     1       4.044  -7.766  -3.444  0.00  0.00    -0.215 NA
ATOM     10  C   UNL     1       3.829  -7.135  -4.565  0.00  0.00    +0.206 A 
ATOM     11  N   UNL     1       3.724  -5.765  -4.538  0.00  0.00    -0.300 N 
ATOM     12  C   UNL     1       4.898  -5.134  -5.153  0.00  0.00    +0.108 C 
ATOM     13  C   UNL     1       4.682  -3.621  -5.236  0.00  0.00    +0.020 C 
ATOM     14  C   UNL     1       4.458  -3.064  -3.827  0.00  0.00    +0.016 C 
ATOM     15  C   UNL     1       3.259  -3.772  -3.191  0.00  0.00    +0.092 C 
ATOM     16  C   UNL     1       3.517  -5.280  -3.167  0.00  0.00    +0.120 C 
ENDROOT
BRANCH   1  21
ATOM     17  C   UNL     1       2.743  -4.817 -10.512  0.00  0.00    +0.044 C 
ATOM     18  C   UNL     1       2.997  -5.602  -9.251  0.00  0.00    -0.050 A 
ATOM     19  C   UNL     1       4.194  -6.276  -9.087  0.00  0.00    +0.005 A 
ATOM     20  C   UNL     1       4.429  -6.997  -7.933  0.00  0.00    +0.026 A 
ATOM     21  C   UNL     1       3.464  -7.045  -6.937  0.00  0.00    +0.053 A 
ATOM     22  C   UNL     1       2.261  -6.372  -7.107  0.00  0.00    +0.026 A 
ATOM     23  C   UNL     1       2.033  -5.648  -8.261  0.00  0.00    +0.005 A 
ENDBRANCH   1  21
BRANCH  15  24
ATOM     24  C   UNL     1       3.068  -3.272  -1.782  0.00  0.00    +0.218 C 
ATOM     25  O   UNL     1       3.129  -4.046  -0.851  0.00  0.00    -0.275 OA
ATOM     26  N   UNL     1       2.831  -1.964  -1.558  0.00  0.00    -0.308 N 
ATOM     27  H   UNL     1       2.776  -1.262  -2.403  0.00  0.00    +0.149 HD
BRANCH  26  28
ATOM     28  C   UNL     1       2.646  -1.478  -0.189  0.00  0.00    +0.178 C 
BRANCH  28  29
ATOM     29  C   UNL     1       2.396   0.008  -0.213  0.00  0.00    +0.122 A 
ATOM     30  C   UNL     1       1.193   0.603  -0.306  0.00  0.00    +0.046 A 
ATOM     31  C   UNL     1       1.423   1.998  -0.293  0.00  0.00    +0.045 A 
ATOM     32  C   UNL     1       2.753   2.172  -0.193  0.00  0.00    +0.102 A 
ATOM     33  O   UNL     1       3.338   0.964  -0.144  0.00  0.00    -0.463 OA
ATOM     34  C   UNL     1       3.467   3.499  -0.142  0.00  0.00    +0.086 C 
ENDBRANCH  28  29
ENDBRANCH  26  28
ENDBRANCH  15  24
TORSDOF 4
