REMARK  Name = ZINC18266656
REMARK  8 active torsions:
REMARK  status: ('A' for Active; 'I' for Inactive)
REMARK    1  A    between atoms: C_1  and  C_2
REMARK    2  A    between atoms: C_6  and  C_27
REMARK    3  A    between atoms: C_18  and  C_22
REMARK    4  A    between atoms: C_19  and  C_21
REMARK    5  A    between atoms: C_22  and  C_23
REMARK    6  A    between atoms: C_23  and  C_24
REMARK    7  A    between atoms: C_24  and  C_25
REMARK    8  A    between atoms: C_24  and  C_26
REMARK                            x       y       z     vdW  Elec       q    Type
REMARK                         _______ _______ _______ _____ _____    ______ ____
ROOT
ATOM      1  C   UNL     1      -0.018   1.503   0.010  0.00  0.00    +0.044 C 
ATOM      2  C   UNL     1       0.002  -0.004   0.002  0.00  0.00    -0.048 A 
ATOM      3  C   UNL     1       0.006  -0.683  -1.215  0.00  0.00    +0.004 A 
ATOM      4  C   UNL     1       0.024  -2.044  -1.258  0.00  0.00    +0.012 A 
ATOM      5  C   UNL     1       0.040  -2.773  -0.060  0.00  0.00    +0.022 A 
ATOM      6  C   UNL     1       0.060  -4.180  -0.041  0.00  0.00    +0.051 A 
ATOM      7  N   UNL     1       0.074  -4.793   1.124  0.00  0.00    -0.219 NA
ATOM      8  C   UNL     1       0.071  -4.112   2.269  0.00  0.00    +0.222 A 
ATOM      9  N   UNL     1       0.053  -2.795   2.313  0.00  0.00    -0.214 NA
ATOM     10  C   UNL     1       0.037  -2.083   1.180  0.00  0.00    +0.077 A 
ATOM     11  C   UNL     1       0.022  -0.680   1.184  0.00  0.00    +0.032 A 
ATOM     12  N   UNL     1       0.086  -4.819   3.462  0.00  0.00    -0.254 N 
ATOM     13  C   UNL     1       0.105  -6.191   3.448  0.00  0.00    +0.202 A 
ATOM     14  N   UNL     1       0.115  -6.872   4.625  0.00  0.00    -0.295 N 
ATOM     15  H   UNL     1       0.108  -6.389   5.467  0.00  0.00    +0.172 HD
ATOM     16  C   UNL     1       0.133  -8.222   4.619  0.00  0.00    +0.256 A 
ATOM     17  O   UNL     1       0.141  -8.849   5.666  0.00  0.00    -0.267 OA
ATOM     18  C   UNL     1       0.141  -8.892   3.382  0.00  0.00    +0.038 A 
ATOM     19  C   UNL     1       0.131  -8.156   2.234  0.00  0.00    +0.050 A 
ATOM     20  N   UNL     1       0.108  -6.826   2.293  0.00  0.00    -0.221 NA
ATOM     21  C   UNL     1       0.140  -8.849   0.895  0.00  0.00    +0.066 C 
ATOM     22  C   UNL     1       0.064  -4.968  -1.326  0.00  0.00    +0.066 C 
ATOM     23  H   UNL     1       0.084  -4.343   4.308  0.00  0.00    +0.158 HD
ENDROOT
BRANCH  18  24
ATOM     24  C   UNL     1       0.161 -10.398   3.327  0.00  0.00    +0.042 C 
BRANCH  24  25
ATOM     25  C   UNL     1       1.605 -10.893   3.433  0.00  0.00    +0.008 C 
BRANCH  25  26
ATOM     26  C   UNL     1       1.626 -12.422   3.377  0.00  0.00    -0.017 C 
ATOM     27  C   UNL     1       3.075 -12.912   3.357  0.00  0.00    +0.007 C 
ATOM     28  C   UNL     1       0.913 -12.987   4.607  0.00  0.00    +0.007 C 
ENDBRANCH  25  26
ENDBRANCH  24  25
ENDBRANCH  18  24
TORSDOF 3
