REMARK  Name = ZINC01171628
REMARK  7 active torsions:
REMARK  status: ('A' for Active; 'I' for Inactive)
REMARK    1  A    between atoms: C_1  and  C_2
REMARK    2  A    between atoms: C_7  and  C_8
REMARK    3  A    between atoms: C_8  and  C_10
REMARK    4  A    between atoms: C_8  and  N_22
REMARK    5  A    between atoms: C_16  and  C_21
REMARK    6  A    between atoms: C_19  and  O_20
REMARK    7  A    between atoms: N_22  and  C_23
REMARK                            x       y       z     vdW  Elec       q    Type
REMARK                         _______ _______ _______ _____ _____    ______ ____
ROOT
ATOM      1  C   UNL     1       0.127   2.897   6.551  0.00  0.00    +0.136 C 
ENDROOT
BRANCH   1   2
ATOM      2  C   UNL     1      -0.347   2.850   5.122  0.00  0.00    +0.021 A 
ATOM      3  C   UNL     1      -0.623   4.039   4.451  0.00  0.00    +0.010 A 
ATOM      4  C   UNL     1      -1.052   4.031   3.159  0.00  0.00    +0.010 A 
ATOM      5  C   UNL     1      -1.221   2.808   2.489  0.00  0.00    +0.004 A 
ATOM      6  C   UNL     1      -1.664   2.759   1.154  0.00  0.00    +0.012 A 
ATOM      7  C   UNL     1      -1.802   1.535   0.565  0.00  0.00    +0.023 A 
ATOM      8  C   UNL     1      -1.516   0.379   1.288  0.00  0.00    +0.039 A 
ATOM      9  N   UNL     1      -1.103   0.429   2.532  0.00  0.00    -0.248 NA
ATOM     10  C   UNL     1      -0.943   1.595   3.164  0.00  0.00    +0.113 A 
ATOM     11  C   UNL     1      -0.499   1.642   4.503  0.00  0.00    +0.148 A 
ATOM     12  C   UNL     1      -1.678  -0.963   0.623  0.00  0.00    +0.065 C 
BRANCH  11  13
ATOM     13  O   UNL     1      -0.226   0.492   5.173  0.00  0.00    -0.504 OA
ATOM     14  H   UNL     1       0.705   0.231   5.143  0.00  0.00    +0.292 HD
ENDBRANCH  11  13
ENDBRANCH   1   2
BRANCH   1  21
ATOM     15  C   UNL     1       2.795   3.721   5.812  0.00  0.00    +0.044 C 
ATOM     16  C   UNL     1       1.879   4.683   6.524  0.00  0.00    -0.045 A 
ATOM     17  C   UNL     1       2.316   5.960   6.823  0.00  0.00    +0.004 A 
ATOM     18  C   UNL     1       1.476   6.843   7.475  0.00  0.00    +0.000 A 
ATOM     19  C   UNL     1       0.199   6.449   7.829  0.00  0.00    +0.000 A 
ATOM     20  C   UNL     1      -0.239   5.173   7.526  0.00  0.00    +0.006 A 
ATOM     21  C   UNL     1       0.603   4.289   6.877  0.00  0.00    -0.020 A 
ENDBRANCH   1  21
BRANCH   1  22
ATOM     22  N   UNL     1      -0.978   2.537   7.444  0.00  0.00    -0.320 N 
ATOM     23  H   UNL     1      -1.895   2.681   7.163  0.00  0.00    +0.148 HD
BRANCH  22  24
ATOM     24  C   UNL     1      -0.712   1.989   8.693  0.00  0.00    +0.097 A 
ATOM     25  C   UNL     1       0.606   1.785   9.090  0.00  0.00    +0.041 A 
ATOM     26  C   UNL     1       0.857   1.238  10.336  0.00  0.00    +0.005 A 
ATOM     27  C   UNL     1      -0.223   0.914  11.146  0.00  0.00    +0.018 A 
ATOM     28  C   UNL     1      -1.505   1.143  10.689  0.00  0.00    +0.084 A 
ATOM     29  N   UNL     1      -1.788   1.684   9.473  0.00  0.00    -0.350 N 
ATOM     30  H   UNL     1      -2.753   1.851   9.162  0.00  0.00    +0.166 HD
ENDBRANCH  22  24
ENDBRANCH   1  22
TORSDOF 5
