REMARK  Name = ZINC06839611
REMARK  6 active torsions:
REMARK  status: ('A' for Active; 'I' for Inactive)
REMARK    1  A    between atoms: C_5  and  N_7
REMARK    2  A    between atoms: C_11  and  S_13
REMARK    3  A    between atoms: S_13  and  C_14
REMARK    4  A    between atoms: C_14  and  C_15
REMARK    5  A    between atoms: N_17  and  C_18
REMARK    6  A    between atoms: C_19  and  C_23
REMARK                            x       y       z     vdW  Elec       q    Type
REMARK                         _______ _______ _______ _____ _____    ______ ____
ROOT
ATOM      1  S   UNL     1      -3.297   7.168  -0.406  0.00  0.00    -0.088 S 
ENDROOT
BRANCH   1   6
ATOM      2  N   UNL     1       1.161   3.485   0.009  0.00  0.00    -0.290 N 
ATOM      3  C   UNL     1      -0.047   4.167  -0.081  0.00  0.00    +0.187 A 
ATOM      4  N   UNL     1      -1.276   3.691  -0.097  0.00  0.00    -0.125 NA
ATOM      5  N   UNL     1      -2.344   4.553  -0.189  0.00  0.00    -0.133 NA
ATOM      6  C   UNL     1      -2.132   5.853  -0.272  0.00  0.00    +0.160 A 
ATOM      7  S   UNL     1      -0.348   5.923  -0.215  0.00  0.00    -0.024 S 
ATOM      8  H   UNL     1       1.998   3.967  -0.081  0.00  0.00    +0.154 HD
BRANCH   2  13
ATOM      9  C   UNL     1      -0.000   0.076   0.748  0.00  0.00    +0.002 A 
ATOM     10  C   UNL     1       1.186  -0.630   0.664  0.00  0.00    +0.003 A 
ATOM     11  C   UNL     1       2.365   0.027   0.364  0.00  0.00    +0.040 A 
ATOM     12  C   UNL     1       2.362   1.392   0.146  0.00  0.00    +0.144 A 
ATOM     13  C   UNL     1       1.170   2.104   0.229  0.00  0.00    +0.068 A 
ATOM     14  C   UNL     1      -0.012   1.440   0.531  0.00  0.00    +0.026 A 
ATOM     15  F   UNL     1       3.514   2.034  -0.146  0.00  0.00    -0.204 F 
ENDBRANCH   2  13
ENDBRANCH   1   6
BRANCH   1  16
ATOM     16  C   UNL     1      -4.906   6.331  -0.403  0.00  0.00    +0.172 C 
BRANCH  16  17
ATOM     17  C   UNL     1      -6.006   7.355  -0.514  0.00  0.00    +0.228 C 
ATOM     18  O   UNL     1      -5.731   8.534  -0.588  0.00  0.00    -0.275 OA
ATOM     19  N   UNL     1      -7.295   6.961  -0.531  0.00  0.00    -0.279 N 
ATOM     20  H   UNL     1      -7.515   6.018  -0.473  0.00  0.00    +0.155 HD
BRANCH  19  21
ATOM     21  C   UNL     1      -8.307   7.904  -0.633  0.00  0.00    +0.084 A 
ATOM     22  C   UNL     1      -9.680   7.695  -0.672  0.00  0.00    +0.065 A 
ATOM     23  C   UNL     1     -10.512   8.870  -0.779  0.00  0.00    +0.022 A 
ATOM     24  C   UNL     1      -9.889  10.060  -0.842  0.00  0.00    +0.048 A 
ATOM     25  S   UNL     1      -8.165   9.625  -0.750  0.00  0.00    -0.081 S 
BRANCH  22  26
ATOM     26  C   UNL     1     -10.256   6.348  -0.605  0.00  0.00    +0.244 C 
ATOM     27  O   UNL     1      -9.526   5.378  -0.512  0.00  0.00    -0.270 OA
ATOM     28  N   UNL     1     -11.593   6.184  -0.646  0.00  0.00    -0.325 N 
ATOM     29  H   UNL     1     -12.174   6.957  -0.720  0.00  0.00    +0.145 HD
ATOM     30  H   UNL     1     -11.974   5.293  -0.601  0.00  0.00    +0.145 HD
ENDBRANCH  22  26
ENDBRANCH  19  21
ENDBRANCH  16  17
ENDBRANCH   1  16
TORSDOF 6
