REMARK  Name = ZINC18200296
REMARK  5 active torsions:
REMARK  status: ('A' for Active; 'I' for Inactive)
REMARK    1  A    between atoms: C_4  and  N_7
REMARK    2  A    between atoms: C_17  and  C_19
REMARK    3  A    between atoms: C_22  and  O_25
REMARK    4  A    between atoms: O_25  and  C_26
REMARK    5  A    between atoms: C_33  and  C_36
REMARK                            x       y       z     vdW  Elec       q    Type
REMARK                         _______ _______ _______ _____ _____    ______ ____
ROOT
ATOM      1  N   UNL     1      -3.331   2.322  -0.091  0.00  0.00    -0.218 N 
ATOM      2  C   UNL     1      -2.588   3.395   0.257  0.00  0.00    +0.278 A 
ATOM      3  O   UNL     1      -3.006   4.520   0.469  0.00  0.00    -0.265 OA
ATOM      4  C   UNL     1      -1.256   2.986   0.333  0.00  0.00    +0.070 A 
ATOM      5  C   UNL     1      -1.202   1.651   0.017  0.00  0.00    +0.125 A 
ATOM      6  N   UNL     1      -2.468   1.224  -0.238  0.00  0.00    -0.277 N 
ATOM      7  H   UNL     1      -2.728   0.322  -0.482  0.00  0.00    +0.189 HD
ATOM      8  N   UNL     1      -0.011   0.966   0.007  0.00  0.00    -0.303 N 
ATOM      9  C   UNL     1       1.163   1.684   0.000  0.00  0.00    +0.017 C 
ATOM     10  C   UNL     1       1.208   2.996   0.305  0.00  0.00    +0.024 C 
ATOM     11  C   UNL     1      -0.030   3.782   0.682  0.00  0.00    +0.092 C 
ATOM     12  C   UNL     1       2.427   3.701   0.289  0.00  0.00    +0.162 C 
ATOM     13  O   UNL     1       2.429   4.889   0.544  0.00  0.00    -0.292 OA
ATOM     14  C   UNL     1       3.725   3.018  -0.037  0.00  0.00    +0.091 C 
ATOM     15  C   UNL     1       3.620   1.540   0.355  0.00  0.00    +0.068 C 
ATOM     16  C   UNL     1       2.421   0.934  -0.376  0.00  0.00    +0.063 C 
ATOM     17  H   UNL     1       0.002  -0.004   0.002  0.00  0.00    +0.153 HD
ENDROOT
BRANCH   1  21
ATOM     18  C   UNL     1      -7.461   2.277  -0.633  0.00  0.00    +0.000 A 
ATOM     19  C   UNL     1      -6.729   1.117  -0.812  0.00  0.00    +0.002 A 
ATOM     20  C   UNL     1      -5.360   1.129  -0.633  0.00  0.00    +0.028 A 
ATOM     21  C   UNL     1      -4.718   2.307  -0.273  0.00  0.00    +0.067 A 
ATOM     22  C   UNL     1      -5.457   3.468  -0.089  0.00  0.00    +0.028 A 
ATOM     23  C   UNL     1      -6.825   3.451  -0.275  0.00  0.00    +0.002 A 
ENDBRANCH   1  21
BRANCH  11  24
ATOM     24  C   UNL     1      -0.016   4.060   2.163  0.00  0.00    -0.035 A 
ATOM     25  C   UNL     1      -0.006   3.009   3.062  0.00  0.00    +0.008 A 
ATOM     26  C   UNL     1       0.012   3.261   4.421  0.00  0.00    +0.046 A 
ATOM     27  C   UNL     1       0.008   4.569   4.883  0.00  0.00    +0.130 A 
ATOM     28  C   UNL     1      -0.009   5.622   3.978  0.00  0.00    +0.046 A 
ATOM     29  C   UNL     1      -0.021   5.364   2.621  0.00  0.00    +0.008 A 
BRANCH  27  30
ATOM     30  O   UNL     1       0.019   4.819   6.218  0.00  0.00    -0.406 OA
BRANCH  30  31
ATOM     31  C   UNL     1       0.036   3.688   7.090  0.00  0.00    +0.575 C 
ATOM     32  F   UNL     1       1.181   2.924   6.841  0.00  0.00    -0.133 F 
ATOM     33  F   UNL     1       0.046   4.123   8.420  0.00  0.00    -0.133 F 
ATOM     34  F   UNL     1      -1.103   2.907   6.864  0.00  0.00    -0.133 F 
ENDBRANCH  30  31
ENDBRANCH  27  30
ENDBRANCH  11  24
BRANCH  15  35
ATOM     35  C   UNL     1       4.879   0.817  -0.046  0.00  0.00    +0.109 A 
ATOM     36  C   UNL     1       5.715   0.170   0.786  0.00  0.00    +0.045 A 
ATOM     37  C   UNL     1       6.757  -0.358  -0.009  0.00  0.00    +0.041 A 
ATOM     38  C   UNL     1       6.497  -0.003  -1.280  0.00  0.00    +0.195 A 
ATOM     39  O   UNL     1       5.355   0.704  -1.297  0.00  0.00    -0.468 OA
ENDBRANCH  15  35
TORSDOF 5
