REMARK  Name = ZINC24973726
REMARK  7 active torsions:
REMARK  status: ('A' for Active; 'I' for Inactive)
REMARK    1  A    between atoms: C_1  and  S_2
REMARK    2  A    between atoms: S_2  and  C_5
REMARK    3  A    between atoms: N_16  and  C_17
REMARK    4  A    between atoms: N_22  and  C_24
REMARK    5  A    between atoms: C_24  and  C_25
REMARK    6  A    between atoms: C_30  and  S_31
REMARK    7  A    between atoms: S_31  and  C_34
REMARK                            x       y       z     vdW  Elec       q    Type
REMARK                         _______ _______ _______ _____ _____    ______ ____
ROOT
ATOM      1  C   UNL     1       5.757  -3.633   0.364  0.00  0.00    +0.058 C 
ATOM      2  C   UNL     1       5.533  -4.184  -1.046  0.00  0.00    +0.018 C 
ATOM      3  C   UNL     1       6.013  -5.637  -1.100  0.00  0.00    -0.017 C 
ATOM      4  C   UNL     1       7.489  -5.697  -0.699  0.00  0.00    -0.078 C 
ATOM      5  N   UNL     1       7.651  -5.159   0.658  0.00  0.00    +0.384 N 
ATOM      6  C   UNL     1       7.240  -3.751   0.723  0.00  0.00    -0.056 C 
ATOM      7  H   UNL     1       6.991  -5.732   1.326  0.00  0.00    -0.081 HD
ENDROOT
BRANCH   1  19
ATOM      8  C   UNL     1      -0.082   1.138   0.975  0.00  0.00    +0.088 A 
ATOM      9  C   UNL     1      -0.027  -0.244   0.967  0.00  0.00    +0.029 A 
ATOM     10  C   UNL     1       1.184  -0.889   0.841  0.00  0.00    +0.026 A 
ATOM     11  C   UNL     1       2.365  -0.154   0.722  0.00  0.00    +0.041 A 
ATOM     12  C   UNL     1       2.299   1.230   0.731  0.00  0.00    -0.023 A 
ATOM     13  C   UNL     1       1.083   1.873   0.857  0.00  0.00    +0.032 A 
ATOM     14  C   UNL     1       3.701   1.779   0.588  0.00  0.00    +0.056 C 
ATOM     15  C   UNL     1       4.597   0.533   0.493  0.00  0.00    +0.120 C 
ATOM     16  N   UNL     1       3.681  -0.607   0.585  0.00  0.00    -0.255 N 
ATOM     17  C   UNL     1       4.052  -1.901   0.544  0.00  0.00    +0.307 C 
ATOM     18  O   UNL     1       3.213  -2.777   0.628  0.00  0.00    -0.252 OA
ATOM     19  N   UNL     1       5.354  -2.225   0.409  0.00  0.00    -0.298 N 
ATOM     20  H   UNL     1       6.113  -1.433   0.333  0.00  0.00    +0.150 HD
BRANCH   8  22
ATOM     21  C   UNL     1      -1.873   2.174   2.914  0.00  0.00    +0.200 C 
ATOM     22  S   UNL     1      -1.633   1.960   1.128  0.00  0.00    -0.006 S 
ATOM     23  O   UNL     1      -1.438   3.222   0.506  0.00  0.00    -0.170 OA
ATOM     24  O   UNL     1      -2.584   1.038   0.614  0.00  0.00    -0.170 OA
ENDBRANCH   8  22
ENDBRANCH   1  19
BRANCH   5  25
ATOM     25  C   UNL     1       9.032  -5.328   1.129  0.00  0.00    -0.041 C 
BRANCH  25  26
ATOM     26  C   UNL     1       9.943  -4.411   0.354  0.00  0.00    -0.039 A 
ATOM     27  C   UNL     1       9.822  -3.040   0.489  0.00  0.00    +0.003 A 
ATOM     28  C   UNL     1      10.660  -2.199  -0.218  0.00  0.00    +0.000 A 
ATOM     29  C   UNL     1      11.613  -2.729  -1.068  0.00  0.00    +0.002 A 
ATOM     30  C   UNL     1      11.731  -4.099  -1.207  0.00  0.00    +0.027 A 
ATOM     31  C   UNL     1      10.895  -4.940  -0.496  0.00  0.00    +0.089 A 
BRANCH  31  32
ATOM     32  S   UNL     1      11.045  -6.687  -0.673  0.00  0.00    -0.006 S 
ATOM     33  O   UNL     1       9.727  -7.136  -0.958  0.00  0.00    -0.170 OA
ATOM     34  O   UNL     1      12.091  -6.867  -1.618  0.00  0.00    -0.170 OA
ATOM     35  C   UNL     1      11.568  -7.278   0.960  0.00  0.00    +0.200 C 
ENDBRANCH  31  32
ENDBRANCH  25  26
ENDBRANCH   5  25
TORSDOF 5
