REMARK  Name = ZINC36603066
REMARK  14 active torsions:
REMARK  status: ('A' for Active; 'I' for Inactive)
REMARK    1  A    between atoms: C_1  and  C_2
REMARK    2  A    between atoms: C_5  and  C_7
REMARK    3  A    between atoms: C_7  and  N_8
REMARK    4  A    between atoms: N_8  and  C_9
REMARK    5  A    between atoms: C_9  and  C_11
REMARK    6  A    between atoms: C_9  and  C_23
REMARK    7  A    between atoms: C_20  and  O_21
REMARK    8  A    between atoms: O_21  and  C_22
REMARK    9  A    between atoms: N_25  and  C_26
REMARK   10  A    between atoms: C_26  and  C_27
REMARK   11  A    between atoms: C_26  and  C_28
REMARK   12  A    between atoms: C_26  and  C_29
REMARK   13  A    between atoms: C_30  and  C_32
REMARK   14  A    between atoms: C_35  and  N_38
REMARK                            x       y       z     vdW  Elec       q    Type
REMARK                         _______ _______ _______ _____ _____    ______ ____
ROOT
ATOM      1  C   UNL     1       3.014  -2.847  -1.554  0.00  0.00    +0.197 C 
ENDROOT
BRANCH   1   2
ATOM      2  C   UNL     1       4.037  -3.122  -0.482  0.00  0.00    +0.031 A 
ATOM      3  C   UNL     1       5.355  -3.455  -0.833  0.00  0.00    -0.009 A 
ATOM      4  C   UNL     1       5.752  -3.540  -2.178  0.00  0.00    +0.009 A 
ATOM      5  C   UNL     1       7.038  -3.865  -2.482  0.00  0.00    +0.001 A 
ATOM      6  C   UNL     1       7.971  -4.116  -1.477  0.00  0.00    +0.001 A 
ATOM      7  C   UNL     1       7.623  -4.043  -0.164  0.00  0.00    +0.008 A 
ATOM      8  C   UNL     1       6.304  -3.710   0.189  0.00  0.00    -0.017 A 
ATOM      9  C   UNL     1       5.909  -3.625   1.536  0.00  0.00    +0.012 A 
ATOM     10  C   UNL     1       4.625  -3.300   1.843  0.00  0.00    +0.046 A 
ATOM     11  C   UNL     1       3.688  -3.043   0.837  0.00  0.00    +0.126 A 
BRANCH  11  12
ATOM     12  O   UNL     1       2.414  -2.715   1.175  0.00  0.00    -0.495 OA
ATOM     13  C   UNL     1       2.137  -2.537   2.565  0.00  0.00    +0.277 C 
ENDBRANCH  11  12
ENDBRANCH   1   2
BRANCH   1  14
ATOM     14  C   UNL     1       2.486  -1.444  -1.397  0.00  0.00    +0.239 C 
ATOM     15  O   UNL     1       1.321  -1.262  -1.114  0.00  0.00    -0.273 OA
ATOM     16  N   UNL     1       3.309  -0.391  -1.570  0.00  0.00    -0.309 N 
ATOM     17  H   UNL     1       4.242  -0.536  -1.796  0.00  0.00    +0.149 HD
BRANCH  16  18
ATOM     18  C   UNL     1       2.797   0.973  -1.417  0.00  0.00    +0.026 C 
ATOM     19  C   UNL     1       2.254   1.158   0.001  0.00  0.00    +0.031 C 
ATOM     20  C   UNL     1       3.927   1.974  -1.665  0.00  0.00    +0.031 C 
ATOM     21  C   UNL     1       1.673   1.211  -2.429  0.00  0.00    +0.031 C 
ENDBRANCH  16  18
ENDBRANCH   1  14
BRANCH   1  22
ATOM     22  N   UNL     1       1.909  -3.801  -1.430  0.00  0.00    -0.274 N 
ATOM     23  C   UNL     1       0.887  -3.766  -2.309  0.00  0.00    +0.248 C 
ATOM     24  O   UNL     1       0.134  -4.715  -2.404  0.00  0.00    -0.270 OA
BRANCH  23  25
ATOM     25  C   UNL     1       0.681  -2.572  -3.156  0.00  0.00    +0.037 A 
ATOM     26  C   UNL     1       1.758  -1.738  -3.466  0.00  0.00    +0.015 A 
ATOM     27  C   UNL     1       1.559  -0.626  -4.258  0.00  0.00    +0.033 A 
ATOM     28  C   UNL     1       0.297  -0.336  -4.744  0.00  0.00    +0.126 A 
ATOM     29  C   UNL     1      -0.774  -1.158  -4.441  0.00  0.00    +0.033 A 
ATOM     30  C   UNL     1      -0.588  -2.276  -3.655  0.00  0.00    +0.015 A 
BRANCH  28  31
ATOM     31  N   UNL     1       0.091   0.859  -5.593  0.00  0.00    +0.056 N 
ATOM     32  O   UNL     1       1.025   1.579  -5.859  0.00  0.00    -0.126 OA
ATOM     33  O   UNL     1      -1.011   1.115  -6.020  0.00  0.00    -0.126 OA
ENDBRANCH  28  31
ENDBRANCH  23  25
BRANCH  22  34
ATOM     34  C   UNL     1       1.914  -4.793  -0.352  0.00  0.00    +0.183 C 
BRANCH  34  39
ATOM     35  C   UNL     1       2.971  -9.341  -2.259  0.00  0.00    +0.086 C 
ATOM     36  C   UNL     1       3.147  -7.987  -1.622  0.00  0.00    +0.102 A 
ATOM     37  C   UNL     1       4.313  -7.454  -1.215  0.00  0.00    +0.045 A 
ATOM     38  C   UNL     1       4.017  -6.179  -0.681  0.00  0.00    +0.046 A 
ATOM     39  C   UNL     1       2.687  -6.009  -0.793  0.00  0.00    +0.122 A 
ATOM     40  O   UNL     1       2.166  -7.105  -1.369  0.00  0.00    -0.463 OA
ENDBRANCH  34  39
ENDBRANCH  22  34
ENDBRANCH   1  22
TORSDOF 9
