REMARK  Name = ZINC14544801
REMARK  7 active torsions:
REMARK  status: ('A' for Active; 'I' for Inactive)
REMARK    1  A    between atoms: C_1  and  C_2
REMARK    2  A    between atoms: C_2  and  C_3
REMARK    3  A    between atoms: C_2  and  C_4
REMARK    4  A    between atoms: C_2  and  N_5
REMARK    5  A    between atoms: N_5  and  S_6
REMARK    6  A    between atoms: S_6  and  C_9
REMARK    7  A    between atoms: C_22  and  C_25
REMARK                            x       y       z     vdW  Elec       q    Type
REMARK                         _______ _______ _______ _____ _____    ______ ____
ROOT
ATOM      1  C   UNL     1       3.639   2.864   0.483  0.00  0.00    +0.106 A 
ATOM      2  C   UNL     1       4.203   1.601   0.482  0.00  0.00    +0.030 A 
ATOM      3  C   UNL     1       3.413   0.499   0.738  0.00  0.00    +0.025 A 
ATOM      4  C   UNL     1       2.057   0.660   0.994  0.00  0.00    +0.031 A 
ATOM      5  C   UNL     1       1.486   1.923   0.994  0.00  0.00    -0.018 A 
ATOM      6  C   UNL     1       2.292   3.025   0.737  0.00  0.00    +0.034 A 
ATOM      7  C   UNL     1       0.032   2.145   1.261  0.00  0.00    +0.049 C 
ATOM      8  C   UNL     1      -0.198   2.701   2.646  0.00  0.00    -0.023 C 
ATOM      9  C   UNL     1      -1.299   2.207   3.157  0.00  0.00    -0.030 C 
ATOM     10  C   UNL     1      -1.958   1.256   2.177  0.00  0.00    +0.033 C 
ATOM     11  C   UNL     1      -0.790   0.841   1.235  0.00  0.00    +0.029 C 
ATOM     12  C   UNL     1      -0.017  -0.277   1.931  0.00  0.00    +0.107 C 
ATOM     13  N   UNL     1       1.269  -0.467   1.253  0.00  0.00    -0.336 N 
ATOM     14  H   UNL     1       1.565  -1.352   0.986  0.00  0.00    +0.147 HD
ENDROOT
BRANCH  12  15
ATOM     15  C   UNL     1       0.222   0.102   3.370  0.00  0.00    -0.002 A 
ATOM     16  C   UNL     1       1.318   0.696   3.867  0.00  0.00    +0.089 A 
ATOM     17  N   UNL     1       1.176   0.884   5.215  0.00  0.00    -0.360 N 
ATOM     18  H   UNL     1       1.837   1.295   5.794  0.00  0.00    +0.165 HD
ATOM     19  C   UNL     1      -0.046   0.402   5.629  0.00  0.00    +0.047 A 
ATOM     20  C   UNL     1      -0.700  -0.104   4.490  0.00  0.00    +0.005 A 
ATOM     21  C   UNL     1      -1.970  -0.669   4.610  0.00  0.00    +0.010 A 
ATOM     22  C   UNL     1      -2.579  -0.717   5.832  0.00  0.00    +0.001 A 
ATOM     23  C   UNL     1      -1.941  -0.215   6.958  0.00  0.00    +0.002 A 
ATOM     24  C   UNL     1      -0.684   0.342   6.863  0.00  0.00    +0.026 A 
ENDBRANCH  12  15
BRANCH   1  25
ATOM     25  S   UNL     1       4.645   4.274   0.161  0.00  0.00    +0.059 S 
ATOM     26  O   UNL     1       5.867   3.787  -0.377  0.00  0.00    -0.153 OA
ATOM     27  O   UNL     1       3.826   5.207  -0.532  0.00  0.00    -0.153 OA
BRANCH  25  28
ATOM     28  N   UNL     1       5.011   4.960   1.623  0.00  0.00    -0.185 NA
ATOM     29  H   UNL     1       4.654   5.833   1.852  0.00  0.00    +0.149 HD
BRANCH  28  31
ATOM     30  C   UNL     1       7.283   4.134   1.990  0.00  0.00    +0.029 C 
ATOM     31  C   UNL     1       5.872   4.248   2.571  0.00  0.00    +0.032 C 
ATOM     32  C   UNL     1       5.924   5.020   3.891  0.00  0.00    +0.029 C 
ATOM     33  C   UNL     1       5.308   2.848   2.820  0.00  0.00    +0.029 C 
ENDBRANCH  28  31
ENDBRANCH  25  28
ENDBRANCH   1  25
TORSDOF 4
