REMARK  Name = ZINC06803670
REMARK  6 active torsions:
REMARK  status: ('A' for Active; 'I' for Inactive)
REMARK    1  A    between atoms: C_4  and  C_7
REMARK    2  A    between atoms: C_7  and  N_8
REMARK    3  A    between atoms: C_15  and  C_20
REMARK    4  A    between atoms: C_16  and  C_17
REMARK    5  A    between atoms: C_20  and  N_21
REMARK    6  A    between atoms: N_21  and  C_22
REMARK                            x       y       z     vdW  Elec       q    Type
REMARK                         _______ _______ _______ _____ _____    ______ ____
ROOT
ATOM      1  N   UNL     1       4.590  -0.474   1.723  0.00  0.00    -0.330 N 
ATOM      2  C   UNL     1       5.311   0.231   2.657  0.00  0.00    +0.050 A 
ATOM      3  C   UNL     1       5.943   1.471   2.635  0.00  0.00    +0.026 A 
ATOM      4  C   UNL     1       6.603   1.923   3.755  0.00  0.00    +0.002 A 
ATOM      5  C   UNL     1       6.647   1.153   4.910  0.00  0.00    +0.001 A 
ATOM      6  C   UNL     1       6.036  -0.065   4.957  0.00  0.00    +0.010 A 
ATOM      7  C   UNL     1       5.356  -0.548   3.831  0.00  0.00    +0.002 A 
ATOM      8  C   UNL     1       4.640  -1.739   3.565  0.00  0.00    -0.025 A 
ATOM      9  C   UNL     1       4.181  -1.669   2.285  0.00  0.00    +0.134 A 
ENDROOT
BRANCH   9  10
ATOM     10  C   UNL     1       3.384  -2.698   1.611  0.00  0.00    +0.403 C 
ATOM     11  O   UNL     1       3.025  -2.532   0.452  0.00  0.00    -0.239 OA
ATOM     12  O   UNL     1       3.076  -3.722   2.206  0.00  0.00    -0.239 OA
ENDBRANCH   9  10
BRANCH   1  13
ATOM     13  C   UNL     1       4.299  -0.030   0.358  0.00  0.00    +0.157 C 
BRANCH  13  17
ATOM     14  C   UNL     1       0.636   2.169   0.326  0.00  0.00    +0.000 A 
ATOM     15  C   UNL     1       1.835   2.826   0.532  0.00  0.00    +0.000 A 
ATOM     16  C   UNL     1       3.020   2.114   0.543  0.00  0.00    +0.005 A 
ATOM     17  C   UNL     1       3.007   0.746   0.347  0.00  0.00    -0.028 A 
ATOM     18  C   UNL     1       1.808   0.089   0.142  0.00  0.00    +0.005 A 
ATOM     19  C   UNL     1       0.623   0.800   0.130  0.00  0.00    +0.000 A 
ENDBRANCH  13  17
ENDBRANCH   1  13
BRANCH   8  20
ATOM     20  C   UNL     1       4.419  -2.877   4.528  0.00  0.00    -0.043 C 
BRANCH  20  21
ATOM     21  N   UNL     1       3.182  -2.645   5.285  0.00  0.00    +0.386 N 
ATOM     22  H   UNL     1       3.225  -1.740   5.729  0.00  0.00    -0.085 HD
ATOM     23  H   UNL     1       2.393  -2.675   4.657  0.00  0.00    -0.085 HD
BRANCH  21  24
ATOM     24  C   UNL     1       3.032  -3.687   6.309  0.00  0.00    -0.040 C 
ATOM     25  C   UNL     1       2.858  -5.043   5.627  0.00  0.00    -0.011 C 
ATOM     26  C   UNL     1       2.487  -6.078   6.696  0.00  0.00    +0.003 C 
ATOM     27  C   UNL     1       1.071  -5.780   7.183  0.00  0.00    +0.035 C 
ATOM     28  C   UNL     1       0.939  -4.331   7.575  0.00  0.00    -0.046 A 
ATOM     29  C   UNL     1       1.837  -3.370   7.170  0.00  0.00    -0.058 A 
ATOM     30  C   UNL     1       1.653  -2.050   7.560  0.00  0.00    +0.002 A 
ATOM     31  C   UNL     1       0.581  -1.696   8.352  0.00  0.00    +0.000 A 
ATOM     32  C   UNL     1      -0.319  -2.662   8.761  0.00  0.00    +0.000 A 
ATOM     33  C   UNL     1      -0.139  -3.973   8.374  0.00  0.00    +0.004 A 
ENDBRANCH  21  24
ENDBRANCH  20  21
ENDBRANCH   8  20
TORSDOF 6
