REMARK  Name = ZINC39698450
REMARK  4 active torsions:
REMARK  status: ('A' for Active; 'I' for Inactive)
REMARK    1  A    between atoms: C_4  and  C_7
REMARK    2  A    between atoms: C_10  and  C_13
REMARK    3  A    between atoms: C_28  and  N_32
REMARK    4  A    between atoms: C_29  and  C_30
REMARK                            x       y       z     vdW  Elec       q    Type
REMARK                         _______ _______ _______ _____ _____    ______ ____
ROOT
ATOM      1  C   UNL     1       7.434  -2.768  -0.085  0.00  0.00    +0.084 C 
ATOM      2  C   UNL     1       7.520  -3.633  -1.347  0.00  0.00    +0.154 C 
ATOM      3  C   UNL     1       8.653  -4.612  -1.088  0.00  0.00    +0.129 C 
ATOM      4  C   UNL     1       9.730  -4.608  -1.961  0.00  0.00    +0.035 A 
ATOM      5  C   UNL     1      10.810  -5.500  -1.796  0.00  0.00    +0.013 A 
ATOM      6  C   UNL     1      11.847  -5.470  -2.677  0.00  0.00    +0.001 A 
ATOM      7  C   UNL     1      11.867  -4.574  -3.741  0.00  0.00    +0.002 A 
ATOM      8  C   UNL     1      10.855  -3.685  -3.950  0.00  0.00    +0.024 A 
ATOM      9  C   UNL     1       9.753  -3.658  -3.080  0.00  0.00    +0.044 A 
ATOM     10  N   UNL     1       8.763  -2.780  -3.281  0.00  0.00    -0.284 N 
ATOM     11  C   UNL     1       7.668  -2.695  -2.524  0.00  0.00    +0.229 C 
ATOM     12  O   UNL     1       6.801  -1.875  -2.763  0.00  0.00    -0.275 OA
ATOM     13  O   UNL     1       8.568  -5.420  -0.029  0.00  0.00    -0.444 OA
ATOM     14  C   UNL     1       8.085  -4.874   1.113  0.00  0.00    +0.198 C 
ATOM     15  C   UNL     1       7.537  -3.640   1.136  0.00  0.00    +0.095 C 
ATOM     16  H   UNL     1       8.841  -2.168  -4.030  0.00  0.00    +0.155 HD
ENDROOT
BRANCH   1  20
ATOM     17  C   UNL     1       3.699  -0.689  -0.037  0.00  0.00    -0.018 A 
ATOM     18  C   UNL     1       4.896   0.024  -0.040  0.00  0.00    +0.009 A 
ATOM     19  C   UNL     1       6.099  -0.652  -0.055  0.00  0.00    +0.005 A 
ATOM     20  C   UNL     1       6.118  -2.035  -0.068  0.00  0.00    -0.038 A 
ATOM     21  C   UNL     1       4.932  -2.748  -0.066  0.00  0.00    +0.005 A 
ATOM     22  C   UNL     1       3.724  -2.082  -0.045  0.00  0.00    +0.009 A 
BRANCH  17  26
ATOM     23  C   UNL     1      -0.017   1.379   0.010  0.00  0.00    +0.000 A 
ATOM     24  C   UNL     1       1.169   2.092   0.002  0.00  0.00    +0.001 A 
ATOM     25  C   UNL     1       2.377   1.426  -0.013  0.00  0.00    +0.008 A 
ATOM     26  C   UNL     1       2.402   0.033  -0.021  0.00  0.00    -0.018 A 
ATOM     27  C   UNL     1       1.205  -0.680  -0.013  0.00  0.00    +0.008 A 
ATOM     28  C   UNL     1       0.002  -0.004   0.002  0.00  0.00    +0.001 A 
ENDBRANCH  17  26
ENDBRANCH   1  20
BRANCH  14  29
ATOM     29  N   UNL     1       8.155  -5.595   2.279  0.00  0.00    -0.328 N 
ATOM     30  H   UNL     1       8.546  -6.483   2.277  0.00  0.00    +0.145 HD
ATOM     31  H   UNL     1       7.814  -5.217   3.104  0.00  0.00    +0.145 HD
ENDBRANCH  14  29
BRANCH  15  32
ATOM     32  C   UNL     1       7.032  -3.140   2.379  0.00  0.00    +0.100 C 
ATOM     33  N   UNL     1       6.631  -2.744   3.365  0.00  0.00    -0.191 NA
ENDBRANCH  15  32
TORSDOF 4
