REMARK  Name = ZINC06006437
REMARK  15 active torsions:
REMARK  status: ('A' for Active; 'I' for Inactive)
REMARK    1  A    between atoms: C_1  and  C_2
REMARK    2  A    between atoms: C_2  and  C_3
REMARK    3  A    between atoms: C_2  and  C_4
REMARK    4  A    between atoms: C_2  and  O_5
REMARK    5  A    between atoms: O_5  and  C_6
REMARK    6  A    between atoms: N_8  and  C_9
REMARK    7  A    between atoms: C_15  and  N_17
REMARK    8  A    between atoms: C_18  and  C_20
REMARK    9  A    between atoms: N_22  and  C_23
REMARK   10  A    between atoms: C_29  and  N_31
REMARK   11  A    between atoms: C_32  and  O_34
REMARK   12  A    between atoms: O_34  and  C_35
REMARK   13  A    between atoms: C_35  and  C_36
REMARK   14  A    between atoms: C_35  and  C_37
REMARK   15  A    between atoms: C_35  and  C_38
REMARK                            x       y       z     vdW  Elec       q    Type
REMARK                         _______ _______ _______ _____ _____    ______ ____
ROOT
ATOM      1  N   UNL     1       1.338   5.910   2.257  0.00  0.00    -0.303 N 
ATOM      2  C   UNL     1       0.284   5.224   1.770  0.00  0.00    +0.299 C 
ATOM      3  O   UNL     1      -0.680   5.820   1.338  0.00  0.00    -0.265 OA
ATOM      4  H   UNL     1       2.109   5.433   2.602  0.00  0.00    +0.149 HD
ENDROOT
BRANCH   1  10
ATOM      5  C   UNL     1       2.248   7.891   3.364  0.00  0.00    +0.096 C 
ATOM      6  C   UNL     1       2.228   9.421   3.372  0.00  0.00    +0.024 C 
ATOM      7  C   UNL     1       2.701   9.945   2.015  0.00  0.00    +0.002 C 
ATOM      8  C   UNL     1       1.770   9.428   0.916  0.00  0.00    +0.002 C 
ATOM      9  C   UNL     1       1.791   7.898   0.908  0.00  0.00    +0.024 C 
ATOM     10  C   UNL     1       1.318   7.374   2.265  0.00  0.00    +0.094 C 
BRANCH   5  13
ATOM     11  C   UNL     1       2.670   7.267   5.681  0.00  0.00    +0.401 C 
ATOM     12  O   UNL     1       3.835   7.573   5.521  0.00  0.00    -0.226 OA
ATOM     13  N   UNL     1       1.795   7.389   4.664  0.00  0.00    -0.276 N 
ATOM     14  H   UNL     1       0.865   7.145   4.792  0.00  0.00    +0.152 HD
BRANCH  11  15
ATOM     15  O   UNL     1       2.254   6.806   6.876  0.00  0.00    -0.445 OA
BRANCH  15  17
ATOM     16  C   UNL     1       3.847   8.081   8.204  0.00  0.00    +0.055 C 
ATOM     17  C   UNL     1       3.251   6.700   7.926  0.00  0.00    +0.107 C 
ATOM     18  C   UNL     1       2.595   6.162   9.199  0.00  0.00    +0.055 C 
ATOM     19  C   UNL     1       4.361   5.745   7.481  0.00  0.00    +0.055 C 
ENDBRANCH  15  17
ENDBRANCH  11  15
ENDBRANCH   5  13
ENDBRANCH   1  10
BRANCH   2  20
ATOM     20  C   UNL     1       0.305   3.730   1.762  0.00  0.00    +0.299 C 
ATOM     21  O   UNL     1       1.269   3.134   2.194  0.00  0.00    -0.265 OA
ATOM     22  N   UNL     1      -0.749   3.044   1.275  0.00  0.00    -0.303 N 
ATOM     23  H   UNL     1      -1.520   3.521   0.930  0.00  0.00    +0.149 HD
BRANCH  22  24
ATOM     24  C   UNL     1      -0.729   1.579   1.267  0.00  0.00    +0.094 C 
ATOM     25  C   UNL     1      -0.013   1.086   0.008  0.00  0.00    +0.024 C 
ATOM     26  C   UNL     1      -0.753   1.593  -1.232  0.00  0.00    +0.002 C 
ATOM     27  C   UNL     1      -2.188   1.063  -1.221  0.00  0.00    +0.002 C 
ATOM     28  C   UNL     1      -2.904   1.556   0.038  0.00  0.00    +0.024 C 
ATOM     29  C   UNL     1      -2.164   1.050   1.278  0.00  0.00    +0.096 C 
BRANCH  29  30
ATOM     30  N   UNL     1      -2.850   1.522   2.483  0.00  0.00    -0.276 N 
ATOM     31  C   UNL     1      -3.893   0.828   2.981  0.00  0.00    +0.401 C 
ATOM     32  O   UNL     1      -4.264  -0.189   2.430  0.00  0.00    -0.226 OA
ATOM     33  H   UNL     1      -2.554   2.334   2.923  0.00  0.00    +0.152 HD
BRANCH  31  34
ATOM     34  O   UNL     1      -4.523   1.263   4.088  0.00  0.00    -0.445 OA
BRANCH  34  35
ATOM     35  C   UNL     1      -5.638   0.465   4.568  0.00  0.00    +0.107 C 
ATOM     36  C   UNL     1      -5.150  -0.947   4.899  0.00  0.00    +0.055 C 
ATOM     37  C   UNL     1      -6.223   1.111   5.826  0.00  0.00    +0.055 C 
ATOM     38  C   UNL     1      -6.715   0.391   3.484  0.00  0.00    +0.055 C 
ENDBRANCH  34  35
ENDBRANCH  31  34
ENDBRANCH  29  30
ENDBRANCH  22  24
ENDBRANCH   2  20
TORSDOF 9
