REMARK  Name = ZINC09015229
REMARK  10 active torsions:
REMARK  status: ('A' for Active; 'I' for Inactive)
REMARK    1  A    between atoms: C_1  and  O_2
REMARK    2  A    between atoms: O_2  and  C_3
REMARK    3  A    between atoms: C_5  and  C_13
REMARK    4  A    between atoms: C_6  and  O_11
REMARK    5  A    between atoms: C_8  and  O_9
REMARK    6  A    between atoms: O_9  and  C_10
REMARK    7  A    between atoms: O_11  and  C_12
REMARK    8  A    between atoms: N_14  and  N_15
REMARK    9  A    between atoms: C_16  and  C_18
REMARK   10  A    between atoms: C_20  and  C_24
REMARK                            x       y       z     vdW  Elec       q    Type
REMARK                         _______ _______ _______ _____ _____    ______ ____
ROOT
ATOM      1  N   UNL     1       3.633   0.477   6.201  0.00  0.00    -0.202 N 
ATOM      2  C   UNL     1       4.251  -0.135   7.231  0.00  0.00    +0.281 C 
ATOM      3  O   UNL     1       4.302  -1.350   7.273  0.00  0.00    -0.267 OA
ATOM      4  H   UNL     1       3.592   1.446   6.167  0.00  0.00    +0.178 HD
ENDROOT
BRANCH   2   5
ATOM      5  C   UNL     1       4.863   0.665   8.302  0.00  0.00    +0.122 A 
ATOM      6  C   UNL     1       5.534   0.189   9.415  0.00  0.00    +0.058 A 
ATOM      7  C   UNL     1       5.925   1.325  10.127  0.00  0.00    +0.070 A 
ATOM      8  N   UNL     1       5.507   2.375   9.467  0.00  0.00    -0.178 NA
ATOM      9  N   UNL     1       4.889   2.028   8.395  0.00  0.00    -0.272 N 
ATOM     10  H   UNL     1       4.499   2.640   7.752  0.00  0.00    +0.189 HD
BRANCH   7  11
ATOM     11  C   UNL     1       6.691   1.340  11.424  0.00  0.00    +0.015 C 
ATOM     12  C   UNL     1       7.853   0.348  11.342  0.00  0.00    +0.016 C 
ATOM     13  C   UNL     1       8.631   0.364  12.659  0.00  0.00    -0.010 C 
ATOM     14  C   UNL     1       9.177   1.770  12.913  0.00  0.00    +0.007 C 
ATOM     15  C   UNL     1       8.015   2.762  12.995  0.00  0.00    -0.010 C 
ATOM     16  C   UNL     1       7.237   2.747  11.678  0.00  0.00    +0.016 C 
ATOM     17  C   UNL     1       7.084   2.362  14.142  0.00  0.00    +0.007 C 
ATOM     18  C   UNL     1       6.538   0.956  13.888  0.00  0.00    -0.010 C 
ATOM     19  C   UNL     1       7.700  -0.036  13.806  0.00  0.00    +0.007 C 
ATOM     20  C   UNL     1       5.760   0.941  12.571  0.00  0.00    +0.016 C 
ENDBRANCH   7  11
ENDBRANCH   2   5
BRANCH   1  22
ATOM     21  C   UNL     1       2.454   0.305   4.189  0.00  0.00    +0.142 C 
ATOM     22  N   UNL     1       3.050  -0.285   5.181  0.00  0.00    -0.187 NA
BRANCH  21  25
ATOM     23  C   UNL     1       0.627  -0.619   1.043  0.00  0.00    +0.162 A 
ATOM     24  C   UNL     1       1.200   0.137   2.047  0.00  0.00    +0.062 A 
ATOM     25  C   UNL     1       1.841  -0.496   3.116  0.00  0.00    +0.040 A 
ATOM     26  C   UNL     1       1.899  -1.896   3.162  0.00  0.00    +0.132 A 
ATOM     27  C   UNL     1       1.321  -2.644   2.151  0.00  0.00    +0.095 A 
ATOM     28  C   UNL     1       0.682  -2.010   1.097  0.00  0.00    +0.165 A 
BRANCH  23  30
ATOM     29  C   UNL     1      -0.017   1.425   0.010  0.00  0.00    +0.277 C 
ATOM     30  O   UNL     1       0.002  -0.004   0.002  0.00  0.00    -0.491 OA
ENDBRANCH  23  30
BRANCH  28  31
ATOM     31  O   UNL     1       0.111  -2.749   0.109  0.00  0.00    -0.491 OA
ATOM     32  C   UNL     1       0.204  -4.171   0.226  0.00  0.00    +0.277 C 
ENDBRANCH  28  31
BRANCH  26  33
ATOM     33  O   UNL     1       2.521  -2.517   4.198  0.00  0.00    -0.494 OA
ATOM     34  C   UNL     1       2.542  -3.946   4.180  0.00  0.00    +0.277 C 
ENDBRANCH  26  33
ENDBRANCH  21  25
ENDBRANCH   1  22
TORSDOF 7
