REMARK  Name = ZINC64704955
REMARK  8 active torsions:
REMARK  status: ('A' for Active; 'I' for Inactive)
REMARK    1  A    between atoms: C_1  and  C_2
REMARK    2  A    between atoms: C_2  and  N_3
REMARK    3  A    between atoms: C_4  and  C_6
REMARK    4  A    between atoms: C_6  and  N_7
REMARK    5  A    between atoms: C_8  and  C_10
REMARK    6  A    between atoms: C_10  and  C_11
REMARK    7  A    between atoms: C_11  and  C_12
REMARK    8  A    between atoms: C_20  and  C_22
REMARK                            x       y       z     vdW  Elec       q    Type
REMARK                         _______ _______ _______ _____ _____    ______ ____
ROOT
ATOM      1  C   UNL     1       2.892  -7.917  -4.968  0.00  0.00    -0.034 C 
ATOM      2  C   UNL     1       2.367  -8.742  -4.035  0.00  0.00    +0.002 A 
ATOM      3  C   UNL     1       1.647  -8.493  -2.780  0.00  0.00    +0.048 A 
ATOM      4  C   UNL     1       1.234  -9.549  -2.039  0.00  0.00    +0.124 A 
ATOM      5  C   UNL     1       1.478 -10.872  -2.441  0.00  0.00    +0.040 A 
ATOM      6  C   UNL     1       2.133 -11.178  -3.580  0.00  0.00    +0.029 A 
ATOM      7  C   UNL     1       2.611 -10.147  -4.436  0.00  0.00    +0.043 A 
ATOM      8  N   UNL     1       3.261 -10.188  -5.573  0.00  0.00    -0.374 N 
ATOM      9  C   UNL     1       3.499  -8.812  -6.026  0.00  0.00    +0.137 C 
ATOM     10  F   UNL     1       0.572  -9.324  -0.883  0.00  0.00    -0.205 F 
ATOM     11  H   UNL     1       3.537 -10.992  -6.039  0.00  0.00    +0.161 HD
ENDROOT
BRANCH   9  12
ATOM     12  C   UNL     1       4.979  -8.554  -6.138  0.00  0.00    -0.021 A 
ATOM     13  C   UNL     1       5.850  -9.121  -5.227  0.00  0.00    +0.009 A 
ATOM     14  C   UNL     1       7.208  -8.885  -5.330  0.00  0.00    +0.039 A 
ATOM     15  C   UNL     1       7.696  -8.080  -6.345  0.00  0.00    +0.123 A 
ATOM     16  C   UNL     1       6.822  -7.513  -7.257  0.00  0.00    +0.039 A 
ATOM     17  C   UNL     1       5.465  -7.755  -7.156  0.00  0.00    +0.009 A 
ATOM     18  F   UNL     1       9.023  -7.849  -6.446  0.00  0.00    -0.205 F 
ENDBRANCH   9  12
BRANCH   1  19
ATOM     19  C   UNL     1       2.872  -6.410  -4.960  0.00  0.00    +0.043 C 
BRANCH  19  20
ATOM     20  C   UNL     1       2.155  -5.917  -3.701  0.00  0.00    +0.100 C 
BRANCH  20  22
ATOM     21  N   UNL     1       1.552  -3.749  -2.673  0.00  0.00    -0.307 N 
ATOM     22  C   UNL     1       2.135  -4.410  -3.693  0.00  0.00    +0.214 C 
ATOM     23  O   UNL     1       2.643  -3.792  -4.604  0.00  0.00    -0.276 OA
ATOM     24  H   UNL     1       1.146  -4.244  -1.944  0.00  0.00    +0.149 HD
BRANCH  21  25
ATOM     25  C   UNL     1       1.532  -2.285  -2.665  0.00  0.00    +0.200 C 
BRANCH  25  27
ATOM     26  N   UNL     1       0.688  -0.476  -1.203  0.00  0.00    -0.314 N 
ATOM     27  C   UNL     1       0.827  -1.799  -1.425  0.00  0.00    +0.230 C 
ATOM     28  O   UNL     1       0.384  -2.597  -0.627  0.00  0.00    -0.274 OA
ATOM     29  H   UNL     1       1.042   0.162  -1.842  0.00  0.00    +0.149 HD
BRANCH  26  31
ATOM     30  C   UNL     1      -0.019   1.526   0.010  0.00  0.00    +0.024 C 
ATOM     31  C   UNL     1       0.002  -0.004   0.002  0.00  0.00    +0.101 C 
ENDBRANCH  26  31
ENDBRANCH  25  27
ENDBRANCH  21  25
ENDBRANCH  20  22
ENDBRANCH  19  20
ENDBRANCH   1  19
TORSDOF 7
