REMARK  Name = ZINC00949676
REMARK  8 active torsions:
REMARK  status: ('A' for Active; 'I' for Inactive)
REMARK    1  A    between atoms: C_1  and  C_2
REMARK    2  A    between atoms: C_2  and  O_3
REMARK    3  A    between atoms: O_3  and  C_4
REMARK    4  A    between atoms: C_4  and  C_6
REMARK    5  A    between atoms: C_10  and  N_11
REMARK    6  A    between atoms: C_12  and  C_14
REMARK    7  A    between atoms: C_14  and  C_15
REMARK    8  A    between atoms: C_22  and  C_27
REMARK                            x       y       z     vdW  Elec       q    Type
REMARK                         _______ _______ _______ _____ _____    ______ ____
ROOT
ATOM      1  N   UNL     1      -1.114   2.231   0.020  0.00  0.00    -0.279 N 
ATOM      2  C   UNL     1      -0.935   3.567   0.026  0.00  0.00    +0.219 C 
ATOM      3  O   UNL     1       0.186   4.028   0.023  0.00  0.00    -0.275 OA
ATOM      4  H   UNL     1      -2.011   1.862   0.022  0.00  0.00    +0.155 HD
ENDROOT
BRANCH   1   9
ATOM      5  C   UNL     1       0.002  -0.004   0.002  0.00  0.00    +0.091 A 
ATOM      6  C   UNL     1       1.300  -0.657  -0.014  0.00  0.00    -0.021 A 
ATOM      7  C   UNL     1       2.363   0.175  -0.019  0.00  0.00    -0.004 A 
ATOM      8  S   UNL     1       1.665   1.802  -0.004  0.00  0.00    -0.077 S 
ATOM      9  C   UNL     1      -0.017   1.385   0.010  0.00  0.00    +0.086 A 
ATOM     10  C   UNL     1       3.811  -0.208  -0.034  0.00  0.00    +0.043 C 
ATOM     11  C   UNL     1       3.921  -1.695   0.335  0.00  0.00    +0.005 C 
ATOM     12  C   UNL     1       2.908  -2.486  -0.497  0.00  0.00    +0.005 C 
ATOM     13  C   UNL     1       1.488  -2.170  -0.025  0.00  0.00    +0.037 C 
BRANCH   5  14
ATOM     14  C   UNL     1      -1.239  -0.781   0.010  0.00  0.00    +0.342 C 
ATOM     15  O   UNL     1      -1.765  -1.098  -1.040  0.00  0.00    -0.245 OA
BRANCH  14  16
ATOM     16  O   UNL     1      -1.800  -1.144   1.182  0.00  0.00    -0.461 OA
BRANCH  16  18
ATOM     17  C   UNL     1      -3.512  -2.230   2.531  0.00  0.00    +0.048 C 
ATOM     18  C   UNL     1      -3.030  -1.913   1.114  0.00  0.00    +0.229 C 
ENDBRANCH  16  18
ENDBRANCH  14  16
ENDBRANCH   5  14
ENDBRANCH   1   9
BRANCH   2  19
ATOM     19  C   UNL     1      -2.128   4.487   0.037  0.00  0.00    +0.120 C 
BRANCH  19  20
ATOM     20  C   UNL     1      -1.651   5.941   0.043  0.00  0.00    +0.146 C 
ATOM     21  C   UNL     1      -2.836   6.862   0.177  0.00  0.00    +0.231 C 
ATOM     22  O   UNL     1      -3.102   7.303   1.275  0.00  0.00    -0.274 OA
ATOM     23  N   UNL     1      -3.604   7.215  -0.849  0.00  0.00    -0.284 N 
ATOM     24  C   UNL     1      -3.391   6.909  -2.189  0.00  0.00    +0.047 A 
ATOM     25  C   UNL     1      -4.441   7.046  -3.092  0.00  0.00    +0.036 A 
ATOM     26  C   UNL     1      -4.258   6.740  -4.426  0.00  0.00    +0.057 A 
ATOM     27  C   UNL     1      -3.031   6.292  -4.880  0.00  0.00    +0.013 A 
ATOM     28  C   UNL     1      -1.977   6.154  -3.995  0.00  0.00    +0.017 A 
ATOM     29  C   UNL     1      -2.155   6.465  -2.657  0.00  0.00    +0.030 A 
ATOM     30  S   UNL     1      -0.807   6.313  -1.525  0.00  0.00    -0.110 S 
ATOM     31  H   UNL     1      -4.393   7.739  -0.641  0.00  0.00    +0.155 HD
BRANCH  26  32
ATOM     32  C   UNL     1      -5.403   6.894  -5.393  0.00  0.00    +0.417 C 
ATOM     33  F   UNL     1      -4.982   6.527  -6.676  0.00  0.00    -0.166 F 
ATOM     34  F   UNL     1      -6.463   6.071  -4.996  0.00  0.00    -0.166 F 
ATOM     35  F   UNL     1      -5.827   8.227  -5.405  0.00  0.00    -0.166 F 
ENDBRANCH  26  32
ENDBRANCH  19  20
ENDBRANCH   2  19
TORSDOF 7
