REMARK  Name = ZINC15064185
REMARK  10 active torsions:
REMARK  status: ('A' for Active; 'I' for Inactive)
REMARK    1  A    between atoms: C_1  and  C_2
REMARK    2  A    between atoms: C_2  and  C_3
REMARK    3  A    between atoms: C_2  and  O_4
REMARK    4  A    between atoms: O_4  and  C_5
REMARK    5  A    between atoms: C_8  and  C_13
REMARK    6  A    between atoms: C_10  and  C_11
REMARK    7  A    between atoms: C_11  and  O_12
REMARK    8  A    between atoms: C_13  and  N_59
REMARK    9  A    between atoms: C_17  and  N_20
REMARK   10  A    between atoms: N_20  and  C_21
REMARK                            x       y       z     vdW  Elec       q    Type
REMARK                         _______ _______ _______ _____ _____    ______ ____
ROOT
ATOM      1  C   UNL     1      -2.972   2.322  -0.845  0.00  0.00    -0.078 C 
ATOM      2  C   UNL     1      -2.168   2.059   0.431  0.00  0.00    -0.017 C 
ATOM      3  C   UNL     1      -0.766   2.654   0.277  0.00  0.00    +0.018 C 
ATOM      4  C   UNL     1      -0.091   2.039  -0.952  0.00  0.00    +0.054 C 
ATOM      5  C   UNL     1      -0.954   2.303  -2.188  0.00  0.00    -0.056 C 
ATOM      6  N   UNL     1      -2.282   1.684  -1.986  0.00  0.00    +0.384 N 
ATOM      7  H   UNL     1      -2.157   0.685  -1.784  0.00  0.00    -0.081 HD
ENDROOT
BRANCH   4   8
ATOM      8  N   UNL     1       1.230   2.644  -1.139  0.00  0.00    -0.343 N 
ATOM      9  H   UNL     1       1.338   3.396  -1.742  0.00  0.00    +0.146 HD
BRANCH   8  10
ATOM     10  C   UNL     1       2.336   2.138  -0.447  0.00  0.00    +0.031 A 
ATOM     11  C   UNL     1       2.180   1.065   0.421  0.00  0.00    +0.027 A 
ATOM     12  C   UNL     1       3.273   0.562   1.102  0.00  0.00    +0.051 A 
ATOM     13  C   UNL     1       4.524   1.131   0.927  0.00  0.00    +0.166 A 
ATOM     14  C   UNL     1       4.682   2.211   0.061  0.00  0.00    +0.168 A 
ATOM     15  C   UNL     1       3.587   2.712  -0.624  0.00  0.00    +0.072 A 
ATOM     16  O   UNL     1       5.994   2.585   0.066  0.00  0.00    -0.453 OA
ATOM     17  C   UNL     1       6.711   1.470   0.627  0.00  0.00    +0.466 C 
ATOM     18  O   UNL     1       5.739   0.830   1.475  0.00  0.00    -0.453 OA
ENDBRANCH   8  10
ENDBRANCH   4   8
BRANCH   6  19
ATOM     19  C   UNL     1      -3.096   1.826  -3.211  0.00  0.00    -0.043 C 
BRANCH  19  23
ATOM     20  C   UNL     1      -6.642  -0.521  -2.786  0.00  0.00    +0.126 A 
ATOM     21  C   UNL     1      -6.636   0.808  -2.388  0.00  0.00    +0.046 A 
ATOM     22  C   UNL     1      -5.489   1.565  -2.527  0.00  0.00    +0.005 A 
ATOM     23  C   UNL     1      -4.346   0.999  -3.061  0.00  0.00    -0.063 A 
ATOM     24  C   UNL     1      -4.351  -0.324  -3.464  0.00  0.00    +0.011 A 
ATOM     25  C   UNL     1      -5.495  -1.086  -3.323  0.00  0.00    +0.020 A 
BRANCH  20  26
ATOM     26  O   UNL     1      -7.770  -1.267  -2.651  0.00  0.00    -0.489 OA
BRANCH  26  28
ATOM     27  C   UNL     1      -9.684   0.170  -2.986  0.00  0.00    +0.051 C 
ATOM     28  C   UNL     1      -8.876  -0.656  -1.983  0.00  0.00    +0.167 C 
ATOM     29  C   UNL     1      -9.769  -1.742  -1.380  0.00  0.00    +0.051 C 
ENDBRANCH  26  28
ENDBRANCH  20  26
BRANCH  25  30
ATOM     30  C   UNL     1      -5.497  -2.530  -3.757  0.00  0.00    +0.194 C 
BRANCH  30  31
ATOM     31  O   UNL     1      -4.210  -2.874  -4.272  0.00  0.00    -0.390 OA
ATOM     32  H   UNL     1      -4.138  -3.791  -4.571  0.00  0.00    +0.210 HD
ENDBRANCH  30  31
ENDBRANCH  25  30
ENDBRANCH  19  23
ENDBRANCH   6  19
TORSDOF 8
