REMARK  Name = ZINC01040605
REMARK  5 active torsions:
REMARK  status: ('A' for Active; 'I' for Inactive)
REMARK    1  A    between atoms: C_1  and  C_2
REMARK    2  A    between atoms: C_10  and  C_11
REMARK    3  A    between atoms: C_12  and  C_25
REMARK    4  A    between atoms: N_15  and  C_16
REMARK    5  A    between atoms: C_19  and  N_22
REMARK                            x       y       z     vdW  Elec       q    Type
REMARK                         _______ _______ _______ _____ _____    ______ ____
ROOT
ATOM      1  C   UNL     1       1.393   1.219   2.560  0.00  0.00    +0.099 A 
ATOM      2  C   UNL     1       2.311   0.961   1.538  0.00  0.00    +0.098 A 
ATOM      3  C   UNL     1       3.599   1.099   2.094  0.00  0.00    +0.154 A 
ATOM      4  N   UNL     1       3.477   1.416   3.354  0.00  0.00    -0.173 NA
ATOM      5  N   UNL     1       2.119   1.506   3.679  0.00  0.00    -0.230 N 
ENDROOT
BRANCH   1  15
ATOM      6  C   UNL     1      -0.246   2.677   0.464  0.00  0.00    +0.045 C 
ATOM      7  C   UNL     1      -0.864   1.820   1.539  0.00  0.00    -0.026 A 
ATOM      8  C   UNL     1      -2.263   1.672   1.606  0.00  0.00    -0.006 A 
ATOM      9  C   UNL     1      -3.247   2.244   0.760  0.00  0.00    +0.029 A 
ATOM     10  C   UNL     1      -4.568   1.998   0.965  0.00  0.00    +0.042 A 
ATOM     11  C   UNL     1      -5.004   1.182   2.003  0.00  0.00    +0.021 A 
ATOM     12  C   UNL     1      -4.077   0.598   2.843  0.00  0.00    +0.017 A 
ATOM     13  C   UNL     1      -2.735   0.843   2.650  0.00  0.00    +0.020 A 
ATOM     14  S   UNL     1      -1.250   0.331   3.476  0.00  0.00    -0.086 S 
ATOM     15  C   UNL     1      -0.072   1.193   2.449  0.00  0.00    +0.043 A 
ATOM     16 CL   UNL     1      -5.739   2.719  -0.095  0.00  0.00    -0.084 Cl
ENDBRANCH   1  15
BRANCH   5  17
ATOM     17  C   UNL     1       1.595   1.831   4.936  0.00  0.00    +0.066 A 
ATOM     18  C   UNL     1       0.514   2.698   5.037  0.00  0.00    +0.030 A 
ATOM     19  C   UNL     1      -0.003   3.012   6.278  0.00  0.00    +0.035 A 
ATOM     20  C   UNL     1       0.560   2.474   7.420  0.00  0.00    +0.126 A 
ATOM     21  C   UNL     1       1.640   1.614   7.324  0.00  0.00    +0.035 A 
ATOM     22  C   UNL     1       2.158   1.292   6.085  0.00  0.00    +0.030 A 
BRANCH  20  23
ATOM     23  N   UNL     1       0.007   2.818   8.750  0.00  0.00    +0.056 N 
ATOM     24  O   UNL     1       0.503   2.344   9.757  0.00  0.00    -0.126 OA
ATOM     25  O   UNL     1      -0.943   3.574   8.836  0.00  0.00    -0.126 OA
ENDBRANCH  20  23
ENDBRANCH   5  17
BRANCH   2  26
ATOM     26  C   UNL     1       2.001   0.619   0.182  0.00  0.00    +0.103 C 
ATOM     27  N   UNL     1       1.755   0.348  -0.893  0.00  0.00    -0.191 NA
ENDBRANCH   2  26
TORSDOF 4
