REMARK  Name = ZINC21994106
REMARK  8 active torsions:
REMARK  status: ('A' for Active; 'I' for Inactive)
REMARK    1  A    between atoms: C_4  and  C_7
REMARK    2  A    between atoms: N_9  and  C_10
REMARK    3  A    between atoms: C_15  and  C_16
REMARK    4  A    between atoms: C_16  and  O_18
REMARK    5  A    between atoms: O_18  and  C_19
REMARK    6  A    between atoms: C_19  and  C_20
REMARK    7  A    between atoms: N_22  and  C_23
REMARK    8  A    between atoms: C_24  and  C_32
REMARK                            x       y       z     vdW  Elec       q    Type
REMARK                         _______ _______ _______ _____ _____    ______ ____
ROOT
ATOM      1  C   UNL     1      -2.618  10.139  -5.494  0.00  0.00    +0.341 C 
ATOM      2  O   UNL     1      -2.768  11.096  -4.761  0.00  0.00    -0.245 OA
ENDROOT
BRANCH   1   8
ATOM      3  C   UNL     1      -4.079  11.185  -7.225  0.00  0.00    +0.048 A 
ATOM      4  C   UNL     1      -4.696  11.145  -8.469  0.00  0.00    +0.024 A 
ATOM      5  C   UNL     1      -4.521  10.051  -9.292  0.00  0.00    +0.002 A 
ATOM      6  C   UNL     1      -3.732   8.986  -8.887  0.00  0.00    +0.001 A 
ATOM      7  C   UNL     1      -3.107   9.011  -7.659  0.00  0.00    +0.017 A 
ATOM      8  C   UNL     1      -3.279  10.108  -6.811  0.00  0.00    +0.080 A 
BRANCH   3  11
ATOM      9  C   UNL     1      -4.204  13.533  -6.907  0.00  0.00    +0.248 C 
ATOM     10  O   UNL     1      -4.100  13.692  -8.107  0.00  0.00    -0.270 OA
ATOM     11  N   UNL     1      -4.252  12.287  -6.394  0.00  0.00    -0.281 N 
ATOM     12  H   UNL     1      -4.429  12.142  -5.317  0.00  0.00    +0.155 HD
BRANCH   9  16
ATOM     13  C   UNL     1      -4.420  16.901  -4.328  0.00  0.00    +0.000 A 
ATOM     14  C   UNL     1      -4.300  17.086  -5.694  0.00  0.00    +0.001 A 
ATOM     15  C   UNL     1      -4.230  15.996  -6.537  0.00  0.00    +0.013 A 
ATOM     16  C   UNL     1      -4.279  14.705  -6.009  0.00  0.00    +0.037 A 
ATOM     17  C   UNL     1      -4.405  14.525  -4.631  0.00  0.00    +0.013 A 
ATOM     18  C   UNL     1      -4.469  15.624  -3.798  0.00  0.00    +0.001 A 
ENDBRANCH   9  16
ENDBRANCH   3  11
ENDBRANCH   1   8
BRANCH   1  19
ATOM     19  O   UNL     1      -1.849   9.104  -5.102  0.00  0.00    -0.452 OA
BRANCH  19  20
ATOM     20  C   UNL     1      -1.230   9.202  -3.793  0.00  0.00    +0.328 C 
BRANCH  20  21
ATOM     21  C   UNL     1      -0.414   7.963  -3.529  0.00  0.00    +0.255 C 
ATOM     22  O   UNL     1      -0.360   7.083  -4.362  0.00  0.00    -0.272 OA
ATOM     23  N   UNL     1       0.255   7.831  -2.366  0.00  0.00    -0.276 N 
ATOM     24  H   UNL     1       0.206   8.629  -1.610  0.00  0.00    +0.155 HD
BRANCH  23  25
ATOM     25  C   UNL     1       1.007   6.690  -2.123  0.00  0.00    +0.090 A 
ATOM     26  C   UNL     1       1.757   6.375  -1.000  0.00  0.00    +0.084 A 
ATOM     27  C   UNL     1       2.458   5.103  -0.995  0.00  0.00    -0.018 A 
ATOM     28  C   UNL     1       2.298   4.353  -2.108  0.00  0.00    -0.004 A 
ATOM     29  S   UNL     1       1.235   5.313  -3.150  0.00  0.00    -0.077 S 
ATOM     30  C   UNL     1       2.895   3.008  -2.385  0.00  0.00    +0.043 C 
ATOM     31  C   UNL     1       4.023   2.762  -1.372  0.00  0.00    +0.005 C 
ATOM     32  C   UNL     1       3.513   3.103   0.031  0.00  0.00    +0.005 C 
ATOM     33  C   UNL     1       3.319   4.614   0.163  0.00  0.00    +0.037 C 
BRANCH  26  34
ATOM     34  C   UNL     1       1.837   7.271   0.114  0.00  0.00    +0.102 C 
ATOM     35  N   UNL     1       1.901   7.982   0.998  0.00  0.00    -0.191 NA
ENDBRANCH  26  34
ENDBRANCH  23  25
ENDBRANCH  20  21
ENDBRANCH  19  20
ENDBRANCH   1  19
TORSDOF 8
