REMARK  Name = ZINC35228303
REMARK  11 active torsions:
REMARK  status: ('A' for Active; 'I' for Inactive)
REMARK    1  A    between atoms: C_1  and  C_2
REMARK    2  A    between atoms: C_2  and  C_3
REMARK    3  A    between atoms: C_3  and  C_4
REMARK    4  A    between atoms: C_4  and  N_5
REMARK    5  A    between atoms: N_5  and  C_6
REMARK    6  A    between atoms: C_6  and  C_7
REMARK    7  A    between atoms: C_21  and  C_23
REMARK    8  A    between atoms: C_25  and  O_31
REMARK    9  A    between atoms: C_28  and  O_29
REMARK   10  A    between atoms: O_29  and  C_30
REMARK   11  A    between atoms: O_31  and  C_32
REMARK                            x       y       z     vdW  Elec       q    Type
REMARK                         _______ _______ _______ _____ _____    ______ ____
ROOT
ATOM      1  C   UNL     1       2.222  -4.495   3.636  0.00  0.00    +0.204 C 
ATOM      2  O   UNL     1       1.566  -4.097   2.697  0.00  0.00    -0.277 OA
ATOM      3  N   UNL     1       2.451  -5.815   3.787  0.00  0.00    -0.258 N 
ATOM      4  C   UNL     1       2.017  -6.717   2.806  0.00  0.00    +0.061 A 
ATOM      5  C   UNL     1       0.898  -6.437   2.037  0.00  0.00    +0.025 A 
ATOM      6  C   UNL     1       0.487  -7.331   1.066  0.00  0.00    +0.002 A 
ATOM      7  C   UNL     1       1.186  -8.505   0.855  0.00  0.00    +0.002 A 
ATOM      8  C   UNL     1       2.301  -8.797   1.620  0.00  0.00    +0.028 A 
ATOM      9  C   UNL     1       2.714  -7.911   2.595  0.00  0.00    +0.068 A 
ATOM     10  N   UNL     1       3.823  -8.175   3.413  0.00  0.00    -0.316 N 
ATOM     11  C   UNL     1       4.796  -9.109   3.290  0.00  0.00    +0.092 A 
ATOM     12  C   UNL     1       5.652  -8.964   4.327  0.00  0.00    +0.020 A 
ATOM     13  C   UNL     1       5.182  -7.895   5.121  0.00  0.00    +0.025 A 
ATOM     14  C   UNL     1       4.066  -7.432   4.548  0.00  0.00    +0.049 A 
ATOM     15  C   UNL     1       3.163  -6.306   4.978  0.00  0.00    +0.162 C 
ENDROOT
BRANCH  15  16
ATOM     16  C   UNL     1       2.171  -6.814   5.993  0.00  0.00    +0.024 A 
ATOM     17  C   UNL     1       0.929  -7.260   5.582  0.00  0.00    +0.055 A 
ATOM     18  C   UNL     1       0.017  -7.727   6.515  0.00  0.00    +0.121 A 
ATOM     19  C   UNL     1       0.350  -7.747   7.862  0.00  0.00    +0.049 A 
ATOM     20  C   UNL     1       1.590  -7.301   8.273  0.00  0.00    +0.049 A 
ATOM     21  C   UNL     1       2.506  -6.838   7.338  0.00  0.00    +0.126 A 
BRANCH  21  22
ATOM     22  O   UNL     1       3.729  -6.404   7.742  0.00  0.00    -0.495 OA
ATOM     23  C   UNL     1       4.007  -6.457   9.143  0.00  0.00    +0.277 C 
ENDBRANCH  21  22
BRANCH  18  24
ATOM     24  O   UNL     1      -1.205  -8.166   6.110  0.00  0.00    -0.495 OA
ATOM     25  C   UNL     1      -2.095  -8.634   7.126  0.00  0.00    +0.277 C 
ENDBRANCH  18  24
ENDBRANCH  15  16
BRANCH   1  26
ATOM     26  C   UNL     1       2.781  -3.515   4.634  0.00  0.00    +0.015 C 
BRANCH  26  27
ATOM     27  N   UNL     1       2.496  -2.145   4.187  0.00  0.00    +0.385 N 
ATOM     28  H   UNL     1       1.498  -2.016   4.112  0.00  0.00    -0.085 HD
ATOM     29  H   UNL     1       2.924  -1.989   3.287  0.00  0.00    -0.085 HD
BRANCH  27  30
ATOM     30  C   UNL     1       3.042  -1.189   5.160  0.00  0.00    -0.082 C 
BRANCH  30  31
ATOM     31  C   UNL     1       2.745   0.238   4.695  0.00  0.00    -0.019 C 
BRANCH  31  33
ATOM     32  C   UNL     1       3.016   2.661   5.242  0.00  0.00    +0.004 C 
ATOM     33  C   UNL     1       3.313   1.234   5.708  0.00  0.00    -0.005 C 
ENDBRANCH  31  33
ENDBRANCH  30  31
ENDBRANCH  27  30
ENDBRANCH  26  27
ENDBRANCH   1  26
TORSDOF 8
