REMARK  Name = ZINC25459116
REMARK  15 active torsions:
REMARK  status: ('A' for Active; 'I' for Inactive)
REMARK    1  A    between atoms: C_1  and  C_2
REMARK    2  A    between atoms: C_2  and  C_3
REMARK    3  A    between atoms: C_3  and  C_4
REMARK    4  A    between atoms: C_4  and  N_5
REMARK    5  A    between atoms: N_5  and  C_6
REMARK    6  A    between atoms: C_7  and  N_18
REMARK    7  A    between atoms: N_8  and  C_15
REMARK    8  A    between atoms: C_15  and  C_16
REMARK    9  A    between atoms: C_16  and  C_17
REMARK   10  A    between atoms: C_19  and  C_21
REMARK   11  A    between atoms: C_21  and  S_22
REMARK   12  A    between atoms: S_22  and  C_23
REMARK   13  A    between atoms: C_26  and  C_28
REMARK   14  A    between atoms: C_29  and  C_34
REMARK   15  A    between atoms: C_31  and  C_33
REMARK                            x       y       z     vdW  Elec       q    Type
REMARK                         _______ _______ _______ _____ _____    ______ ____
ROOT
ATOM      1  N   UNL     1      -1.365  -0.513   0.014  0.00  0.00    -0.264 N 
ATOM      2  C   UNL     1      -1.864  -0.845   1.223  0.00  0.00    +0.230 C 
ATOM      3  O   UNL     1      -2.956  -1.366   1.306  0.00  0.00    -0.274 OA
ENDROOT
BRANCH   1   4
ATOM      4  C   UNL     1      -2.157  -0.668  -1.143  0.00  0.00    +0.140 A 
ATOM      5  C   UNL     1      -1.809  -1.585  -2.114  0.00  0.00    +0.127 A 
ATOM      6  N   UNL     1      -2.602  -1.714  -3.231  0.00  0.00    -0.280 N 
ATOM      7  C   UNL     1      -3.703  -0.956  -3.375  0.00  0.00    +0.331 A 
ATOM      8  O   UNL     1      -4.391  -1.085  -4.369  0.00  0.00    -0.246 OA
ATOM      9  N   UNL     1      -4.058  -0.057  -2.439  0.00  0.00    -0.273 N 
ATOM     10  H   UNL     1      -4.960   0.557  -2.580  0.00  0.00    +0.173 HD
ATOM     11  C   UNL     1      -3.319   0.105  -1.324  0.00  0.00    +0.277 A 
ATOM     12  O   UNL     1      -3.652   0.919  -0.480  0.00  0.00    -0.266 OA
BRANCH   5  13
ATOM     13  N   UNL     1      -0.683  -2.360  -1.967  0.00  0.00    -0.343 N 
ATOM     14  H   UNL     1      -0.412  -3.089  -2.745  0.00  0.00    +0.144 HD
ATOM     15  H   UNL     1      -0.054  -2.251  -1.071  0.00  0.00    +0.144 HD
ENDBRANCH   5  13
BRANCH   6  16
ATOM     16  C   UNL     1      -2.244  -2.683  -4.269  0.00  0.00    +0.128 C 
BRANCH  16  17
ATOM     17  C   UNL     1      -2.902  -4.029  -3.959  0.00  0.00    +0.018 C 
ATOM     18  C   UNL     1      -2.529  -5.042  -5.044  0.00  0.00    +0.005 C 
ENDBRANCH  16  17
ENDBRANCH   6  16
ENDBRANCH   1   4
BRANCH   1  19
ATOM     19  C   UNL     1      -0.000   0.009  -0.097  0.00  0.00    +0.114 C 
BRANCH  19  20
ATOM     20  C   UNL     1      -0.037   1.538  -0.091  0.00  0.00    +0.019 C 
BRANCH  20  22
ATOM     21  C   UNL     1       1.351   3.612  -0.202  0.00  0.00    +0.004 C 
ATOM     22  C   UNL     1       1.388   2.083  -0.207  0.00  0.00    -0.002 C 
ENDBRANCH  20  22
ENDBRANCH  19  20
ENDBRANCH   1  19
BRANCH   2  23
ATOM     23  C   UNL     1      -1.065  -0.567   2.470  0.00  0.00    +0.175 C 
BRANCH  23  24
ATOM     24  S   UNL     1      -1.996  -1.122   3.919  0.00  0.00    -0.056 S 
BRANCH  24  25
ATOM     25  C   UNL     1      -0.862  -0.689   5.196  0.00  0.00    +0.278 A 
ATOM     26  N   UNL     1       0.311  -0.123   5.034  0.00  0.00    -0.101 NA
ATOM     27  N   UNL     1       0.867   0.048   6.181  0.00  0.00    -0.106 NA
ATOM     28  C   UNL     1       0.072  -0.403   7.123  0.00  0.00    +0.258 A 
ATOM     29  O   UNL     1      -1.042  -0.874   6.519  0.00  0.00    -0.410 OA
BRANCH  28  30
ATOM     30  C   UNL     1       0.341  -0.392   8.569  0.00  0.00    +0.098 A 
ATOM     31  C   UNL     1       1.440   0.066   9.255  0.00  0.00    +0.058 A 
ATOM     32  N   UNL     1       1.435  -0.036  10.564  0.00  0.00    -0.249 NA
ATOM     33  C   UNL     1       0.422  -0.566  11.211  0.00  0.00    +0.076 A 
ATOM     34  S   UNL     1      -0.669  -0.976   9.923  0.00  0.00    -0.067 S 
ATOM     35  C   UNL     1       0.249  -0.767  12.695  0.00  0.00    +0.073 C 
ATOM     36  C   UNL     1       2.614   0.670   8.528  0.00  0.00    +0.067 C 
ENDBRANCH  28  30
ENDBRANCH  24  25
ENDBRANCH  23  24
ENDBRANCH   2  23
TORSDOF 11
