REMARK  Name = ZINC36064576
REMARK  14 active torsions:
REMARK  status: ('A' for Active; 'I' for Inactive)
REMARK    1  A    between atoms: C_1  and  C_2
REMARK    2  A    between atoms: C_2  and  C_3
REMARK    3  A    between atoms: C_4  and  C_34
REMARK    4  A    between atoms: C_5  and  C_24
REMARK    5  A    between atoms: C_8  and  C_13
REMARK    6  A    between atoms: C_14  and  N_16
REMARK    7  A    between atoms: N_16  and  C_17
REMARK    8  A    between atoms: C_17  and  C_18
REMARK    9  A    between atoms: C_28  and  O_32
REMARK   10  A    between atoms: C_29  and  O_30
REMARK   11  A    between atoms: O_30  and  C_31
REMARK   12  A    between atoms: O_32  and  C_33
REMARK   13  A    between atoms: C_34  and  O_36
REMARK   14  A    between atoms: O_36  and  C_37
REMARK                            x       y       z     vdW  Elec       q    Type
REMARK                         _______ _______ _______ _____ _____    ______ ____
ROOT
ATOM      1  C   UNL     1      -1.439  -0.791  -0.213  0.00  0.00    +0.056 C 
ATOM      2  C   UNL     1      -2.270  -0.935  -1.308  0.00  0.00    +0.083 C 
ATOM      3  C   UNL     1      -3.718  -1.289  -1.052  0.00  0.00    +0.153 C 
ATOM      4  N   UNL     1      -4.134  -1.454   0.366  0.00  0.00    -0.267 N 
ATOM      5  C   UNL     1      -5.394  -1.774   0.831  0.00  0.00    +0.048 C 
ATOM      6  C   UNL     1      -5.562  -1.877   2.168  0.00  0.00    +0.072 C 
ATOM      7  S   UNL     1      -3.925  -1.519   2.773  0.00  0.00    -0.060 S 
ATOM      8  C   UNL     1      -3.156  -1.268   1.303  0.00  0.00    +0.166 C 
ATOM      9  N   UNL     1      -1.908  -0.965   1.012  0.00  0.00    -0.229 NA
ENDROOT
BRANCH   3  10
ATOM     10  C   UNL     1      -4.574  -0.210  -1.663  0.00  0.00    +0.023 A 
ATOM     11  C   UNL     1      -4.978   0.869  -0.897  0.00  0.00    +0.009 A 
ATOM     12  C   UNL     1      -5.763   1.860  -1.455  0.00  0.00    +0.004 A 
ATOM     13  C   UNL     1      -6.149   1.778  -2.780  0.00  0.00    +0.049 A 
ATOM     14  C   UNL     1      -5.747   0.701  -3.553  0.00  0.00    +0.162 A 
ATOM     15  C   UNL     1      -4.952  -0.295  -2.993  0.00  0.00    +0.167 A 
BRANCH  15  16
ATOM     16  O   UNL     1      -4.551  -1.352  -3.749  0.00  0.00    -0.491 OA
ATOM     17  C   UNL     1      -5.463  -2.445  -3.871  0.00  0.00    +0.277 C 
ENDBRANCH  15  16
BRANCH  14  18
ATOM     18  O   UNL     1      -6.126   0.618  -4.856  0.00  0.00    -0.491 OA
ATOM     19  C   UNL     1      -6.937   1.679  -5.365  0.00  0.00    +0.277 C 
ENDBRANCH  14  18
ENDBRANCH   3  10
BRANCH   5  20
ATOM     20  C   UNL     1      -6.514  -1.994  -0.096  0.00  0.00    +0.091 C 
ATOM     21  C   UNL     1      -7.697  -2.438   0.371  0.00  0.00    +0.239 C 
ATOM     22  O   UNL     1      -7.892  -2.571   1.705  0.00  0.00    -0.271 OA
BRANCH  21  23
ATOM     23  N   UNL     1      -8.713  -2.758  -0.513  0.00  0.00    -0.308 N 
ATOM     24  H   UNL     1      -8.550  -2.734  -1.469  0.00  0.00    +0.149 HD
BRANCH  23  25
ATOM     25  C   UNL     1     -10.035  -3.133  -0.004  0.00  0.00    +0.140 C 
BRANCH  25  26
ATOM     26  C   UNL     1     -10.917  -3.547  -1.154  0.00  0.00    -0.027 A 
ATOM     27  C   UNL     1     -11.695  -2.615  -1.824  0.00  0.00    +0.025 A 
ATOM     28  C   UNL     1     -12.491  -3.031  -2.874  0.00  0.00    +0.111 A 
ATOM     29  N   UNL     1     -12.517  -4.298  -3.239  0.00  0.00    -0.263 NA
ATOM     30  C   UNL     1     -11.790  -5.212  -2.626  0.00  0.00    +0.111 A 
ATOM     31  C   UNL     1     -10.965  -4.868  -1.571  0.00  0.00    +0.025 A 
ENDBRANCH  25  26
ENDBRANCH  23  25
ENDBRANCH  21  23
ENDBRANCH   5  20
BRANCH   1  33
ATOM     32  C   UNL     1       0.190   1.076  -0.308  0.00  0.00    +0.010 C 
ATOM     33  C   UNL     1       0.012  -0.440  -0.417  0.00  0.00    +0.053 C 
ENDBRANCH   1  33
BRANCH   2  34
ATOM     34  C   UNL     1      -1.788  -0.760  -2.611  0.00  0.00    +0.339 C 
ATOM     35  O   UNL     1      -1.536  -1.730  -3.303  0.00  0.00    -0.245 OA
BRANCH  34  36
ATOM     36  O   UNL     1      -1.601   0.486  -3.100  0.00  0.00    -0.465 OA
ATOM     37  C   UNL     1      -1.107   0.591  -4.436  0.00  0.00    +0.280 C 
ENDBRANCH  34  36
ENDBRANCH   2  34
TORSDOF 10
