REMARK  Name = ZINC14479552
REMARK  9 active torsions:
REMARK  status: ('A' for Active; 'I' for Inactive)
REMARK    1  A    between atoms: C_1  and  O_2
REMARK    2  A    between atoms: O_2  and  C_3
REMARK    3  A    between atoms: C_6  and  C_11
REMARK    4  A    between atoms: C_8  and  O_9
REMARK    5  A    between atoms: O_9  and  C_10
REMARK    6  A    between atoms: C_22  and  O_27
REMARK    7  A    between atoms: O_27  and  C_28
REMARK    8  A    between atoms: C_28  and  C_29
REMARK    9  A    between atoms: C_29  and  C_30
REMARK                            x       y       z     vdW  Elec       q    Type
REMARK                         _______ _______ _______ _____ _____    ______ ____
ROOT
ATOM      1  C   UNL     1      -1.902   1.843  -8.462  0.00  0.00    +0.105 C 
ATOM      2  C   UNL     1      -0.442   1.703  -8.901  0.00  0.00    +0.029 C 
ATOM      3  C   UNL     1      -0.417   0.727 -10.114  0.00  0.00    +0.033 C 
ATOM      4  C   UNL     1      -0.443  -0.642  -9.464  0.00  0.00    -0.030 C 
ATOM      5  C   UNL     1      -0.022  -0.570  -8.225  0.00  0.00    -0.023 C 
ATOM      6  C   UNL     1       0.342   0.873  -7.865  0.00  0.00    +0.049 C 
ATOM      7  C   UNL     1      -0.020   1.177  -6.460  0.00  0.00    -0.016 A 
ATOM      8  C   UNL     1       0.782   0.680  -5.441  0.00  0.00    +0.051 A 
ATOM      9  C   UNL     1       0.485   0.953  -4.117  0.00  0.00    +0.121 A 
ATOM     10  C   UNL     1      -0.614   1.736  -3.795  0.00  0.00    +0.047 A 
ATOM     11  C   UNL     1      -1.413   2.238  -4.803  0.00  0.00    +0.027 A 
ATOM     12  C   UNL     1      -1.117   1.958  -6.130  0.00  0.00    +0.032 A 
ATOM     13  N   UNL     1      -1.942   2.474  -7.139  0.00  0.00    -0.336 N 
ATOM     14  H   UNL     1      -2.525   3.230  -6.966  0.00  0.00    +0.147 HD
ENDROOT
BRANCH   1  18
ATOM     15  C   UNL     1      -3.718  -2.023  -8.266  0.00  0.00    +0.162 A 
ATOM     16  C   UNL     1      -3.764  -1.292  -9.442  0.00  0.00    +0.050 A 
ATOM     17  C   UNL     1      -3.181  -0.040  -9.501  0.00  0.00    +0.009 A 
ATOM     18  C   UNL     1      -2.541   0.480  -8.391  0.00  0.00    -0.023 A 
ATOM     19  C   UNL     1      -2.492  -0.244  -7.215  0.00  0.00    +0.055 A 
ATOM     20  C   UNL     1      -3.079  -1.497  -7.147  0.00  0.00    +0.162 A 
BRANCH  15  22
ATOM     21  C   UNL     1      -4.934  -3.730  -9.391  0.00  0.00    +0.277 C 
ATOM     22  O   UNL     1      -4.296  -3.253  -8.205  0.00  0.00    -0.491 OA
ENDBRANCH  15  22
BRANCH  20  23
ATOM     23  O   UNL     1      -3.032  -2.211  -5.991  0.00  0.00    -0.491 OA
ATOM     24  C   UNL     1      -2.360  -1.607  -4.883  0.00  0.00    +0.277 C 
ENDBRANCH  20  23
ENDBRANCH   1  18
BRANCH   9  25
ATOM     25  O   UNL     1       1.276   0.457  -3.128  0.00  0.00    -0.492 OA
BRANCH  25  26
ATOM     26  C   UNL     1       0.916   0.781  -1.784  0.00  0.00    +0.233 C 
BRANCH  26  27
ATOM     27  C   UNL     1       1.914   0.139  -0.819  0.00  0.00    +0.076 C 
BRANCH  27  28
ATOM     28  C   UNL     1       1.535   0.482   0.599  0.00  0.00    -0.044 A 
ATOM     29  C   UNL     1       2.048   1.617   1.196  0.00  0.00    +0.004 A 
ATOM     30  C   UNL     1       1.697   1.934   2.495  0.00  0.00    +0.000 A 
ATOM     31  C   UNL     1       0.838   1.110   3.199  0.00  0.00    +0.000 A 
ATOM     32  C   UNL     1       0.328  -0.028   2.603  0.00  0.00    +0.000 A 
ATOM     33  C   UNL     1       0.677  -0.342   1.303  0.00  0.00    +0.004 A 
ENDBRANCH  27  28
ENDBRANCH  26  27
ENDBRANCH  25  26
ENDBRANCH   9  25
TORSDOF 7
