REMARK  Name = ZINC62941925
REMARK  5 active torsions:
REMARK  status: ('A' for Active; 'I' for Inactive)
REMARK    1  A    between atoms: C_1  and  C_2
REMARK    2  A    between atoms: C_2  and  C_3
REMARK    3  A    between atoms: C_2  and  C_4
REMARK    4  A    between atoms: C_10  and  C_13
REMARK    5  A    between atoms: C_13  and  N_14
REMARK                            x       y       z     vdW  Elec       q    Type
REMARK                         _______ _______ _______ _____ _____    ______ ____
ROOT
ATOM      1  C   UNL     1      -2.845  -4.117  -0.027  0.00  0.00    +0.095 C 
ENDROOT
BRANCH   1   2
ATOM      2  N   UNL     1      -4.208  -4.627   0.172  0.00  0.00    -0.303 NA
ATOM      3  C   UNL     1      -4.671  -4.367   1.536  0.00  0.00    +0.082 C 
ATOM      4  C   UNL     1      -5.944  -5.099   1.937  0.00  0.00    -0.003 C 
ATOM      5  C   UNL     1      -6.969  -5.055   0.786  0.00  0.00    -0.077 C 
ATOM      6  N   UNL     1      -6.776  -6.236  -0.011  0.00  0.00    +0.382 N 
ATOM      7  C   UNL     1      -7.912  -6.783  -0.749  0.00  0.00    -0.078 C 
ATOM      8  C   UNL     1      -7.293  -7.761  -1.783  0.00  0.00    -0.020 C 
ATOM      9  C   UNL     1      -5.756  -7.655  -1.570  0.00  0.00    -0.016 C 
ATOM     10  C   UNL     1      -5.627  -6.295  -0.861  0.00  0.00    -0.054 C 
ATOM     11  C   UNL     1      -4.297  -6.056  -0.189  0.00  0.00    +0.069 C 
ATOM     12  H   UNL     1      -6.591  -6.958   0.669  0.00  0.00    -0.081 HD
ENDBRANCH   1   2
BRANCH   1  18
ATOM     13  C   UNL     1      -1.433  -0.534   0.013  0.00  0.00    -0.007 C 
ATOM     14  C   UNL     1      -2.173  -0.023  -1.225  0.00  0.00    +0.011 C 
ATOM     15  C   UNL     1      -3.635  -0.477  -1.167  0.00  0.00    +0.075 C 
ATOM     16  C   UNL     1      -3.667  -1.980  -0.998  0.00  0.00    +0.138 C 
ATOM     17  O   UNL     1      -4.331  -2.672  -1.732  0.00  0.00    -0.297 OA
ATOM     18  C   UNL     1      -2.845  -2.593   0.114  0.00  0.00    +0.069 C 
ATOM     19  C   UNL     1      -1.411  -2.063   0.008  0.00  0.00    +0.016 C 
BRANCH  13  21
ATOM     20  C   UNL     1      -0.019   1.526   0.010  0.00  0.00    +0.007 C 
ATOM     21  C   UNL     1       0.002  -0.004   0.002  0.00  0.00    -0.014 C 
ATOM     22  C   UNL     1       0.742  -0.511   1.242  0.00  0.00    +0.007 C 
ENDBRANCH  13  21
ENDBRANCH   1  18
TORSDOF 3
