REMARK  Name = ZINC07344719
REMARK  5 active torsions:
REMARK  status: ('A' for Active; 'I' for Inactive)
REMARK    1  A    between atoms: C_4  and  C_7
REMARK    2  A    between atoms: C_7  and  C_8
REMARK    3  A    between atoms: C_13  and  N_14
REMARK    4  A    between atoms: C_15  and  C_17
REMARK    5  A    between atoms: C_17  and  N_18
REMARK                            x       y       z     vdW  Elec       q    Type
REMARK                         _______ _______ _______ _____ _____    ______ ____
ROOT
ATOM      1  N   UNL     1       4.947   2.841  -2.399  0.00  0.00    -0.284 N 
ATOM      2  C   UNL     1       3.694   2.789  -1.906  0.00  0.00    +0.235 C 
ATOM      3  O   UNL     1       2.744   2.822  -2.660  0.00  0.00    -0.274 OA
ATOM      4  H   UNL     1       5.705   2.880  -1.794  0.00  0.00    +0.155 HD
ENDROOT
BRANCH   1  10
ATOM      5  C   UNL     1       6.269   2.201  -4.316  0.00  0.00    -0.022 A 
ATOM      6  C   UNL     1       6.469   2.194  -5.683  0.00  0.00    +0.006 A 
ATOM      7  C   UNL     1       5.569   2.829  -6.518  0.00  0.00    +0.000 A 
ATOM      8  C   UNL     1       4.462   3.467  -5.989  0.00  0.00    +0.002 A 
ATOM      9  C   UNL     1       4.253   3.473  -4.624  0.00  0.00    +0.023 A 
ATOM     10  C   UNL     1       5.156   2.837  -3.782  0.00  0.00    +0.037 A 
BRANCH   5  11
ATOM     11  C   UNL     1       7.255   1.515  -3.406  0.00  0.00    +0.072 C 
BRANCH  11  15
ATOM     12  C   UNL     1       5.902  -2.450  -2.572  0.00  0.00    +0.000 A 
ATOM     13  C   UNL     1       6.721  -2.213  -3.661  0.00  0.00    +0.000 A 
ATOM     14  C   UNL     1       7.158  -0.930  -3.931  0.00  0.00    +0.004 A 
ATOM     15  C   UNL     1       6.778   0.116  -3.112  0.00  0.00    -0.043 A 
ATOM     16  C   UNL     1       5.964  -0.121  -2.020  0.00  0.00    +0.004 A 
ATOM     17  C   UNL     1       5.522  -1.404  -1.753  0.00  0.00    +0.000 A 
ENDBRANCH  11  15
ENDBRANCH   5  11
ENDBRANCH   1  10
BRANCH   2  18
ATOM     18  C   UNL     1       3.472   2.692  -0.419  0.00  0.00    +0.209 C 
BRANCH  18  19
ATOM     19  N   UNL     1       2.034   2.651  -0.141  0.00  0.00    -0.257 N 
ATOM     20  C   UNL     1       1.355   1.426  -0.082  0.00  0.00    +0.079 A 
ATOM     21  C   UNL     1       2.052   0.235   0.035  0.00  0.00    +0.027 A 
ATOM     22  C   UNL     1       1.363  -0.962   0.090  0.00  0.00    +0.002 A 
ATOM     23  C   UNL     1      -0.018  -0.974   0.023  0.00  0.00    +0.004 A 
ATOM     24  C   UNL     1      -0.721   0.213  -0.088  0.00  0.00    +0.047 A 
ATOM     25  C   UNL     1      -0.038   1.415  -0.143  0.00  0.00    +0.143 A 
ATOM     26  O   UNL     1      -0.712   2.591  -0.256  0.00  0.00    -0.481 OA
ATOM     27  C   UNL     1      -0.129   3.730   0.384  0.00  0.00    +0.325 C 
ATOM     28  C   UNL     1       1.342   3.794   0.062  0.00  0.00    +0.258 C 
ATOM     29  O   UNL     1       1.903   4.867  -0.014  0.00  0.00    -0.271 OA
ENDBRANCH  18  19
ENDBRANCH   2  18
TORSDOF 5
