REMARK  Name = ZINC63952491
REMARK  5 active torsions:
REMARK  status: ('A' for Active; 'I' for Inactive)
REMARK    1  A    between atoms: C_1  and  C_2
REMARK    2  A    between atoms: C_7  and  S_12
REMARK    3  A    between atoms: S_12  and  C_13
REMARK    4  A    between atoms: C_13  and  C_14
REMARK    5  A    between atoms: N_16  and  C_17
REMARK                            x       y       z     vdW  Elec       q    Type
REMARK                         _______ _______ _______ _____ _____    ______ ____
ROOT
ATOM      1  S   UNL     1       1.567  -5.232   2.027  0.00  0.00    -0.106 S 
ENDROOT
BRANCH   1   8
ATOM      2  C   UNL     1      -0.021   1.486  -0.043  0.00  0.00    +0.044 C 
ATOM      3  C   UNL     1       0.001  -0.021  -0.040  0.00  0.00    -0.048 A 
ATOM      4  C   UNL     1       0.008  -0.698  -1.273  0.00  0.00    +0.005 A 
ATOM      5  C   UNL     1       0.027  -2.043  -1.363  0.00  0.00    +0.028 A 
ATOM      6  C   UNL     1       0.042  -2.852  -0.137  0.00  0.00    +0.061 A 
ATOM      7  N   UNL     1       0.060  -4.136   0.076  0.00  0.00    -0.355 N 
ATOM      8  C   UNL     1       0.067  -4.341   1.530  0.00  0.00    +0.236 C 
ATOM      9  N   UNL     1       0.050  -3.004   2.137  0.00  0.00    -0.355 N 
ATOM     10  C   UNL     1       0.035  -2.135   1.168  0.00  0.00    +0.061 A 
ATOM     11  C   UNL     1       0.019  -0.666   1.143  0.00  0.00    +0.030 A 
ATOM     12  H   UNL     1       0.068  -4.830  -0.601  0.00  0.00    +0.162 HD
ATOM     13  H   UNL     1       0.049  -2.804   3.087  0.00  0.00    +0.162 HD
ENDBRANCH   1   8
BRANCH   1  14
ATOM     14  C   UNL     1       2.920  -4.169   1.451  0.00  0.00    +0.169 C 
BRANCH  14  15
ATOM     15  C   UNL     1       4.241  -4.801   1.805  0.00  0.00    +0.227 C 
ATOM     16  O   UNL     1       4.268  -5.865   2.388  0.00  0.00    -0.275 OA
ATOM     17  N   UNL     1       5.393  -4.186   1.474  0.00  0.00    -0.285 N 
ATOM     18  H   UNL     1       5.374  -3.370   0.949  0.00  0.00    +0.155 HD
BRANCH  17  19
ATOM     19  C   UNL     1       6.617  -4.723   1.886  0.00  0.00    +0.036 A 
ATOM     20  C   UNL     1       7.666  -3.881   2.231  0.00  0.00    +0.043 A 
ATOM     21  C   UNL     1       8.874  -4.414   2.639  0.00  0.00    +0.044 A 
ATOM     22  C   UNL     1       9.040  -5.787   2.703  0.00  0.00    +0.040 A 
ATOM     23  C   UNL     1       7.996  -6.628   2.359  0.00  0.00    +0.044 A 
ATOM     24  C   UNL     1       6.784  -6.100   1.956  0.00  0.00    +0.043 A 
ATOM     25 CL   UNL     1       8.208  -8.349   2.441  0.00  0.00    -0.083 Cl
ATOM     26 CL   UNL     1      10.186  -3.361   3.069  0.00  0.00    -0.083 Cl
ENDBRANCH  17  19
ENDBRANCH  14  15
ENDBRANCH   1  14
TORSDOF 4
