REMARK  Name = ZINC20908003
REMARK  7 active torsions:
REMARK  status: ('A' for Active; 'I' for Inactive)
REMARK    1  A    between atoms: C_1  and  C_2
REMARK    2  A    between atoms: C_4  and  C_29
REMARK    3  A    between atoms: C_7  and  C_11
REMARK    4  A    between atoms: C_11  and  N_12
REMARK    5  A    between atoms: N_12  and  C_13
REMARK    6  A    between atoms: C_13  and  C_14
REMARK    7  A    between atoms: C_15  and  C_22
REMARK                            x       y       z     vdW  Elec       q    Type
REMARK                         _______ _______ _______ _____ _____    ______ ____
ROOT
ATOM      1  N   UNL     1      -2.609   7.005   1.443  0.00  0.00    +0.386 N 
ATOM      2  H   UNL     1      -3.150   6.255   2.040  0.00  0.00    -0.085 HD
ATOM      3  H   UNL     1      -1.609   7.163   1.873  0.00  0.00    -0.085 HD
ENDROOT
BRANCH   1   4
ATOM      4  C   UNL     1      -2.478   6.529   0.060  0.00  0.00    -0.026 C 
BRANCH   4  11
ATOM      5  C   UNL     1       2.511   1.056  -0.015  0.00  0.00    +0.044 C 
ATOM      6  C   UNL     1       1.196   1.792   0.000  0.00  0.00    -0.045 A 
ATOM      7  C   UNL     1      -0.013   1.076   0.008  0.00  0.00    +0.025 A 
ATOM      8  C   UNL     1      -1.192   1.732   0.017  0.00  0.00    +0.022 A 
ATOM      9  N   UNL     1      -1.229   3.096   0.029  0.00  0.00    -0.305 N 
ATOM     10  C   UNL     1      -2.261   3.994   0.044  0.00  0.00    +0.112 A 
ATOM     11  C   UNL     1      -1.714   5.230   0.045  0.00  0.00    +0.017 A 
ATOM     12  N   UNL     1      -0.385   5.108   0.032  0.00  0.00    -0.345 N 
ATOM     13  C   UNL     1      -0.066   3.822   0.022  0.00  0.00    +0.116 A 
ATOM     14  C   UNL     1       1.174   3.151   0.007  0.00  0.00    +0.048 A 
ATOM     15  C   UNL     1      -2.481   0.950   0.019  0.00  0.00    +0.064 C 
ATOM     16  H   UNL     1       0.249   6.007   0.031  0.00  0.00    +0.167 HD
ENDBRANCH   4  11
ENDBRANCH   1   4
BRANCH   1  17
ATOM     17  C   UNL     1      -3.350   8.272   1.496  0.00  0.00    -0.025 C 
BRANCH  17  18
ATOM     18  C   UNL     1      -3.464   8.728   2.928  0.00  0.00    +0.039 A 
ATOM     19  C   UNL     1      -4.469   8.421   3.791  0.00  0.00    +0.146 A 
ATOM     20  N   UNL     1      -4.197   9.022   4.978  0.00  0.00    -0.216 NA
ATOM     21  C   UNL     1      -3.083   9.681   4.863  0.00  0.00    +0.178 A 
ATOM     22  N   UNL     1      -2.567   9.540   3.599  0.00  0.00    -0.299 N 
ATOM     23  C   UNL     1      -1.380  10.189   3.335  0.00  0.00    +0.100 A 
ATOM     24  C   UNL     1      -0.776  10.915   4.274  0.00  0.00    +0.067 A 
ATOM     25  S   UNL     1      -1.887  10.726   5.660  0.00  0.00    -0.058 S 
BRANCH  19  26
ATOM     26  C   UNL     1      -5.643   7.582   3.492  0.00  0.00    +0.267 C 
ATOM     27  O   UNL     1      -5.775   7.093   2.386  0.00  0.00    -0.268 OA
ATOM     28  N   UNL     1      -6.570   7.356   4.444  0.00  0.00    -0.296 N 
ATOM     29  C   UNL     1      -6.531   7.877   5.818  0.00  0.00    +0.108 C 
ATOM     30  C   UNL     1      -7.781   7.341   6.547  0.00  0.00    +0.020 C 
ATOM     31  C   UNL     1      -8.153   6.084   5.717  0.00  0.00    +0.020 C 
ATOM     32  C   UNL     1      -7.787   6.540   4.282  0.00  0.00    +0.108 C 
ENDBRANCH  19  26
ENDBRANCH  17  18
ENDBRANCH   1  17
TORSDOF 5
