REMARK  Name = ZINC08871668
REMARK  8 active torsions:
REMARK  status: ('A' for Active; 'I' for Inactive)
REMARK    1  A    between atoms: C_1  and  C_2
REMARK    2  A    between atoms: C_5  and  C_8
REMARK    3  A    between atoms: N_12  and  C_16
REMARK    4  A    between atoms: C_16  and  C_17
REMARK    5  A    between atoms: N_19  and  N_20
REMARK    6  A    between atoms: N_20  and  S_21
REMARK    7  A    between atoms: S_21  and  C_24
REMARK    8  A    between atoms: C_27  and  C_30
REMARK                            x       y       z     vdW  Elec       q    Type
REMARK                         _______ _______ _______ _____ _____    ______ ____
ROOT
ATOM      1  C   UNL     1       4.128   7.523   0.430  0.00  0.00    +0.212 C 
ENDROOT
BRANCH   1   6
ATOM      2  C   UNL     1       1.177   3.557   0.009  0.00  0.00    +0.028 C 
ATOM      3  C   UNL     1       2.343   4.243   0.104  0.00  0.00    +0.077 C 
ATOM      4  C   UNL     1       2.573   5.698   0.230  0.00  0.00    +0.259 C 
ATOM      5  O   UNL     1       1.651   6.491   0.263  0.00  0.00    -0.269 OA
ATOM      6  N   UNL     1       3.833   6.093   0.305  0.00  0.00    -0.246 N 
ATOM      7  C   UNL     1       4.852   5.211   0.267  0.00  0.00    +0.121 C 
ATOM      8  S   UNL     1       6.533   5.525   0.350  0.00  0.00    -0.027 S 
ATOM      9  S   UNL     1       4.024   3.636   0.120  0.00  0.00    -0.061 S 
BRANCH   2  14
ATOM     10  C   UNL     1       1.239  -2.064  -1.190  0.00  0.00    +0.044 C 
ATOM     11  C   UNL     1       1.223  -0.590  -0.876  0.00  0.00    -0.050 A 
ATOM     12  C   UNL     1       0.037   0.022  -0.508  0.00  0.00    +0.004 A 
ATOM     13  C   UNL     1       0.014   1.370  -0.218  0.00  0.00    +0.008 A 
ATOM     14  C   UNL     1       1.193   2.119  -0.297  0.00  0.00    -0.024 A 
ATOM     15  C   UNL     1       2.388   1.492  -0.669  0.00  0.00    +0.008 A 
ATOM     16  C   UNL     1       2.394   0.144  -0.956  0.00  0.00    +0.004 A 
ENDBRANCH   2  14
ENDBRANCH   1   6
BRANCH   1  17
ATOM     17  C   UNL     1       4.181   7.899   1.888  0.00  0.00    +0.246 C 
ATOM     18  O   UNL     1       3.991   7.056   2.739  0.00  0.00    -0.273 OA
ATOM     19  N   UNL     1       4.440   9.172   2.247  0.00  0.00    -0.231 N 
ATOM     20  H   UNL     1       4.591   9.846   1.567  0.00  0.00    +0.171 HD
BRANCH  19  21
ATOM     21  N   UNL     1       4.489   9.521   3.603  0.00  0.00    -0.108 NA
ATOM     22  H   UNL     1       3.736   9.326   4.182  0.00  0.00    +0.172 HD
BRANCH  21  23
ATOM     23  S   UNL     1       5.834  10.268   4.217  0.00  0.00    +0.074 S 
ATOM     24  O   UNL     1       5.527  10.618   5.559  0.00  0.00    -0.152 OA
ATOM     25  O   UNL     1       6.944   9.447   3.879  0.00  0.00    -0.152 OA
BRANCH  23  26
ATOM     26  C   UNL     1       6.039  11.780   3.336  0.00  0.00    +0.107 A 
ATOM     27  C   UNL     1       6.805  11.811   2.186  0.00  0.00    +0.029 A 
ATOM     28  C   UNL     1       6.963  12.996   1.492  0.00  0.00    +0.005 A 
ATOM     29  C   UNL     1       6.361  14.152   1.954  0.00  0.00    -0.050 A 
ATOM     30  C   UNL     1       5.599  14.122   3.107  0.00  0.00    +0.005 A 
ATOM     31  C   UNL     1       5.438  12.936   3.798  0.00  0.00    +0.029 A 
ATOM     32  C   UNL     1       6.535  15.445   1.200  0.00  0.00    +0.044 C 
ENDBRANCH  23  26
ENDBRANCH  21  23
ENDBRANCH  19  21
ENDBRANCH   1  17
TORSDOF 6
