REMARK  Name = ZINC11790338
REMARK  5 active torsions:
REMARK  status: ('A' for Active; 'I' for Inactive)
REMARK    1  A    between atoms: C_3  and  C_8
REMARK    2  A    between atoms: C_8  and  N_9
REMARK    3  A    between atoms: C_16  and  N_20
REMARK    4  A    between atoms: C_23  and  C_26
REMARK    5  A    between atoms: N_28  and  C_29
REMARK                            x       y       z     vdW  Elec       q    Type
REMARK                         _______ _______ _______ _____ _____    ______ ____
ROOT
ATOM      1  N   UNL     1      -2.176   0.693  -0.075  0.00  0.00    -0.230 N 
ATOM      2  C   UNL     1      -1.421   1.806  -0.053  0.00  0.00    +0.254 C 
ATOM      3  O   UNL     1      -1.837   2.947  -0.054  0.00  0.00    -0.270 OA
ATOM      4  C   UNL     1       0.002   1.406  -0.025  0.00  0.00    +0.051 A 
ATOM      5  C   UNL     1       1.200   2.098   0.003  0.00  0.00    +0.014 A 
ATOM      6  C   UNL     1       2.402   1.401   0.024  0.00  0.00    +0.003 A 
ATOM      7  C   UNL     1       2.414   0.023   0.017  0.00  0.00    +0.024 A 
ATOM      8  C   UNL     1       1.216  -0.694  -0.013  0.00  0.00    +0.043 A 
ATOM      9  C   UNL     1       0.005  -0.005  -0.034  0.00  0.00    +0.070 A 
ATOM     10  C   UNL     1      -1.410  -0.412  -0.066  0.00  0.00    +0.256 C 
ATOM     11  O   UNL     1      -1.818  -1.557  -0.082  0.00  0.00    -0.269 OA
ENDROOT
BRANCH   8  12
ATOM     12  N   UNL     1       1.232  -2.081  -0.020  0.00  0.00    -0.329 N 
ATOM     13  C   UNL     1       2.589  -2.590  -0.255  0.00  0.00    +0.106 C 
ATOM     14  C   UNL     1       2.546  -4.113  -0.402  0.00  0.00    +0.031 C 
ATOM     15  C   UNL     1       1.963  -4.727   0.874  0.00  0.00    +0.078 C 
ATOM     16  C   UNL     1       0.569  -4.144   1.122  0.00  0.00    +0.031 C 
ATOM     17  C   UNL     1       0.670  -2.620   1.224  0.00  0.00    +0.106 C 
BRANCH  15  18
ATOM     18  C   UNL     1       1.862  -6.222   0.714  0.00  0.00    +0.217 C 
ATOM     19  O   UNL     1       0.782  -6.769   0.790  0.00  0.00    -0.275 OA
ATOM     20  N   UNL     1       2.972  -6.952   0.486  0.00  0.00    -0.304 N 
ATOM     21  H   UNL     1       3.836  -6.515   0.425  0.00  0.00    +0.149 HD
BRANCH  20  22
ATOM     22  C   UNL     1       2.874  -8.406   0.330  0.00  0.00    +0.159 C 
ATOM     23  C   UNL     1       4.068  -8.918  -0.478  0.00  0.00    +0.032 C 
ATOM     24  C   UNL     1       3.730 -10.229  -1.165  0.00  0.00    +0.004 C 
ATOM     25  C   UNL     1       3.507 -11.384  -0.205  0.00  0.00    +0.019 C 
ATOM     26  C   UNL     1       2.247 -11.161   0.633  0.00  0.00    +0.104 C 
ATOM     27  N   UNL     1       2.603 -10.361   1.816  0.00  0.00    -0.314 N 
ATOM     28  C   UNL     1       2.898  -9.066   1.693  0.00  0.00    +0.233 C 
ATOM     29  O   UNL     1       3.185  -8.415   2.675  0.00  0.00    -0.274 OA
ATOM     30  H   UNL     1       2.624 -10.778   2.692  0.00  0.00    +0.149 HD
ENDBRANCH  20  22
ENDBRANCH  15  18
ENDBRANCH   8  12
BRANCH   1  31
ATOM     31  C   UNL     1      -3.641   0.687  -0.106  0.00  0.00    +0.152 C 
BRANCH  31  34
ATOM     32  C   UNL     1      -4.899  -0.538   3.237  0.00  0.00    +0.003 A 
ATOM     33  C   UNL     1      -4.416  -0.526   1.942  0.00  0.00    +0.005 A 
ATOM     34  C   UNL     1      -4.173   0.676   1.304  0.00  0.00    -0.027 A 
ATOM     35  C   UNL     1      -4.422   1.868   1.958  0.00  0.00    +0.043 A 
ATOM     36  C   UNL     1      -4.911   1.858   3.253  0.00  0.00    +0.124 A 
ATOM     37  C   UNL     1      -5.149   0.653   3.892  0.00  0.00    +0.038 A 
ATOM     38  F   UNL     1      -5.155   3.022   3.893  0.00  0.00    -0.205 F 
ENDBRANCH  31  34
ENDBRANCH   1  31
TORSDOF 5
