REMARK  Name = ZINC09816995
REMARK  10 active torsions:
REMARK  status: ('A' for Active; 'I' for Inactive)
REMARK    1  A    between atoms: C_1  and  O_2
REMARK    2  A    between atoms: O_2  and  C_3
REMARK    3  A    between atoms: C_5  and  C_12
REMARK    4  A    between atoms: C_8  and  O_9
REMARK    5  A    between atoms: O_9  and  C_10
REMARK    6  A    between atoms: C_12  and  O_14
REMARK    7  A    between atoms: O_14  and  C_15
REMARK    8  A    between atoms: C_15  and  C_16
REMARK    9  A    between atoms: N_18  and  C_19
REMARK   10  A    between atoms: C_20  and  C_28
REMARK                            x       y       z     vdW  Elec       q    Type
REMARK                         _______ _______ _______ _____ _____    ______ ____
ROOT
ATOM      1  C   UNL     1      -2.653   8.627  -3.320  0.00  0.00    +0.328 C 
ENDROOT
BRANCH   1   2
ATOM      2  C   UNL     1      -2.279   7.222  -2.922  0.00  0.00    +0.255 C 
ATOM      3  O   UNL     1      -2.260   6.341  -3.755  0.00  0.00    -0.272 OA
ATOM      4  N   UNL     1      -1.965   6.946  -1.641  0.00  0.00    -0.276 N 
ATOM      5  H   UNL     1      -1.980   7.652  -0.975  0.00  0.00    +0.155 HD
BRANCH   4   6
ATOM      6  C   UNL     1      -1.621   5.653  -1.274  0.00  0.00    +0.090 A 
ATOM      7  C   UNL     1      -1.271   5.177  -0.019  0.00  0.00    +0.084 A 
ATOM      8  C   UNL     1      -0.951   3.765   0.100  0.00  0.00    -0.018 A 
ATOM      9  C   UNL     1      -1.032   3.059  -1.049  0.00  0.00    -0.004 A 
ATOM     10  S   UNL     1      -1.524   4.240  -2.273  0.00  0.00    -0.077 S 
ATOM     11  C   UNL     1      -0.761   1.597  -1.232  0.00  0.00    +0.043 C 
ATOM     12  C   UNL     1      -0.013   1.086   0.008  0.00  0.00    +0.005 C 
ATOM     13  C   UNL     1      -0.735   1.583   1.264  0.00  0.00    +0.005 C 
ATOM     14  C   UNL     1      -0.551   3.094   1.407  0.00  0.00    +0.037 C 
BRANCH   7  15
ATOM     15  C   UNL     1      -1.226   6.046   1.118  0.00  0.00    +0.102 C 
ATOM     16  N   UNL     1      -1.191   6.736   2.020  0.00  0.00    -0.191 NA
ENDBRANCH   7  15
ENDBRANCH   4   6
ENDBRANCH   1   2
BRANCH   1  17
ATOM     17  O   UNL     1      -2.944   8.665  -4.742  0.00  0.00    -0.452 OA
BRANCH  17  18
ATOM     18  C   UNL     1      -3.298   9.857  -5.262  0.00  0.00    +0.340 C 
ATOM     19  O   UNL     1      -3.361  10.837  -4.547  0.00  0.00    -0.245 OA
BRANCH  18  22
ATOM     20  C   UNL     1      -4.266  11.309  -8.587  0.00  0.00    +0.164 A 
ATOM     21  C   UNL     1      -3.981  11.206  -7.239  0.00  0.00    +0.064 A 
ATOM     22  C   UNL     1      -3.609   9.972  -6.699  0.00  0.00    +0.064 A 
ATOM     23  C   UNL     1      -3.537   8.845  -7.523  0.00  0.00    +0.039 A 
ATOM     24  C   UNL     1      -3.828   8.954  -8.867  0.00  0.00    +0.087 A 
ATOM     25  C   UNL     1      -4.192  10.182  -9.404  0.00  0.00    +0.180 A 
ATOM     26 CL   UNL     1      -3.739   7.554  -9.889  0.00  0.00    -0.080 Cl
BRANCH  20  28
ATOM     27  C   UNL     1      -4.678  13.623  -8.221  0.00  0.00    +0.277 C 
ATOM     28  O   UNL     1      -4.623  12.510  -9.116  0.00  0.00    -0.491 OA
ENDBRANCH  20  28
BRANCH  25  29
ATOM     29  O   UNL     1      -4.477  10.285 -10.728  0.00  0.00    -0.490 OA
ATOM     30  C   UNL     1      -5.837  10.078 -11.117  0.00  0.00    +0.277 C 
ENDBRANCH  25  29
ENDBRANCH  18  22
ENDBRANCH  17  18
ENDBRANCH   1  17
TORSDOF 8
