REMARK  Name = ZINC27258487
REMARK  8 active torsions:
REMARK  status: ('A' for Active; 'I' for Inactive)
REMARK    1  A    between atoms: C_1  and  C_2
REMARK    2  A    between atoms: C_2  and  C_30
REMARK    3  A    between atoms: C_8  and  O_11
REMARK    4  A    between atoms: O_11  and  C_12
REMARK    5  A    between atoms: C_12  and  C_13
REMARK    6  A    between atoms: N_15  and  N_16
REMARK    7  A    between atoms: C_17  and  C_19
REMARK    8  A    between atoms: C_21  and  C_24
REMARK                            x       y       z     vdW  Elec       q    Type
REMARK                         _______ _______ _______ _____ _____    ______ ____
ROOT
ATOM      1  C   UNL     1      -6.902  -4.895   0.040  0.00  0.00    +0.267 C 
ATOM      2  O   UNL     1      -7.528  -3.856   0.052  0.00  0.00    -0.271 OA
ATOM      3  N   UNL     1      -5.555  -4.869   0.028  0.00  0.00    -0.231 N 
ATOM      4  H   UNL     1      -4.987  -5.811   0.017  0.00  0.00    +0.173 HD
ENDROOT
BRANCH   3   5
ATOM      5  N   UNL     1      -4.877  -3.643   0.028  0.00  0.00    -0.229 N 
ATOM      6  C   UNL     1      -3.530  -3.618   0.016  0.00  0.00    +0.282 C 
ATOM      7  O   UNL     1      -2.903  -4.658   0.004  0.00  0.00    -0.267 OA
ATOM      8  H   UNL     1      -5.445  -2.701   0.039  0.00  0.00    +0.173 HD
BRANCH   6   9
ATOM      9  C   UNL     1      -2.812  -2.319   0.017  0.00  0.00    +0.170 A 
ATOM     10  C   UNL     1      -1.407  -2.124  -0.001  0.00  0.00    +0.086 A 
ATOM     11  C   UNL     1      -1.266  -0.764   0.011  0.00  0.00    +0.168 A 
ATOM     12  O   UNL     1      -2.511  -0.255   0.025  0.00  0.00    -0.354 OA
ATOM     13  N   UNL     1      -3.350  -1.124   0.028  0.00  0.00    -0.073 NA
BRANCH  11  14
ATOM     14  C   UNL     1       0.002  -0.004   0.002  0.00  0.00    +0.020 A 
ATOM     15  C   UNL     1      -0.017   1.391   0.010  0.00  0.00    +0.011 A 
ATOM     16  C   UNL     1       1.170   2.094   0.002  0.00  0.00    +0.001 A 
ATOM     17  C   UNL     1       2.378   1.419  -0.013  0.00  0.00    +0.000 A 
ATOM     18  C   UNL     1       2.403   0.036  -0.021  0.00  0.00    +0.001 A 
ATOM     19  C   UNL     1       1.223  -0.679  -0.013  0.00  0.00    +0.011 A 
ENDBRANCH  11  14
ENDBRANCH   6   9
ENDBRANCH   3   5
BRANCH   1  20
ATOM     20  C   UNL     1      -7.631  -6.214   0.039  0.00  0.00    +0.326 C 
BRANCH  20  21
ATOM     21  O   UNL     1      -9.041  -5.979   0.054  0.00  0.00    -0.479 OA
BRANCH  21  29
ATOM     22  C   UNL     1     -13.461  -5.898  -1.841  0.00  0.00    +0.056 C 
ATOM     23  C   UNL     1     -13.324  -6.079  -0.328  0.00  0.00    +0.109 C 
ATOM     24  C   UNL     1     -13.480  -7.568   0.063  0.00  0.00    +0.086 C 
ATOM     25  C   UNL     1     -12.040  -8.045   0.063  0.00  0.00    +0.002 A 
ATOM     26  C   UNL     1     -11.484  -9.306   0.053  0.00  0.00    +0.007 A 
ATOM     27  C   UNL     1     -10.109  -9.458   0.043  0.00  0.00    +0.004 A 
ATOM     28  C   UNL     1      -9.294  -8.340   0.043  0.00  0.00    +0.049 A 
ATOM     29  C   UNL     1      -9.849  -7.073   0.055  0.00  0.00    +0.163 A 
ATOM     30  C   UNL     1     -11.237  -6.914   0.075  0.00  0.00    +0.166 A 
ATOM     31  O   UNL     1     -11.986  -5.776   0.102  0.00  0.00    -0.482 OA
ATOM     32  C   UNL     1     -14.341  -5.213   0.418  0.00  0.00    +0.056 C 
ENDBRANCH  21  29
ENDBRANCH  20  21
ENDBRANCH   1  20
TORSDOF 6
