REMARK  Name = ZINC40356015
REMARK  6 active torsions:
REMARK  status: ('A' for Active; 'I' for Inactive)
REMARK    1  A    between atoms: C_1  and  C_2
REMARK    2  A    between atoms: C_2  and  N_3
REMARK    3  A    between atoms: C_7  and  C_9
REMARK    4  A    between atoms: C_9  and  N_10
REMARK    5  A    between atoms: C_11  and  C_13
REMARK    6  A    between atoms: C_19  and  C_21
REMARK                            x       y       z     vdW  Elec       q    Type
REMARK                         _______ _______ _______ _____ _____    ______ ____
ROOT
ATOM      1  C   UNL     1      -1.501  -1.236  -4.935  0.00  0.00    +0.135 A 
ATOM      2  C   UNL     1      -2.016  -1.442  -6.184  0.00  0.00    +0.081 A 
ATOM      3  S   UNL     1      -1.051  -0.456  -7.146  0.00  0.00    -0.060 S 
ATOM      4  C   UNL     1       0.005   0.199  -5.866  0.00  0.00    +0.165 A 
ATOM      5  N   UNL     1      -0.474  -0.392  -4.791  0.00  0.00    -0.220 NA
ATOM      6  N   UNL     1       1.054   1.101  -5.974  0.00  0.00    -0.261 N 
ATOM      7  C   UNL     1       1.390   1.603  -7.179  0.00  0.00    +0.252 C 
ATOM      8  O   UNL     1       0.774   1.265  -8.171  0.00  0.00    -0.270 OA
ATOM      9  H   UNL     1       1.546   1.370  -5.183  0.00  0.00    +0.157 HD
ENDROOT
BRANCH   7  10
ATOM     10  C   UNL     1       2.507   2.562  -7.294  0.00  0.00    +0.072 A 
ATOM     11  C   UNL     1       3.221   2.947  -6.157  0.00  0.00    +0.016 A 
ATOM     12  C   UNL     1       4.262   3.843  -6.272  0.00  0.00    +0.001 A 
ATOM     13  C   UNL     1       4.602   4.362  -7.510  0.00  0.00    +0.003 A 
ATOM     14  C   UNL     1       3.902   3.988  -8.640  0.00  0.00    +0.039 A 
ATOM     15  C   UNL     1       2.858   3.085  -8.543  0.00  0.00    +0.135 A 
ATOM     16  F   UNL     1       2.177   2.714  -9.649  0.00  0.00    -0.205 F 
ENDBRANCH   7  10
BRANCH   1  18
ATOM     17  N   UNL     1      -1.557  -1.711  -2.540  0.00  0.00    -0.312 N 
ATOM     18  C   UNL     1      -2.070  -1.927  -3.767  0.00  0.00    +0.263 C 
ATOM     19  O   UNL     1      -3.005  -2.693  -3.909  0.00  0.00    -0.269 OA
ATOM     20  H   UNL     1      -0.812  -1.101  -2.426  0.00  0.00    +0.149 HD
BRANCH  17  21
ATOM     21  C   UNL     1      -2.124  -2.399  -1.377  0.00  0.00    +0.089 C 
BRANCH  21  26
ATOM     22  N   UNL     1      -1.376  -0.512   0.012  0.00  0.00    +0.382 N 
ATOM     23  C   UNL     1      -2.028  -0.158   1.291  0.00  0.00    -0.078 C 
ATOM     24  C   UNL     1      -2.935  -1.369   1.623  0.00  0.00    -0.020 C 
ATOM     25  C   UNL     1      -2.064  -2.556   1.133  0.00  0.00    -0.016 C 
ATOM     26  C   UNL     1      -1.364  -1.981  -0.117  0.00  0.00    -0.051 C 
ATOM     27  H   UNL     1      -1.894  -0.109  -0.754  0.00  0.00    -0.081 HD
BRANCH  22  29
ATOM     28  C   UNL     1      -0.019   1.526   0.010  0.00  0.00    -0.017 C 
ATOM     29  C   UNL     1       0.002  -0.004   0.002  0.00  0.00    -0.082 C 
ENDBRANCH  22  29
ENDBRANCH  21  26
ENDBRANCH  17  21
ENDBRANCH   1  18
TORSDOF 5
