REMARK  Name = ZINC64380689
REMARK  10 active torsions:
REMARK  status: ('A' for Active; 'I' for Inactive)
REMARK    1  A    between atoms: C_1  and  C_2
REMARK    2  A    between atoms: N_6  and  O_7
REMARK    3  A    between atoms: O_7  and  C_8
REMARK    4  A    between atoms: C_8  and  C_9
REMARK    5  A    between atoms: N_11  and  C_12
REMARK    6  A    between atoms: C_12  and  C_13
REMARK    7  A    between atoms: C_13  and  C_14
REMARK    8  A    between atoms: C_33  and  C_42
REMARK    9  A    between atoms: C_38  and  C_39
REMARK   10  A    between atoms: C_38  and  O_41
REMARK                            x       y       z     vdW  Elec       q    Type
REMARK                         _______ _______ _______ _____ _____    ______ ____
ROOT
ATOM      1  C   UNL     1      -0.120   1.638  -0.140  0.00  0.00    +0.016 C 
ATOM      2  C   UNL     1      -0.054   0.110  -0.132  0.00  0.00    -0.007 C 
ATOM      3  C   UNL     1       0.597  -0.402  -1.411  0.00  0.00    +0.017 C 
ATOM      4  C   UNL     1       2.053   0.068  -1.489  0.00  0.00    +0.059 C 
ATOM      5  C   UNL     1       2.780  -0.333  -0.231  0.00  0.00    +0.080 C 
ATOM      6  N   UNL     1       4.068  -0.482  -0.247  0.00  0.00    -0.089 NA
ATOM      7  C   UNL     1       2.034  -0.551   1.014  0.00  0.00    +0.026 C 
ATOM      8  C   UNL     1       0.726  -0.358   1.073  0.00  0.00    -0.062 C 
ATOM      9  C   UNL     1      -0.026  -0.611   2.358  0.00  0.00    +0.031 C 
ATOM     10  C   UNL     1      -1.050  -1.723   2.129  0.00  0.00    +0.008 C 
ATOM     11  C   UNL     1      -1.406  -1.826   0.651  0.00  0.00    -0.003 C 
ATOM     12  C   UNL     1      -1.483  -0.453   0.001  0.00  0.00    +0.002 C 
ATOM     13  C   UNL     1      -2.161  -0.474  -1.356  0.00  0.00    +0.005 C 
ATOM     14  C   UNL     1      -3.540  -1.141  -1.362  0.00  0.00    +0.011 C 
ATOM     15  C   UNL     1      -3.841  -1.807  -0.048  0.00  0.00    +0.011 C 
ATOM     16  C   UNL     1      -2.635  -2.652   0.408  0.00  0.00    +0.002 C 
ATOM     17  C   UNL     1      -3.207  -3.409   1.616  0.00  0.00    +0.008 C 
ATOM     18  C   UNL     1      -4.659  -3.742   1.182  0.00  0.00    +0.049 C 
ATOM     19  C   UNL     1      -4.963  -2.862  -0.058  0.00  0.00    +0.132 C 
ATOM     20  C   UNL     1      -4.245  -0.765   1.006  0.00  0.00    +0.015 C 
ENDROOT
BRANCH  19  21
ATOM     21  C   UNL     1      -4.949  -3.683  -1.272  0.00  0.00    -0.070 C 
ATOM     22  C   UNL     1      -4.938  -4.341  -2.244  0.00  0.00    +0.007 C 
ENDBRANCH  19  21
BRANCH  19  23
ATOM     23  O   UNL     1      -6.228  -2.216   0.098  0.00  0.00    -0.376 OA
ATOM     24  H   UNL     1      -6.982  -2.822   0.100  0.00  0.00    +0.211 HD
ENDBRANCH  19  23
BRANCH   6  25
ATOM     25  O   UNL     1       4.752  -0.859   0.934  0.00  0.00    -0.384 OA
BRANCH  25  26
ATOM     26  C   UNL     1       6.166  -0.986   0.771  0.00  0.00    +0.358 C 
BRANCH  26  27
ATOM     27  C   UNL     1       6.789  -1.388   2.083  0.00  0.00    +0.253 C 
ATOM     28  O   UNL     1       6.090  -1.549   3.061  0.00  0.00    -0.272 OA
ATOM     29  N   UNL     1       8.121  -1.568   2.169  0.00  0.00    -0.312 N 
ATOM     30  H   UNL     1       8.680  -1.439   1.386  0.00  0.00    +0.149 HD
BRANCH  29  31
ATOM     31  C   UNL     1       8.727  -1.959   3.444  0.00  0.00    +0.108 C 
BRANCH  31  32
ATOM     32  C   UNL     1      10.241  -2.096   3.270  0.00  0.00    +0.052 C 
BRANCH  32  33
ATOM     33  C   UNL     1      10.863  -2.498   4.582  0.00  0.00    -0.040 C 
ATOM     34  C   UNL     1      11.166  -3.752   4.988  0.00  0.00    -0.001 A 
ATOM     35  C   UNL     1      11.011  -5.067   4.354  0.00  0.00    +0.010 A 
ATOM     36  C   UNL     1      11.415  -6.170   5.025  0.00  0.00    +0.001 A 
ATOM     37  C   UNL     1      11.978  -6.089   6.306  0.00  0.00    +0.002 A 
ATOM     38  C   UNL     1      12.153  -4.917   6.953  0.00  0.00    +0.026 A 
ATOM     39  C   UNL     1      11.763  -3.693   6.341  0.00  0.00    +0.043 A 
ATOM     40  N   UNL     1      11.827  -2.451   6.756  0.00  0.00    -0.380 N 
ATOM     41  C   UNL     1      11.283  -1.580   5.708  0.00  0.00    +0.144 C 
ATOM     42  H   UNL     1      12.179  -2.157   7.611  0.00  0.00    +0.160 HD
ENDBRANCH  32  33
ENDBRANCH  31  32
ENDBRANCH  29  31
ENDBRANCH  26  27
ENDBRANCH  25  26
ENDBRANCH   6  25
TORSDOF 8
