REMARK  Name = ZINC04402392
REMARK  7 active torsions:
REMARK  status: ('A' for Active; 'I' for Inactive)
REMARK    1  A    between atoms: C_1  and  C_2
REMARK    2  A    between atoms: C_2  and  N_3
REMARK    3  A    between atoms: N_3  and  N_4
REMARK    4  A    between atoms: C_5  and  C_7
REMARK    5  A    between atoms: C_10  and  N_13
REMARK    6  A    between atoms: C_16  and  C_17
REMARK    7  A    between atoms: N_19  and  C_20
REMARK                            x       y       z     vdW  Elec       q    Type
REMARK                         _______ _______ _______ _____ _____    ______ ____
ROOT
ATOM      1  C   UNL     1       3.986   5.543   1.179  0.00  0.00    +0.062 C 
ATOM      2  C   UNL     1       3.408   6.299   0.010  0.00  0.00    +0.024 C 
ATOM      3  C   UNL     1       3.398   7.806   0.018  0.00  0.00    +0.087 C 
ENDROOT
BRANCH   3   4
ATOM      4  C   UNL     1       4.017   8.306   1.297  0.00  0.00    +0.243 C 
ATOM      5  O   UNL     1       4.427   7.516   2.122  0.00  0.00    -0.270 OA
ATOM      6  N   UNL     1       4.116   9.631   1.526  0.00  0.00    -0.280 N 
ATOM      7  H   UNL     1       3.829  10.347   0.741  0.00  0.00    +0.155 HD
BRANCH   6   8
ATOM      8  C   UNL     1       4.584  10.096   2.762  0.00  0.00    +0.069 A 
ATOM      9  C   UNL     1       4.463   9.303   3.894  0.00  0.00    +0.029 A 
ATOM     10  C   UNL     1       4.926   9.762   5.112  0.00  0.00    +0.040 A 
ATOM     11  C   UNL     1       5.511  11.014   5.204  0.00  0.00    +0.126 A 
ATOM     12  C   UNL     1       5.634  11.808   4.077  0.00  0.00    +0.078 A 
ATOM     13  C   UNL     1       5.177  11.350   2.854  0.00  0.00    +0.147 A 
ATOM     14  F   UNL     1       5.301  12.123   1.753  0.00  0.00    -0.203 F 
ATOM     15  F   UNL     1       5.963  11.461   6.396  0.00  0.00    -0.205 F 
ENDBRANCH   6   8
ENDBRANCH   3   4
BRANCH   2  16
ATOM     16  N   UNL     1       2.926   5.660  -0.989  0.00  0.00    -0.268 N 
ATOM     17  H   UNL     1       2.505   6.212  -1.843  0.00  0.00    +0.170 HD
BRANCH  16  18
ATOM     18  N   UNL     1       2.936   4.260  -0.996  0.00  0.00    -0.233 N 
ATOM     19  C   UNL     1       2.429   3.587  -2.049  0.00  0.00    +0.260 C 
ATOM     20  O   UNL     1       1.963   4.197  -2.992  0.00  0.00    -0.269 OA
ATOM     21  H   UNL     1       3.358   3.708  -0.143  0.00  0.00    +0.173 HD
BRANCH  19  22
ATOM     22  C   UNL     1       2.440   2.109  -2.056  0.00  0.00    +0.038 A 
ATOM     23  C   UNL     1       1.915   1.410  -3.145  0.00  0.00    +0.015 A 
ATOM     24  C   UNL     1       1.928   0.031  -3.145  0.00  0.00    +0.033 A 
ATOM     25  C   UNL     1       2.459  -0.660  -2.070  0.00  0.00    +0.126 A 
ATOM     26  C   UNL     1       2.980   0.027  -0.988  0.00  0.00    +0.033 A 
ATOM     27  C   UNL     1       2.973   1.407  -0.975  0.00  0.00    +0.015 A 
BRANCH  25  28
ATOM     28  N   UNL     1       2.469  -2.140  -2.077  0.00  0.00    +0.056 N 
ATOM     29  O   UNL     1       2.010  -2.747  -3.028  0.00  0.00    -0.126 OA
ATOM     30  O   UNL     1       2.936  -2.751  -1.133  0.00  0.00    -0.126 OA
ENDBRANCH  25  28
ENDBRANCH  19  22
ENDBRANCH  16  18
ENDBRANCH   2  16
TORSDOF 6
