REMARK  Name = ZINC35576731
REMARK  5 active torsions:
REMARK  status: ('A' for Active; 'I' for Inactive)
REMARK    1  A    between atoms: C_4  and  C_7
REMARK    2  A    between atoms: C_9  and  N_35
REMARK    3  A    between atoms: N_10  and  C_27
REMARK    4  A    between atoms: N_16  and  C_17
REMARK    5  A    between atoms: C_17  and  C_18
REMARK                            x       y       z     vdW  Elec       q    Type
REMARK                         _______ _______ _______ _____ _____    ______ ____
ROOT
ATOM      1  C   UNL     1       3.778  -0.555   0.166  0.00  0.00    +0.089 A 
ATOM      2  C   UNL     1       3.921  -1.799   0.820  0.00  0.00    +0.086 A 
ATOM      3  C   UNL     1       3.107  -2.615   1.597  0.00  0.00    +0.131 A 
ATOM      4  N   UNL     1       3.828  -3.701   1.937  0.00  0.00    -0.216 N 
ATOM      5  N   UNL     1       5.113  -3.609   1.391  0.00  0.00    -0.144 NA
ATOM      6  C   UNL     1       5.220  -2.488   0.712  0.00  0.00    +0.189 A 
ATOM      7  N   UNL     1       6.193  -1.890  -0.002  0.00  0.00    -0.193 NA
ATOM      8  C   UNL     1       5.974  -0.726  -0.579  0.00  0.00    +0.218 A 
ATOM      9  N   UNL     1       4.815  -0.078  -0.510  0.00  0.00    -0.214 NA
ATOM     10  N   UNL     1       7.003  -0.151  -1.302  0.00  0.00    -0.309 N 
ATOM     11  H   UNL     1       6.871   0.706  -1.738  0.00  0.00    +0.149 HD
ENDROOT
BRANCH   4  12
ATOM     12  C   UNL     1       3.361  -4.762   2.722  0.00  0.00    +0.069 A 
ATOM     13  C   UNL     1       2.469  -4.521   3.759  0.00  0.00    +0.029 A 
ATOM     14  C   UNL     1       2.010  -5.569   4.532  0.00  0.00    +0.023 A 
ATOM     15  C   UNL     1       2.438  -6.860   4.274  0.00  0.00    +0.059 A 
ATOM     16  C   UNL     1       3.327  -7.104   3.241  0.00  0.00    +0.061 A 
ATOM     17  C   UNL     1       3.784  -6.059   2.461  0.00  0.00    +0.049 A 
ATOM     18 CL   UNL     1       3.862  -8.724   2.921  0.00  0.00    -0.082 Cl
ATOM     19 CL   UNL     1       1.859  -8.175   5.248  0.00  0.00    -0.082 Cl
ENDBRANCH   4  12
BRANCH   1  23
ATOM     20  C   UNL     1       0.119   1.598   0.350  0.00  0.00    +0.000 A 
ATOM     21  C   UNL     1       0.657   1.054   1.503  0.00  0.00    +0.001 A 
ATOM     22  C   UNL     1       1.845   0.354   1.450  0.00  0.00    +0.010 A 
ATOM     23  C   UNL     1       2.503   0.195   0.230  0.00  0.00    +0.001 A 
ATOM     24  C   UNL     1       1.956   0.745  -0.929  0.00  0.00    +0.010 A 
ATOM     25  C   UNL     1       0.767   1.444  -0.863  0.00  0.00    +0.001 A 
ENDBRANCH   1  23
BRANCH   3  26
ATOM     26  N   UNL     1       1.797  -2.358   1.955  0.00  0.00    -0.342 N 
ATOM     27  H   UNL     1       1.313  -1.630   1.535  0.00  0.00    +0.144 HD
ATOM     28  H   UNL     1       1.361  -2.907   2.626  0.00  0.00    +0.144 HD
ENDBRANCH   3  26
BRANCH  10  29
ATOM     29  C   UNL     1       8.295  -0.834  -1.409  0.00  0.00    +0.139 C 
BRANCH  29  30
ATOM     30  C   UNL     1       9.236  -0.003  -2.242  0.00  0.00    -0.027 A 
ATOM     31  C   UNL     1       9.283  -0.181  -3.612  0.00  0.00    +0.009 A 
ATOM     32  C   UNL     1      10.144   0.580  -4.381  0.00  0.00    +0.050 A 
ATOM     33  C   UNL     1      10.963   1.522  -3.780  0.00  0.00    +0.166 A 
ATOM     34  C   UNL     1      10.915   1.700  -2.400  0.00  0.00    +0.167 A 
ATOM     35  C   UNL     1      10.046   0.939  -1.636  0.00  0.00    +0.054 A 
ATOM     36  O   UNL     1      11.807   2.675  -2.055  0.00  0.00    -0.453 OA
ATOM     37  C   UNL     1      12.691   2.804  -3.183  0.00  0.00    +0.466 C 
ATOM     38  O   UNL     1      11.884   2.384  -4.300  0.00  0.00    -0.453 OA
ENDBRANCH  29  30
ENDBRANCH  10  29
TORSDOF 5
