REMARK  Name = ZINC17209118
REMARK  7 active torsions:
REMARK  status: ('A' for Active; 'I' for Inactive)
REMARK    1  A    between atoms: C_1  and  C_2
REMARK    2  A    between atoms: C_4  and  C_34
REMARK    3  A    between atoms: C_6  and  N_8
REMARK    4  A    between atoms: C_10  and  C_16
REMARK    5  A    between atoms: C_23  and  O_24
REMARK    6  A    between atoms: O_24  and  C_25
REMARK    7  A    between atoms: N_31  and  C_32
REMARK                            x       y       z     vdW  Elec       q    Type
REMARK                         _______ _______ _______ _____ _____    ______ ____
ROOT
ATOM      1  N   UNL     1       2.480   0.673  -0.013  0.00  0.00    -0.256 N 
ATOM      2  C   UNL     1       1.432   1.379  -0.552  0.00  0.00    +0.265 A 
ATOM      3  C   UNL     1       1.543   2.729  -0.708  0.00  0.00    +0.072 A 
ATOM      4  C   UNL     1       2.733   3.367  -0.316  0.00  0.00    +0.258 A 
ATOM      5  O   UNL     1       2.854   4.573  -0.446  0.00  0.00    -0.267 OA
ATOM      6  N   UNL     1       3.739   2.636   0.204  0.00  0.00    -0.302 N 
ATOM      7  C   UNL     1       3.612   1.304   0.350  0.00  0.00    +0.168 A 
ATOM      8  S   UNL     1       4.906   0.401   1.013  0.00  0.00    -0.012 S 
ATOM      9  O   UNL     1       0.300   0.742  -0.920  0.00  0.00    -0.267 OA
ATOM     10  H   UNL     1       4.670   3.136   0.510  0.00  0.00    +0.171 HD
ENDROOT
BRANCH   3  11
ATOM     11  C   UNL     1       0.405   3.526  -1.291  0.00  0.00    +0.008 C 
ATOM     12  C   UNL     1       0.839   4.126  -2.602  0.00  0.00    -0.008 A 
ATOM     13  C   UNL     1       0.526   5.423  -2.949  0.00  0.00    -0.040 A 
ATOM     14  C   UNL     1       0.941   5.935  -4.169  0.00  0.00    +0.053 A 
ATOM     15  C   UNL     1       1.672   5.152  -5.047  0.00  0.00    +0.170 A 
ATOM     16  C   UNL     1       1.992   3.844  -4.701  0.00  0.00    +0.208 A 
ATOM     17  C   UNL     1       1.574   3.335  -3.480  0.00  0.00    +0.167 A 
ATOM     18  O   UNL     1       2.710   3.286  -5.720  0.00  0.00    -0.449 OA
ATOM     19  C   UNL     1       2.475   4.130  -6.863  0.00  0.00    +0.467 C 
ATOM     20  O   UNL     1       2.188   5.417  -6.283  0.00  0.00    -0.452 OA
ATOM     21  C   UNL     1      -0.264   6.318  -2.028  0.00  0.00    +0.017 C 
ATOM     22  C   UNL     1      -0.970   5.478  -0.963  0.00  0.00    -0.073 C 
ATOM     23  N   UNL     1       0.018   4.579  -0.347  0.00  0.00    +0.386 N 
ATOM     24  C   UNL     1      -0.500   4.004   0.901  0.00  0.00    -0.095 C 
ATOM     25  H   UNL     1       0.916   5.164  -0.097  0.00  0.00    -0.081 HD
BRANCH  17  26
ATOM     26  O   UNL     1       1.886   2.056  -3.138  0.00  0.00    -0.491 OA
ATOM     27  C   UNL     1       1.036   1.024  -3.642  0.00  0.00    +0.277 C 
ENDBRANCH  17  26
ENDBRANCH   3  11
BRANCH   1  33
ATOM     28  C   UNL     1       3.372  -3.874  -1.658  0.00  0.00    +0.044 C 
ATOM     29  C   UNL     1       2.795  -2.940  -0.626  0.00  0.00    -0.048 A 
ATOM     30  C   UNL     1       2.158  -3.451   0.490  0.00  0.00    +0.006 A 
ATOM     31  C   UNL     1       1.628  -2.597   1.439  0.00  0.00    -0.048 A 
ATOM     32  C   UNL     1       1.733  -1.230   1.276  0.00  0.00    +0.029 A 
ATOM     33  C   UNL     1       2.372  -0.713   0.156  0.00  0.00    +0.052 A 
ATOM     34  C   UNL     1       2.898  -1.573  -0.798  0.00  0.00    +0.029 A 
ATOM     35  C   UNL     1       0.935  -3.159   2.654  0.00  0.00    +0.044 C 
ENDBRANCH   1  33
TORSDOF 3
