REMARK  Name = ZINC37776847
REMARK  7 active torsions:
REMARK  status: ('A' for Active; 'I' for Inactive)
REMARK    1  A    between atoms: C_1  and  C_2
REMARK    2  A    between atoms: C_6  and  O_19
REMARK    3  A    between atoms: C_7  and  N_8
REMARK    4  A    between atoms: N_8  and  C_9
REMARK    5  A    between atoms: C_9  and  C_10
REMARK    6  A    between atoms: C_13  and  N_16
REMARK    7  A    between atoms: O_19  and  C_20
REMARK                            x       y       z     vdW  Elec       q    Type
REMARK                         _______ _______ _______ _____ _____    ______ ____
ROOT
ATOM      1  N   UNL     1       0.025  -0.012   2.416  0.00  0.00    -0.337 N 
ATOM      2  H   UNL     1       0.230   0.936   2.435  0.00  0.00    +0.147 HD
ENDROOT
BRANCH   1   9
ATOM      3  C   UNL     1      -0.018   1.503   0.010  0.00  0.00    +0.046 C 
ATOM      4  C   UNL     1       0.002  -0.004   0.002  0.00  0.00    -0.025 A 
ATOM      5  C   UNL     1       0.006  -0.689  -1.199  0.00  0.00    +0.020 A 
ATOM      6  C   UNL     1       0.024  -2.072  -1.210  0.00  0.00    +0.022 A 
ATOM      7  C   UNL     1       0.039  -2.776  -0.019  0.00  0.00    +0.062 A 
ATOM      8  C   UNL     1       0.035  -2.097   1.187  0.00  0.00    +0.142 A 
ATOM      9  C   UNL     1       0.023  -0.704   1.199  0.00  0.00    +0.073 A 
ATOM     10 BR   UNL     1       0.029  -3.002  -2.857  0.00  0.00    -0.050 Br
BRANCH   8  11
ATOM     11  O   UNL     1       0.049  -2.789   2.359  0.00  0.00    -0.493 OA
ATOM     12  C   UNL     1       0.067  -4.215   2.270  0.00  0.00    +0.277 C 
ENDBRANCH   8  11
ENDBRANCH   1   9
BRANCH   1  13
ATOM     13  C   UNL     1      -0.282  -0.720   3.662  0.00  0.00    +0.137 C 
BRANCH  13  14
ATOM     14  C   UNL     1      -0.213   0.244   4.818  0.00  0.00    -0.030 A 
ATOM     15  C   UNL     1       0.982   0.437   5.487  0.00  0.00    +0.007 A 
ATOM     16  C   UNL     1       1.045   1.321   6.547  0.00  0.00    +0.033 A 
ATOM     17  C   UNL     1      -0.086   2.013   6.939  0.00  0.00    +0.126 A 
ATOM     18  C   UNL     1      -1.280   1.821   6.269  0.00  0.00    +0.033 A 
ATOM     19  C   UNL     1      -1.342   0.940   5.206  0.00  0.00    +0.007 A 
BRANCH  17  20
ATOM     20  N   UNL     1      -0.018   2.959   8.075  0.00  0.00    +0.056 N 
ATOM     21  O   UNL     1       1.026   3.127   8.660  0.00  0.00    -0.126 OA
ATOM     22  O   UNL     1      -1.007   3.564   8.417  0.00  0.00    -0.126 OA
ENDBRANCH  17  20
ENDBRANCH  13  14
ENDBRANCH   1  13
TORSDOF 5
