REMARK  Name = ZINC00639283
REMARK  13 active torsions:
REMARK  status: ('A' for Active; 'I' for Inactive)
REMARK    1  A    between atoms: C_1  and  C_2
REMARK    2  A    between atoms: C_2  and  O_3
REMARK    3  A    between atoms: O_3  and  C_4
REMARK    4  A    between atoms: C_4  and  C_6
REMARK    5  A    between atoms: C_7  and  C_33
REMARK    6  A    between atoms: C_9  and  N_32
REMARK    7  A    between atoms: C_10  and  C_30
REMARK    8  A    between atoms: C_11  and  C_13
REMARK    9  A    between atoms: C_16  and  O_21
REMARK   10  A    between atoms: C_17  and  O_19
REMARK   11  A    between atoms: O_19  and  C_20
REMARK   12  A    between atoms: O_21  and  C_22
REMARK   13  A    between atoms: C_22  and  C_23
REMARK                            x       y       z     vdW  Elec       q    Type
REMARK                         _______ _______ _______ _____ _____    ______ ____
ROOT
ATOM      1  C   UNL     1       0.003  -0.004   0.013  0.00  0.00    +0.087 C 
ATOM      2  C   UNL     1       1.171  -0.646  -0.114  0.00  0.00    +0.115 C 
ATOM      3  O   UNL     1       1.254  -1.984  -0.139  0.00  0.00    -0.445 OA
ATOM      4  C   UNL     1       0.233  -2.717   0.337  0.00  0.00    +0.198 C 
ATOM      5  C   UNL     1      -1.008  -2.197   0.492  0.00  0.00    +0.098 C 
ATOM      6  C   UNL     1      -1.290  -0.762   0.142  0.00  0.00    +0.105 C 
ATOM      7  C   UNL     1       2.437   0.164  -0.232  0.00  0.00    +0.087 C 
ENDROOT
BRANCH   6   8
ATOM      8  C   UNL     1      -2.035  -0.708  -1.167  0.00  0.00    -0.031 A 
ATOM      9  C   UNL     1      -1.457  -1.224  -2.312  0.00  0.00    +0.008 A 
ATOM     10  C   UNL     1      -2.137  -1.176  -3.515  0.00  0.00    +0.050 A 
ATOM     11  C   UNL     1      -3.401  -0.612  -3.575  0.00  0.00    +0.162 A 
ATOM     12  C   UNL     1      -3.983  -0.093  -2.422  0.00  0.00    +0.162 A 
ATOM     13  C   UNL     1      -3.298  -0.148  -1.219  0.00  0.00    +0.054 A 
BRANCH  12  14
ATOM     14  O   UNL     1      -5.223   0.462  -2.475  0.00  0.00    -0.491 OA
ATOM     15  C   UNL     1      -5.758   0.974  -1.253  0.00  0.00    +0.277 C 
ENDBRANCH  12  14
BRANCH  11  16
ATOM     16  O   UNL     1      -4.071  -0.564  -4.757  0.00  0.00    -0.484 OA
BRANCH  16  17
ATOM     17  C   UNL     1      -3.411  -1.115  -5.899  0.00  0.00    +0.264 C 
BRANCH  17  18
ATOM     18  C   UNL     1      -4.299  -0.974  -7.109  0.00  0.00    -0.010 A 
ATOM     19  C   UNL     1      -5.190  -1.979  -7.433  0.00  0.00    +0.008 A 
ATOM     20  C   UNL     1      -6.008  -1.848  -8.540  0.00  0.00    +0.015 A 
ATOM     21  C   UNL     1      -5.927  -0.715  -9.328  0.00  0.00    +0.018 A 
ATOM     22  C   UNL     1      -5.032   0.289  -9.006  0.00  0.00    +0.015 A 
ATOM     23  C   UNL     1      -4.218   0.159  -7.896  0.00  0.00    +0.008 A 
ATOM     24 BR   UNL     1      -7.041  -0.537 -10.846  0.00  0.00    -0.050 Br
ENDBRANCH  17  18
ENDBRANCH  16  17
ENDBRANCH  11  16
ENDBRANCH   6   8
BRANCH   4  25
ATOM     25  N   UNL     1       0.454  -4.029   0.675  0.00  0.00    -0.328 N 
ATOM     26  H   UNL     1       1.337  -4.415   0.570  0.00  0.00    +0.145 HD
ATOM     27  H   UNL     1      -0.274  -4.570   1.020  0.00  0.00    +0.145 HD
ENDBRANCH   4  25
BRANCH   1  28
ATOM     28  C   UNL     1      -0.015   1.412   0.031  0.00  0.00    +0.339 C 
ATOM     29  O   UNL     1       1.031   2.034   0.040  0.00  0.00    -0.245 OA
BRANCH  28  30
ATOM     30  O   UNL     1      -1.192   2.072   0.033  0.00  0.00    -0.462 OA
BRANCH  30  32
ATOM     31  C   UNL     1      -2.557   4.066   0.052  0.00  0.00    +0.048 C 
ATOM     32  C   UNL     1      -1.135   3.499   0.053  0.00  0.00    +0.229 C 
ENDBRANCH  30  32
ENDBRANCH  28  30
ENDBRANCH   1  28
BRANCH   5  33
ATOM     33  C   UNL     1      -2.063  -3.021   1.001  0.00  0.00    +0.101 C 
ATOM     34  N   UNL     1      -2.900  -3.674   1.405  0.00  0.00    -0.191 NA
ENDBRANCH   5  33
TORSDOF 10
