REMARK  Name = ZINC06998426
REMARK  7 active torsions:
REMARK  status: ('A' for Active; 'I' for Inactive)
REMARK    1  A    between atoms: C_1  and  O_2
REMARK    2  A    between atoms: O_2  and  C_3
REMARK    3  A    between atoms: C_6  and  O_27
REMARK    4  A    between atoms: C_7  and  C_9
REMARK    5  A    between atoms: C_14  and  C_15
REMARK    6  A    between atoms: C_14  and  N_50
REMARK    7  A    between atoms: O_27  and  C_28
REMARK                            x       y       z     vdW  Elec       q    Type
REMARK                         _______ _______ _______ _____ _____    ______ ____
ROOT
ATOM      1  C   UNL     1      -2.224   5.335   3.846  0.00  0.00    -0.033 C 
ATOM      2  C   UNL     1      -1.188   5.748   4.913  0.00  0.00    -0.012 C 
ATOM      3  C   UNL     1      -1.834   5.378   6.264  0.00  0.00    -0.020 C 
ATOM      4  C   UNL     1      -3.207   4.773   5.899  0.00  0.00    -0.077 C 
ATOM      5  N   UNL     1      -3.021   4.312   4.519  0.00  0.00    +0.389 N 
ATOM      6  H   UNL     1      -2.520   3.416   4.511  0.00  0.00    -0.080 HD
ENDROOT
BRANCH   1  11
ATOM      7  C   UNL     1      -0.787   2.893   1.346  0.00  0.00    +0.121 A 
ATOM      8  C   UNL     1      -0.253   3.750   0.396  0.00  0.00    +0.049 A 
ATOM      9  C   UNL     1      -0.366   5.117   0.558  0.00  0.00    +0.049 A 
ATOM     10  C   UNL     1      -1.003   5.633   1.677  0.00  0.00    +0.122 A 
ATOM     11  C   UNL     1      -1.532   4.775   2.630  0.00  0.00    -0.016 A 
ATOM     12  C   UNL     1      -1.425   3.408   2.465  0.00  0.00    +0.051 A 
BRANCH   7  14
ATOM     13  C   UNL     1      -0.013   1.086   0.008  0.00  0.00    +0.277 C 
ATOM     14  O   UNL     1      -0.682   1.547   1.184  0.00  0.00    -0.495 OA
ENDBRANCH   7  14
BRANCH  10  15
ATOM     15  O   UNL     1      -1.109   6.979   1.840  0.00  0.00    -0.495 OA
ATOM     16  C   UNL     1      -0.541   7.802   0.819  0.00  0.00    +0.277 C 
ENDBRANCH  10  15
ENDBRANCH   1  11
BRANCH   5  17
ATOM     17  C   UNL     1      -4.346   4.140   3.842  0.00  0.00    -0.002 C 
BRANCH  17  18
ATOM     18  C   UNL     1      -5.045   2.914   4.372  0.00  0.00    +0.094 A 
ATOM     19  N   UNL     1      -6.275   2.611   3.882  0.00  0.00    -0.312 N 
ATOM     20  H   UNL     1      -6.691   3.201   3.190  0.00  0.00    +0.170 HD
ATOM     21  C   UNL     1      -6.941   1.518   4.321  0.00  0.00    +0.259 A 
ATOM     22  O   UNL     1      -8.042   1.232   3.887  0.00  0.00    -0.267 OA
ATOM     23  C   UNL     1      -6.287   0.694   5.348  0.00  0.00    +0.065 A 
ATOM     24  C   UNL     1      -6.891  -0.448   5.871  0.00  0.00    +0.015 A 
ATOM     25  C   UNL     1      -6.233  -1.184   6.832  0.00  0.00    +0.001 A 
ATOM     26  C   UNL     1      -4.977  -0.797   7.281  0.00  0.00    +0.002 A 
ATOM     27  C   UNL     1      -4.364   0.328   6.777  0.00  0.00    +0.028 A 
ATOM     28  C   UNL     1      -5.010   1.090   5.802  0.00  0.00    +0.078 A 
ATOM     29  N   UNL     1      -4.443   2.205   5.279  0.00  0.00    -0.236 NA
ENDBRANCH  17  18
ENDBRANCH   5  17
TORSDOF 5
