REMARK  Name = ZINC63237025
REMARK  11 active torsions:
REMARK  status: ('A' for Active; 'I' for Inactive)
REMARK    1  A    between atoms: C_1  and  C_2
REMARK    2  A    between atoms: C_4  and  N_11
REMARK    3  A    between atoms: C_5  and  O_9
REMARK    4  A    between atoms: O_9  and  C_10
REMARK    5  A    between atoms: C_12  and  C_14
REMARK    6  A    between atoms: C_14  and  O_15
REMARK    7  A    between atoms: O_15  and  C_16
REMARK    8  A    between atoms: C_16  and  C_18
REMARK    9  A    between atoms: C_18  and  C_19
REMARK   10  A    between atoms: C_19  and  C_20
REMARK   11  A    between atoms: C_20  and  C_21
REMARK                            x       y       z     vdW  Elec       q    Type
REMARK                         _______ _______ _______ _____ _____    ______ ____
ROOT
ATOM      1  O   UNL     1      -0.312  -1.916  -5.968  0.00  0.00    -0.455 OA
ENDROOT
BRANCH   1   2
ATOM      2  C   UNL     1      -0.419  -2.428  -7.205  0.00  0.00    +0.308 C 
ATOM      3  O   UNL     1      -0.417  -3.626  -7.365  0.00  0.00    -0.251 OA
BRANCH   2   4
ATOM      4  C   UNL     1      -0.543  -1.509  -8.393  0.00  0.00    +0.121 C 
BRANCH   4   5
ATOM      5  C   UNL     1      -0.649  -2.341  -9.672  0.00  0.00    +0.015 C 
BRANCH   5   6
ATOM      6  C   UNL     1      -0.774  -1.408 -10.878  0.00  0.00    +0.034 C 
BRANCH   6   7
ATOM      7  C   UNL     1      -0.879  -2.228 -12.138  0.00  0.00    -0.042 C 
ATOM      8  C   UNL     1      -2.014  -2.602 -12.773  0.00  0.00    -0.001 A 
ATOM      9  C   UNL     1      -3.435  -2.367 -12.490  0.00  0.00    +0.010 A 
ATOM     10  C   UNL     1      -4.364  -2.882 -13.328  0.00  0.00    +0.001 A 
ATOM     11  C   UNL     1      -4.005  -3.632 -14.456  0.00  0.00    +0.002 A 
ATOM     12  C   UNL     1      -2.720  -3.889 -14.781  0.00  0.00    +0.026 A 
ATOM     13  C   UNL     1      -1.661  -3.397 -13.971  0.00  0.00    +0.043 A 
ATOM     14  N   UNL     1      -0.359  -3.510 -14.073  0.00  0.00    -0.380 N 
ATOM     15  C   UNL     1       0.262  -2.793 -12.953  0.00  0.00    +0.144 C 
ATOM     16  H   UNL     1       0.115  -3.984 -14.774  0.00  0.00    +0.160 HD
ENDBRANCH   6   7
ENDBRANCH   5   6
ENDBRANCH   4   5
ENDBRANCH   2   4
ENDBRANCH   1   2
BRANCH   1  17
ATOM     17  C   UNL     1      -0.199  -2.845  -4.889  0.00  0.00    +0.328 C 
BRANCH  17  19
ATOM     18  N   UNL     1       0.028  -2.768  -2.427  0.00  0.00    -0.280 N 
ATOM     19  C   UNL     1      -0.089  -2.093  -3.588  0.00  0.00    +0.255 C 
ATOM     20  O   UNL     1      -0.106  -0.880  -3.585  0.00  0.00    -0.272 OA
ATOM     21  H   UNL     1       0.123  -3.733  -2.434  0.00  0.00    +0.155 HD
BRANCH  18  25
ATOM     22  C   UNL     1      -1.301   1.185   0.178  0.00  0.00    +0.045 C 
ATOM     23  C   UNL     1      -0.624  -0.157   0.083  0.00  0.00    -0.030 A 
ATOM     24  C   UNL     1      -0.610  -0.839  -1.119  0.00  0.00    +0.031 A 
ATOM     25  C   UNL     1       0.014  -2.075  -1.209  0.00  0.00    +0.076 A 
ATOM     26  C   UNL     1       0.626  -2.626  -0.085  0.00  0.00    +0.143 A 
ATOM     27  C   UNL     1       0.608  -1.937   1.117  0.00  0.00    +0.067 A 
ATOM     28  C   UNL     1      -0.012  -0.702   1.198  0.00  0.00    +0.047 A 
ATOM     29 CL   UNL     1      -0.026   0.163   2.703  0.00  0.00    -0.083 Cl
BRANCH  26  30
ATOM     30  O   UNL     1       1.238  -3.837  -0.167  0.00  0.00    -0.493 OA
ATOM     31  C   UNL     1       1.844  -4.339   1.026  0.00  0.00    +0.277 C 
ENDBRANCH  26  30
ENDBRANCH  18  25
ENDBRANCH  17  19
ENDBRANCH   1  17
TORSDOF 9
