REMARK  Name = ZINC14005612
REMARK  6 active torsions:
REMARK  status: ('A' for Active; 'I' for Inactive)
REMARK    1  A    between atoms: C_1  and  C_2
REMARK    2  A    between atoms: C_5  and  N_11
REMARK    3  A    between atoms: C_7  and  N_8
REMARK    4  A    between atoms: N_11  and  C_12
REMARK    5  A    between atoms: C_12  and  N_14
REMARK    6  A    between atoms: C_15  and  C_17
REMARK                            x       y       z     vdW  Elec       q    Type
REMARK                         _______ _______ _______ _____ _____    ______ ____
ROOT
ATOM      1  C   UNL     1      -3.644  -1.073   0.705  0.00  0.00    +0.141 C 
ATOM      2  S   UNL     1      -3.432  -2.664   1.302  0.00  0.00    -0.018 S 
ENDROOT
BRANCH   1   3
ATOM      3  N   UNL     1      -2.635  -0.183   0.785  0.00  0.00    -0.263 N 
ATOM      4  C   UNL     1      -1.459  -0.545   1.336  0.00  0.00    +0.258 C 
ATOM      5  O   UNL     1      -1.309  -1.676   1.760  0.00  0.00    -0.269 OA
ATOM      6  H   UNL     1      -2.755   0.718   0.447  0.00  0.00    +0.157 HD
BRANCH   4   7
ATOM      7  C   UNL     1      -0.361   0.423   1.424  0.00  0.00    +0.094 A 
ATOM      8  C   UNL     1       0.886   0.247   1.940  0.00  0.00    +0.068 A 
ATOM      9  C   UNL     1       1.806   1.313   1.931  0.00  0.00    +0.008 A 
ATOM     10  C   UNL     1       3.139   1.327   2.417  0.00  0.00    +0.010 A 
ATOM     11  C   UNL     1       3.898   2.450   2.330  0.00  0.00    +0.001 A 
ATOM     12  C   UNL     1       3.405   3.620   1.766  0.00  0.00    +0.001 A 
ATOM     13  C   UNL     1       2.114   3.650   1.280  0.00  0.00    +0.016 A 
ATOM     14  C   UNL     1       1.331   2.518   1.362  0.00  0.00    +0.021 A 
ATOM     15  S   UNL     1      -0.331   2.122   0.879  0.00  0.00    -0.082 S 
ATOM     16 CL   UNL     1       1.342  -1.288   2.610  0.00  0.00    -0.082 Cl
ENDBRANCH   4   7
ENDBRANCH   1   3
BRANCH   1  17
ATOM     17  N   UNL     1      -4.820  -0.711   0.154  0.00  0.00    -0.297 N 
ATOM     18  H   UNL     1      -4.959   0.205  -0.134  0.00  0.00    +0.154 HD
BRANCH  17  23
ATOM     19  C   UNL     1      -8.954  -4.543  -0.478  0.00  0.00    +0.046 C 
ATOM     20  C   UNL     1      -7.856  -3.524  -0.310  0.00  0.00    -0.020 A 
ATOM     21  C   UNL     1      -7.541  -2.671  -1.352  0.00  0.00    +0.007 A 
ATOM     22  C   UNL     1      -6.539  -1.734  -1.199  0.00  0.00    +0.023 A 
ATOM     23  C   UNL     1      -5.840  -1.655  -0.002  0.00  0.00    +0.035 A 
ATOM     24  C   UNL     1      -6.159  -2.513   1.043  0.00  0.00    +0.056 A 
ATOM     25  C   UNL     1      -7.167  -3.445   0.886  0.00  0.00    +0.131 A 
BRANCH  25  26
ATOM     26  N   UNL     1      -7.508  -4.359   1.998  0.00  0.00    +0.057 N 
ATOM     27  O   UNL     1      -6.905  -4.285   3.054  0.00  0.00    -0.126 OA
ATOM     28  O   UNL     1      -8.391  -5.186   1.858  0.00  0.00    -0.126 OA
ENDBRANCH  25  26
ENDBRANCH  17  23
ENDBRANCH   1  17
TORSDOF 5
