REMARK  Name = ZINC48086662
REMARK  8 active torsions:
REMARK  status: ('A' for Active; 'I' for Inactive)
REMARK    1  A    between atoms: C_1  and  C_2
REMARK    2  A    between atoms: C_2  and  C_3
REMARK    3  A    between atoms: C_3  and  N_4
REMARK    4  A    between atoms: C_5  and  C_7
REMARK    5  A    between atoms: C_7  and  C_9
REMARK    6  A    between atoms: C_7  and  N_10
REMARK    7  A    between atoms: N_13  and  C_14
REMARK    8  A    between atoms: C_14  and  C_15
REMARK                            x       y       z     vdW  Elec       q    Type
REMARK                         _______ _______ _______ _____ _____    ______ ____
ROOT
ATOM      1  N   UNL     1      -3.925  -4.702   0.014  0.00  0.00    -0.288 N 
ATOM      2  C   UNL     1      -4.187  -5.930   0.503  0.00  0.00    +0.300 C 
ATOM      3  O   UNL     1      -3.282  -6.618   0.936  0.00  0.00    -0.253 OA
ATOM      4  N   UNL     1      -5.451  -6.397   0.513  0.00  0.00    -0.295 N 
ATOM      5  H   UNL     1      -4.647  -4.154  -0.331  0.00  0.00    +0.151 HD
ATOM      6  H   UNL     1      -6.173  -5.849   0.168  0.00  0.00    +0.151 HD
ENDROOT
BRANCH   1   7
ATOM      7  C   UNL     1      -2.551  -4.195   0.004  0.00  0.00    +0.157 C 
ATOM      8  C   UNL     1      -1.835  -4.688  -1.255  0.00  0.00    +0.038 C 
BRANCH   7  10
ATOM      9  N   UNL     1      -1.413  -1.998   0.005  0.00  0.00    -0.314 N 
ATOM     10  C   UNL     1      -2.571  -2.688   0.012  0.00  0.00    +0.233 C 
ATOM     11  O   UNL     1      -3.630  -2.096   0.025  0.00  0.00    -0.274 OA
ATOM     12  H   UNL     1      -0.567  -2.472  -0.006  0.00  0.00    +0.149 HD
BRANCH   9  13
ATOM     13  C   UNL     1      -1.433  -0.534   0.013  0.00  0.00    +0.104 C 
BRANCH  13  15
ATOM     14  C   UNL     1      -0.019   1.526   0.010  0.00  0.00    +0.005 C 
ATOM     15  C   UNL     1       0.002  -0.004   0.002  0.00  0.00    +0.015 C 
ENDBRANCH  13  15
ENDBRANCH   9  13
ENDBRANCH   7  10
ENDBRANCH   1   7
BRANCH   4  16
ATOM     16  C   UNL     1      -5.735  -7.732   1.045  0.00  0.00    +0.148 C 
BRANCH  16  17
ATOM     17  C   UNL     1      -7.213  -8.010   0.941  0.00  0.00    +0.008 A 
ATOM     18  C   UNL     1      -7.904  -8.585  -0.073  0.00  0.00    +0.014 A 
ATOM     19  C   UNL     1      -9.272  -8.741   0.051  0.00  0.00    +0.023 A 
ATOM     20  C   UNL     1      -9.882  -8.314   1.185  0.00  0.00    +0.055 A 
ATOM     21  S   UNL     1      -8.506  -7.675   2.126  0.00  0.00    -0.085 S 
ATOM     22 BR   UNL     1     -11.713  -8.384   1.651  0.00  0.00    -0.043 Br
ENDBRANCH  16  17
ENDBRANCH   4  16
TORSDOF 6
