REMARK  Name = ZINC14548106
REMARK  4 active torsions:
REMARK  status: ('A' for Active; 'I' for Inactive)
REMARK    1  A    between atoms: C_1  and  N_62
REMARK    2  A    between atoms: C_7  and  C_9
REMARK    3  A    between atoms: C_16  and  C_25
REMARK    4  A    between atoms: C_34  and  O_35
REMARK                            x       y       z     vdW  Elec       q    Type
REMARK                         _______ _______ _______ _____ _____    ______ ____
ROOT
ATOM      1  C   UNL     1       5.589  -0.214  -1.951  0.00  0.00    +0.058 A 
ATOM      2  C   UNL     1       6.880   0.315  -1.979  0.00  0.00    +0.015 A 
ATOM      3  C   UNL     1       7.417   0.861  -0.835  0.00  0.00    +0.001 A 
ATOM      4  C   UNL     1       6.681   0.887   0.337  0.00  0.00    +0.006 A 
ATOM      5  C   UNL     1       5.396   0.368   0.385  0.00  0.00    -0.019 A 
ATOM      6  C   UNL     1       4.843  -0.188  -0.756  0.00  0.00    +0.044 A 
ATOM      7  N   UNL     1       3.567  -0.728  -0.774  0.00  0.00    -0.336 N 
ATOM      8  C   UNL     1       2.699  -0.137   0.244  0.00  0.00    +0.109 C 
ATOM      9  C   UNL     1       3.325  -0.338   1.627  0.00  0.00    +0.029 C 
ATOM     10  C   UNL     1       4.657   0.439   1.689  0.00  0.00    +0.049 C 
ATOM     11  C   UNL     1       4.241   1.861   1.988  0.00  0.00    -0.023 C 
ATOM     12  C   UNL     1       3.043   1.887   2.515  0.00  0.00    -0.030 C 
ATOM     13  C   UNL     1       2.491   0.482   2.651  0.00  0.00    +0.033 C 
ATOM     14  H   UNL     1       3.598  -1.733  -0.683  0.00  0.00    +0.147 HD
ENDROOT
BRANCH   1  21
ATOM     15  C   UNL     1       6.217  -5.999  -4.150  0.00  0.00    -0.096 C 
ATOM     16  C   UNL     1       4.889  -4.032  -4.629  0.00  0.00    -0.060 C 
ATOM     17  C   UNL     1       4.975  -2.529  -4.912  0.00  0.00    +0.089 C 
ATOM     18  N   UNL     1       5.591  -1.869  -3.751  0.00  0.00    -0.301 N 
ATOM     19  C   UNL     1       6.864  -2.400  -3.243  0.00  0.00    +0.089 C 
ATOM     20  C   UNL     1       6.701  -3.913  -3.022  0.00  0.00    -0.060 C 
ATOM     21  C   UNL     1       5.006  -0.802  -3.171  0.00  0.00    +0.248 C 
ATOM     22  O   UNL     1       3.998  -0.323  -3.654  0.00  0.00    -0.270 OA
ATOM     23  N   UNL     1       6.239  -4.528  -4.285  0.00  0.00    +0.380 N 
ATOM     24  H   UNL     1       6.890  -4.272  -5.037  0.00  0.00    -0.082 HD
ENDBRANCH   1  21
BRANCH   8  25
ATOM     25  C   UNL     1       2.540   1.337  -0.025  0.00  0.00    +0.022 A 
ATOM     26  C   UNL     1       1.455   2.042   0.520  0.00  0.00    -0.009 A 
ATOM     27  C   UNL     1       0.497   1.399   1.324  0.00  0.00    +0.009 A 
ATOM     28  C   UNL     1      -0.545   2.112   1.831  0.00  0.00    +0.001 A 
ATOM     29  C   UNL     1      -0.673   3.476   1.576  0.00  0.00    +0.001 A 
ATOM     30  C   UNL     1       0.235   4.132   0.803  0.00  0.00    +0.008 A 
ATOM     31  C   UNL     1       1.322   3.429   0.256  0.00  0.00    -0.017 A 
ATOM     32  C   UNL     1       2.278   4.074  -0.547  0.00  0.00    +0.012 A 
ATOM     33  C   UNL     1       3.317   3.363  -1.061  0.00  0.00    +0.046 A 
ATOM     34  C   UNL     1       3.451   1.995  -0.802  0.00  0.00    +0.122 A 
BRANCH  34  35
ATOM     35  O   UNL     1       4.500   1.312  -1.329  0.00  0.00    -0.506 OA
ATOM     36  H   UNL     1       4.426   1.150  -2.280  0.00  0.00    +0.292 HD
ENDBRANCH  34  35
ENDBRANCH   8  25
TORSDOF 3
