REMARK  Name = ZINC11566464
REMARK  7 active torsions:
REMARK  status: ('A' for Active; 'I' for Inactive)
REMARK    1  A    between atoms: C_1  and  C_2
REMARK    2  A    between atoms: C_7  and  S_8
REMARK    3  A    between atoms: S_8  and  N_11
REMARK    4  A    between atoms: N_11  and  C_12
REMARK    5  A    between atoms: C_12  and  C_13
REMARK    6  A    between atoms: C_12  and  C_14
REMARK    7  A    between atoms: C_12  and  C_15
REMARK                            x       y       z     vdW  Elec       q    Type
REMARK                         _______ _______ _______ _____ _____    ______ ____
ROOT
ATOM      1  C   UNL     1      -0.192   2.722   0.805  0.00  0.00    +0.046 C 
ATOM      2  C   UNL     1      -0.818   2.076   2.014  0.00  0.00    -0.023 A 
ATOM      3  C   UNL     1      -1.520   2.845   2.923  0.00  0.00    +0.026 A 
ATOM      4  C   UNL     1      -2.093   2.252   4.033  0.00  0.00    +0.060 A 
ATOM      5  C   UNL     1      -1.964   0.888   4.233  0.00  0.00    +0.061 A 
ATOM      6  C   UNL     1      -1.266   0.119   3.320  0.00  0.00    +0.050 A 
ATOM      7  C   UNL     1      -0.689   0.714   2.213  0.00  0.00    +0.110 A 
ATOM      8 CL   UNL     1      -2.684   0.142   5.625  0.00  0.00    -0.082 Cl
ATOM      9 CL   UNL     1      -2.975   3.218   5.175  0.00  0.00    -0.082 Cl
ENDROOT
BRANCH   7  10
ATOM     10  S   UNL     1       0.206  -0.265   1.053  0.00  0.00    +0.059 S 
ATOM     11  O   UNL     1       0.081  -1.615   1.480  0.00  0.00    -0.153 OA
ATOM     12  O   UNL     1       1.467   0.365   0.877  0.00  0.00    -0.153 OA
BRANCH  10  13
ATOM     13  N   UNL     1      -0.586  -0.152  -0.397  0.00  0.00    -0.185 NA
ATOM     14  H   UNL     1      -0.160   0.288  -1.149  0.00  0.00    +0.149 HD
BRANCH  13  15
ATOM     15  C   UNL     1      -1.931  -0.716  -0.543  0.00  0.00    +0.032 C 
ATOM     16  C   UNL     1      -2.842  -0.150   0.548  0.00  0.00    +0.029 C 
ATOM     17  C   UNL     1      -2.491  -0.347  -1.918  0.00  0.00    +0.029 C 
ATOM     18  C   UNL     1      -1.862  -2.238  -0.412  0.00  0.00    +0.029 C 
ENDBRANCH  13  15
ENDBRANCH  10  13
ENDBRANCH   7  10
TORSDOF 3
