REMARK  Name = ZINC07830165
REMARK  9 active torsions:
REMARK  status: ('A' for Active; 'I' for Inactive)
REMARK    1  A    between atoms: C_1  and  C_2
REMARK    2  A    between atoms: C_5  and  C_8
REMARK    3  A    between atoms: C_11  and  S_14
REMARK    4  A    between atoms: N_12  and  N_13
REMARK    5  A    between atoms: S_14  and  C_15
REMARK    6  A    between atoms: C_15  and  C_16
REMARK    7  A    between atoms: N_18  and  C_19
REMARK    8  A    between atoms: C_19  and  C_21
REMARK    9  A    between atoms: C_19  and  C_22
REMARK                            x       y       z     vdW  Elec       q    Type
REMARK                         _______ _______ _______ _____ _____    ______ ____
ROOT
ATOM      1  C   UNL     1       2.073   1.838   0.634  0.00  0.00    +0.173 C 
ENDROOT
BRANCH   1   2
ATOM      2  C   UNL     1       2.452   3.275   0.881  0.00  0.00    +0.224 C 
ATOM      3  O   UNL     1       1.594   4.131   0.918  0.00  0.00    -0.275 OA
ATOM      4  N   UNL     1       3.745   3.610   1.060  0.00  0.00    -0.308 N 
ATOM      5  H   UNL     1       4.432   2.925   1.031  0.00  0.00    +0.149 HD
BRANCH   4   6
ATOM      6  C   UNL     1       4.114   5.007   1.300  0.00  0.00    +0.100 C 
ATOM      7  C   UNL     1       4.265   5.732  -0.039  0.00  0.00    +0.033 C 
BRANCH   6   8
ATOM      8  C   UNL     1       5.420   5.061   2.050  0.00  0.00    -0.027 A 
ATOM      9  C   UNL     1       6.440   4.183   1.730  0.00  0.00    +0.006 A 
ATOM     10  C   UNL     1       7.632   4.236   2.423  0.00  0.00    +0.004 A 
ATOM     11  C   UNL     1       7.817   5.165   3.439  0.00  0.00    -0.044 A 
ATOM     12  C   UNL     1       6.803   6.042   3.754  0.00  0.00    -0.044 A 
ATOM     13  C   UNL     1       5.605   5.989   3.053  0.00  0.00    +0.009 A 
ATOM     14  C   UNL     1       6.937   7.081   4.836  0.00  0.00    +0.035 C 
ATOM     15  C   UNL     1       8.094   6.735   5.772  0.00  0.00    +0.005 C 
ATOM     16  C   UNL     1       9.341   6.469   4.921  0.00  0.00    +0.005 C 
ATOM     17  C   UNL     1       9.137   5.159   4.163  0.00  0.00    +0.035 C 
ENDBRANCH   6   8
ENDBRANCH   4   6
ENDBRANCH   1   2
BRANCH   1  18
ATOM     18  S   UNL     1       0.278   1.713   0.434  0.00  0.00    -0.075 S 
BRANCH  18  22
ATOM     19  C   UNL     1      -0.676  -2.022  -0.203  0.00  0.00    +0.182 A 
ATOM     20  N   UNL     1       0.630  -2.075  -0.079  0.00  0.00    -0.127 NA
ATOM     21  N   UNL     1       1.099  -0.897   0.134  0.00  0.00    -0.121 NA
ATOM     22  C   UNL     1       0.120  -0.021   0.167  0.00  0.00    +0.209 A 
ATOM     23  N   UNL     1      -1.043  -0.704  -0.049  0.00  0.00    -0.224 N 
BRANCH  19  28
ATOM     24  C   UNL     1      -4.200  -6.459  -1.205  0.00  0.00    +0.044 C 
ATOM     25  C   UNL     1      -3.277  -5.297  -0.943  0.00  0.00    -0.050 A 
ATOM     26  C   UNL     1      -3.720  -4.004  -1.158  0.00  0.00    +0.004 A 
ATOM     27  C   UNL     1      -2.880  -2.935  -0.920  0.00  0.00    +0.012 A 
ATOM     28  C   UNL     1      -1.581  -3.162  -0.461  0.00  0.00    +0.021 A 
ATOM     29  C   UNL     1      -1.139  -4.469  -0.251  0.00  0.00    +0.012 A 
ATOM     30  C   UNL     1      -1.991  -5.528  -0.488  0.00  0.00    +0.004 A 
ENDBRANCH  19  28
BRANCH  23  31
ATOM     31  N   UNL     1      -2.306  -0.188  -0.102  0.00  0.00    -0.295 N 
ATOM     32  H   UNL     1      -2.581  -0.002  -1.055  0.00  0.00    +0.163 HD
ATOM     33  H   UNL     1      -2.967  -0.801   0.352  0.00  0.00    +0.163 HD
ENDBRANCH  23  31
ENDBRANCH  18  22
ENDBRANCH   1  18
TORSDOF 7
