REMARK  Name = ZINC00691793
REMARK  9 active torsions:
REMARK  status: ('A' for Active; 'I' for Inactive)
REMARK    1  A    between atoms: C_1  and  C_2
REMARK    2  A    between atoms: C_4  and  C_32
REMARK    3  A    between atoms: C_5  and  C_17
REMARK    4  A    between atoms: C_7  and  C_8
REMARK    5  A    between atoms: C_8  and  S_9
REMARK    6  A    between atoms: S_9  and  C_10
REMARK    7  A    between atoms: C_20  and  C_31
REMARK    8  A    between atoms: C_26  and  N_30
REMARK    9  A    between atoms: C_27  and  C_28
REMARK                            x       y       z     vdW  Elec       q    Type
REMARK                         _______ _______ _______ _____ _____    ______ ____
ROOT
ATOM      1  C   UNL     1      -2.198   5.920  -3.448  0.00  0.00    +0.044 C 
ATOM      2  C   UNL     1      -2.561   4.812  -2.493  0.00  0.00    -0.046 A 
ATOM      3  C   UNL     1      -2.412   3.492  -2.877  0.00  0.00    +0.007 A 
ATOM      4  C   UNL     1      -2.740   2.476  -2.000  0.00  0.00    -0.046 A 
ATOM      5  C   UNL     1      -3.229   2.779  -0.742  0.00  0.00    -0.031 A 
ATOM      6  C   UNL     1      -3.378   4.099  -0.359  0.00  0.00    +0.009 A 
ATOM      7  C   UNL     1      -3.044   5.115  -1.234  0.00  0.00    -0.034 A 
ATOM      8  C   UNL     1      -2.572   1.037  -2.416  0.00  0.00    +0.044 C 
ENDROOT
BRANCH   5   9
ATOM      9  C   UNL     1      -3.592   1.671   0.212  0.00  0.00    +0.102 C 
ATOM     10  C   UNL     1      -2.791   1.814   1.481  0.00  0.00    +0.049 A 
ATOM     11  C   UNL     1      -1.488   1.581   1.701  0.00  0.00    +0.041 A 
ATOM     12  N   UNL     1      -1.239   1.849   3.004  0.00  0.00    -0.278 N 
ATOM     13  H   UNL     1      -0.352   1.770   3.460  0.00  0.00    +0.189 HD
ATOM     14  N   UNL     1      -2.441   2.256   3.604  0.00  0.00    -0.135 NA
ATOM     15  C   UNL     1      -3.374   2.233   2.697  0.00  0.00    +0.245 A 
ATOM     16  O   UNL     1      -4.695   2.540   2.795  0.00  0.00    -0.421 OA
ATOM     17  C   UNL     1      -5.495   2.175   1.774  0.00  0.00    +0.201 C 
ATOM     18  C   UNL     1      -5.055   1.764   0.566  0.00  0.00    +0.098 C 
ATOM     19  C   UNL     1      -0.483   1.113   0.681  0.00  0.00    +0.065 C 
BRANCH  17  20
ATOM     20  N   UNL     1      -6.852   2.222   1.977  0.00  0.00    -0.328 N 
ATOM     21  H   UNL     1      -7.205   2.512   2.833  0.00  0.00    +0.145 HD
ATOM     22  H   UNL     1      -7.458   1.966   1.264  0.00  0.00    +0.145 HD
ENDBRANCH  17  20
BRANCH  18  23
ATOM     23  C   UNL     1      -6.022   1.399  -0.425  0.00  0.00    +0.101 C 
ATOM     24  N   UNL     1      -6.789   1.110  -1.211  0.00  0.00    -0.191 NA
ENDBRANCH  18  23
ENDBRANCH   5   9
BRANCH   7  25
ATOM     25  C   UNL     1      -3.207   6.554  -0.816  0.00  0.00    +0.109 C 
BRANCH  25  26
ATOM     26  S   UNL     1      -1.675   7.134  -0.036  0.00  0.00    -0.121 S 
BRANCH  26  27
ATOM     27  C   UNL     1      -2.022   8.808   0.391  0.00  0.00    +0.008 A 
ATOM     28  C   UNL     1      -3.262   9.360   0.094  0.00  0.00    +0.016 A 
ATOM     29  C   UNL     1      -3.533  10.670   0.435  0.00  0.00    +0.016 A 
ATOM     30  C   UNL     1      -2.566  11.437   1.061  0.00  0.00    +0.018 A 
ATOM     31  C   UNL     1      -1.328  10.892   1.353  0.00  0.00    +0.016 A 
ATOM     32  C   UNL     1      -1.053   9.581   1.020  0.00  0.00    +0.016 A 
ATOM     33 BR   UNL     1      -2.938  13.234   1.519  0.00  0.00    -0.050 Br
ENDBRANCH  26  27
ENDBRANCH  25  26
ENDBRANCH   7  25
TORSDOF 6
