REMARK  Name = ZINC04067364
REMARK  12 active torsions:
REMARK  status: ('A' for Active; 'I' for Inactive)
REMARK    1  A    between atoms: C_1  and  C_2
REMARK    2  A    between atoms: C_2  and  O_3
REMARK    3  A    between atoms: O_3  and  C_4
REMARK    4  A    between atoms: C_6  and  C_12
REMARK    5  A    between atoms: C_9  and  O_10
REMARK    6  A    between atoms: C_17  and  C_21
REMARK    7  A    between atoms: C_17  and  C_22
REMARK    8  A    between atoms: C_24  and  C_32
REMARK    9  A    between atoms: C_25  and  C_26
REMARK   10  A    between atoms: C_26  and  O_28
REMARK   11  A    between atoms: O_28  and  C_29
REMARK   12  A    between atoms: C_29  and  C_30
REMARK                            x       y       z     vdW  Elec       q    Type
REMARK                         _______ _______ _______ _____ _____    ______ ____
ROOT
ATOM      1  C   UNL     1       3.948   0.202   2.885  0.00  0.00    +0.092 C 
ATOM      2  C   UNL     1       4.912   0.072   4.038  0.00  0.00    +0.024 C 
ATOM      3  C   UNL     1       6.133   0.643   3.983  0.00  0.00    +0.016 C 
ATOM      4  C   UNL     1       7.102   0.519   5.133  0.00  0.00    +0.058 C 
ATOM      5  C   UNL     1       6.871  -0.808   5.859  0.00  0.00    -0.023 C 
ATOM      6  C   UNL     1       5.419  -0.851   6.345  0.00  0.00    +0.086 C 
ATOM      7  C   UNL     1       4.503  -0.661   5.166  0.00  0.00    +0.162 C 
ATOM      8  O   UNL     1       3.391  -1.149   5.190  0.00  0.00    -0.292 OA
ATOM      9  C   UNL     1       7.126  -1.971   4.897  0.00  0.00    +0.011 C 
ATOM     10  C   UNL     1       7.821  -0.913   7.053  0.00  0.00    +0.011 C 
ATOM     11  N   UNL     1       6.519   1.353   2.878  0.00  0.00    -0.321 N 
ATOM     12  C   UNL     1       5.590   1.837   2.000  0.00  0.00    +0.016 C 
ATOM     13  C   UNL     1       4.347   1.325   1.974  0.00  0.00    +0.065 C 
ATOM     14  C   UNL     1       5.959   2.955   1.060  0.00  0.00    +0.061 C 
ATOM     15  H   UNL     1       7.587   1.540   2.689  0.00  0.00    +0.152 HD
ENDROOT
BRANCH   1  18
ATOM     16  C   UNL     1       2.748  -3.002   1.282  0.00  0.00    +0.163 A 
ATOM     17  C   UNL     1       2.765  -1.819   2.003  0.00  0.00    +0.054 A 
ATOM     18  C   UNL     1       3.933  -1.087   2.104  0.00  0.00    -0.030 A 
ATOM     19  C   UNL     1       5.090  -1.538   1.496  0.00  0.00    +0.023 A 
ATOM     20  C   UNL     1       5.081  -2.721   0.779  0.00  0.00    +0.063 A 
ATOM     21  C   UNL     1       3.911  -3.456   0.669  0.00  0.00    +0.173 A 
ATOM     22 BR   UNL     1       6.665  -3.335  -0.051  0.00  0.00    -0.046 Br
BRANCH  21  23
ATOM     23  O   UNL     1       3.901  -4.620  -0.035  0.00  0.00    -0.503 OA
ATOM     24  H   UNL     1       4.822  -4.978  -0.519  0.00  0.00    +0.292 HD
ENDBRANCH  21  23
BRANCH  16  25
ATOM     25  O   UNL     1       1.597  -3.720   1.177  0.00  0.00    -0.489 OA
BRANCH  25  27
ATOM     26  C   UNL     1      -0.746  -4.130   1.605  0.00  0.00    +0.048 C 
ATOM     27  C   UNL     1       0.442  -3.192   1.832  0.00  0.00    +0.226 C 
ENDBRANCH  25  27
ENDBRANCH  16  25
ENDBRANCH   1  18
BRANCH  13  28
ATOM     28  C   UNL     1       3.399   1.851   1.065  0.00  0.00    +0.338 C 
ATOM     29  O   UNL     1       3.677   2.826   0.392  0.00  0.00    -0.245 OA
BRANCH  28  30
ATOM     30  O   UNL     1       2.186   1.273   0.945  0.00  0.00    -0.457 OA
BRANCH  30  31
ATOM     31  C   UNL     1       1.278   1.857   0.009  0.00  0.00    +0.259 C 
BRANCH  31  32
ATOM     32  C   UNL     1      -0.014   1.082   0.012  0.00  0.00    +0.006 C 
ATOM     33  C   UNL     1      -1.159   1.718   0.025  0.00  0.00    +0.007 C 
ENDBRANCH  31  32
ENDBRANCH  30  31
ENDBRANCH  28  30
ENDBRANCH  13  28
TORSDOF 8
