REMARK  Name = ZINC34699800
REMARK  3 active torsions:
REMARK  status: ('A' for Active; 'I' for Inactive)
REMARK    1  A    between atoms: C_1  and  C_2
REMARK    2  A    between atoms: C_11  and  C_19
REMARK    3  A    between atoms: N_15  and  C_16
REMARK                            x       y       z     vdW  Elec       q    Type
REMARK                         _______ _______ _______ _____ _____    ______ ____
ROOT
ATOM      1  C   UNL     1      -0.264   1.316   0.185  0.00  0.00    +0.044 C 
ATOM      2  C   UNL     1      -0.356  -0.174   0.390  0.00  0.00    -0.050 A 
ATOM      3  C   UNL     1      -0.537  -1.009  -0.703  0.00  0.00    +0.005 A 
ATOM      4  C   UNL     1      -0.624  -2.374  -0.540  0.00  0.00    +0.029 A 
ATOM      5  C   UNL     1      -0.528  -2.928   0.738  0.00  0.00    +0.078 A 
ATOM      6  C   UNL     1      -0.343  -2.073   1.849  0.00  0.00    +0.045 A 
ATOM      7  C   UNL     1      -0.254  -0.697   1.661  0.00  0.00    +0.017 A 
ATOM      8  C   UNL     1      -0.247  -2.687   3.178  0.00  0.00    +0.173 A 
ATOM      9  N   UNL     1      -0.082  -2.239   4.399  0.00  0.00    -0.129 NA
ATOM     10  N   UNL     1      -0.069  -3.227   5.224  0.00  0.00    -0.133 NA
ATOM     11  C   UNL     1      -0.224  -4.356   4.583  0.00  0.00    +0.143 A 
ATOM     12  N   UNL     1      -0.343  -4.059   3.259  0.00  0.00    -0.250 N 
ATOM     13  C   UNL     1      -0.521  -4.803   2.123  0.00  0.00    +0.203 A 
ATOM     14  N   UNL     1      -0.610  -4.267   0.934  0.00  0.00    -0.215 NA
ATOM     15  N   UNL     1      -0.613  -6.169   2.239  0.00  0.00    -0.312 N 
ATOM     16  H   UNL     1      -0.461  -6.594   3.098  0.00  0.00    +0.149 HD
ENDROOT
BRANCH  11  17
ATOM     17  C   UNL     1      -0.263  -5.732   5.195  0.00  0.00    +0.058 C 
ATOM     18  C   UNL     1      -1.585  -5.920   5.942  0.00  0.00    +0.011 C 
ATOM     19  C   UNL     1      -1.624  -7.318   6.564  0.00  0.00    +0.001 C 
ATOM     20  C   UNL     1      -0.458  -7.474   7.542  0.00  0.00    +0.000 C 
ATOM     21  C   UNL     1       0.864  -7.286   6.795  0.00  0.00    +0.001 C 
ATOM     22  C   UNL     1       0.903  -5.888   6.173  0.00  0.00    +0.011 C 
ENDBRANCH  11  17
BRANCH  15  23
ATOM     23  C   UNL     1      -0.940  -6.983   1.066  0.00  0.00    +0.073 C 
ATOM     24  C   UNL     1      -1.958  -8.110   1.250  0.00  0.00    +0.024 C 
ATOM     25  C   UNL     1      -0.475  -8.441   1.066  0.00  0.00    +0.024 C 
ENDBRANCH  15  23
TORSDOF 2
