REMARK  Name = ZINC39710310
REMARK  12 active torsions:
REMARK  status: ('A' for Active; 'I' for Inactive)
REMARK    1  A    between atoms: C_1  and  C_2
REMARK    2  A    between atoms: C_9  and  C_14
REMARK    3  A    between atoms: C_14  and  C_16
REMARK    4  A    between atoms: C_14  and  N_26
REMARK    5  A    between atoms: N_21  and  C_22
REMARK    6  A    between atoms: C_22  and  C_23
REMARK    7  A    between atoms: C_22  and  C_24
REMARK    8  A    between atoms: C_22  and  C_25
REMARK    9  A    between atoms: N_26  and  C_27
REMARK   10  A    between atoms: N_26  and  C_34
REMARK   11  A    between atoms: C_27  and  C_28
REMARK   12  A    between atoms: C_34  and  C_35
REMARK                            x       y       z     vdW  Elec       q    Type
REMARK                         _______ _______ _______ _____ _____    ______ ____
ROOT
ATOM      1  C   UNL     1      -0.618  -5.865   2.798  0.00  0.00    -0.009 C 
ENDROOT
BRANCH   1  10
ATOM      2  C   UNL     1       4.065  -1.208   0.080  0.00  0.00    +0.044 C 
ATOM      3  C   UNL     1       3.334  -2.526   0.099  0.00  0.00    -0.050 A 
ATOM      4  C   UNL     1       3.220  -3.261  -1.081  0.00  0.00    +0.005 A 
ATOM      5  C   UNL     1       2.577  -4.456  -1.140  0.00  0.00    +0.024 A 
ATOM      6  C   UNL     1       1.987  -5.009   0.012  0.00  0.00    +0.040 A 
ATOM      7  N   UNL     1       1.359  -6.182  -0.058  0.00  0.00    -0.285 N 
ATOM      8  C   UNL     1       0.784  -6.757   0.985  0.00  0.00    +0.223 C 
ATOM      9  O   UNL     1       0.224  -7.829   0.859  0.00  0.00    -0.275 OA
ATOM     10  C   UNL     1       0.825  -6.075   2.334  0.00  0.00    +0.088 C 
ATOM     11  C   UNL     1       1.539  -4.741   2.419  0.00  0.00    -0.006 C 
ATOM     12  C   UNL     1       2.092  -4.253   1.272  0.00  0.00    -0.007 A 
ATOM     13  C   UNL     1       2.804  -2.975   1.266  0.00  0.00    +0.012 A 
ATOM     14  H   UNL     1       1.321  -6.635  -0.915  0.00  0.00    +0.155 HD
ENDBRANCH   1  10
BRANCH   1  15
ATOM     15  C   UNL     1      -1.368  -5.021   1.765  0.00  0.00    +0.205 C 
ATOM     16  N   UNL     1      -1.391  -5.704   0.464  0.00  0.00    -0.152 NA
ATOM     17  N   UNL     1      -0.813  -5.000  -0.366  0.00  0.00    -0.070 NA
ATOM     18  N   UNL     1      -0.331  -3.808   0.175  0.00  0.00    -0.179 N 
ATOM     19  N   UNL     1      -0.646  -3.757   1.510  0.00  0.00    -0.183 NA
ATOM     20  H   UNL     1       0.151  -3.124  -0.315  0.00  0.00    +0.191 HD
BRANCH  19  21
ATOM     21  C   UNL     1      -1.496  -2.596   1.808  0.00  0.00    +0.035 C 
ATOM     22  C   UNL     1      -1.990  -2.683   3.253  0.00  0.00    +0.029 C 
ATOM     23  C   UNL     1      -0.688  -1.311   1.620  0.00  0.00    +0.029 C 
ATOM     24  C   UNL     1      -2.697  -2.587   0.859  0.00  0.00    +0.029 C 
ENDBRANCH  19  21
ENDBRANCH   1  15
BRANCH   1  25
ATOM     25  N   UNL     1      -1.281  -7.168   2.940  0.00  0.00    +0.390 N 
ATOM     26  H   UNL     1      -1.338  -7.617   2.038  0.00  0.00    -0.080 HD
BRANCH  25  27
ATOM     27  C   UNL     1      -2.635  -6.973   3.475  0.00  0.00    -0.040 C 
BRANCH  27  28
ATOM     28  C   UNL     1      -3.587  -6.687   2.342  0.00  0.00    -0.046 A 
ATOM     29  C   UNL     1      -4.268  -5.481   2.284  0.00  0.00    +0.005 A 
ATOM     30  C   UNL     1      -5.133  -5.262   1.223  0.00  0.00    +0.020 A 
ATOM     31  C   UNL     1      -5.287  -6.247   0.265  0.00  0.00    +0.111 A 
ATOM     32  N   UNL     1      -4.623  -7.382   0.353  0.00  0.00    -0.263 NA
ATOM     33  C   UNL     1      -3.787  -7.622   1.344  0.00  0.00    +0.112 A 
ENDBRANCH  27  28
ENDBRANCH  25  27
BRANCH  25  34
ATOM     34  C   UNL     1      -0.509  -8.013   3.860  0.00  0.00    -0.040 C 
BRANCH  34  35
ATOM     35  C   UNL     1      -1.245  -9.307   4.093  0.00  0.00    -0.046 A 
ATOM     36  C   UNL     1      -1.998  -9.477   5.240  0.00  0.00    +0.003 A 
ATOM     37  C   UNL     1      -2.673 -10.664   5.454  0.00  0.00    +0.000 A 
ATOM     38  C   UNL     1      -2.598 -11.681   4.521  0.00  0.00    +0.001 A 
ATOM     39  C   UNL     1      -1.846 -11.512   3.373  0.00  0.00    +0.020 A 
ATOM     40  C   UNL     1      -1.174 -10.322   3.156  0.00  0.00    +0.042 A 
ATOM     41 CL   UNL     1      -0.235 -10.106   1.712  0.00  0.00    -0.083 Cl
ENDBRANCH  34  35
ENDBRANCH  25  34
ENDBRANCH   1  25
TORSDOF 8
