REMARK  Name = ZINC28696593
REMARK  8 active torsions:
REMARK  status: ('A' for Active; 'I' for Inactive)
REMARK    1  A    between atoms: C_1  and  C_2
REMARK    2  A    between atoms: C_2  and  N_3
REMARK    3  A    between atoms: C_12  and  S_13
REMARK    4  A    between atoms: S_13  and  C_14
REMARK    5  A    between atoms: C_14  and  C_16
REMARK    6  A    between atoms: C_14  and  C_17
REMARK    7  A    between atoms: N_19  and  C_20
REMARK    8  A    between atoms: C_30  and  C_34
REMARK                            x       y       z     vdW  Elec       q    Type
REMARK                         _______ _______ _______ _____ _____    ______ ____
ROOT
ATOM      1  N   UNL     1       2.206  -4.615  -1.012  0.00  0.00    -0.288 N 
ATOM      2  C   UNL     1       3.391  -5.226  -1.199  0.00  0.00    +0.263 A 
ATOM      3  O   UNL     1       3.436  -6.399  -1.528  0.00  0.00    -0.267 OA
ATOM      4  C   UNL     1       4.596  -4.481  -1.004  0.00  0.00    +0.076 A 
ATOM      5  C   UNL     1       5.979  -4.939  -1.148  0.00  0.00    -0.023 A 
ATOM      6  C   UNL     1       6.952  -4.037  -0.906  0.00  0.00    -0.004 A 
ATOM      7  S   UNL     1       6.098  -2.544  -0.479  0.00  0.00    -0.073 S 
ATOM      8  C   UNL     1       4.431  -3.138  -0.627  0.00  0.00    +0.117 A 
ATOM      9  N   UNL     1       3.232  -2.592  -0.462  0.00  0.00    -0.216 NA
ATOM     10  C   UNL     1       2.137  -3.301  -0.649  0.00  0.00    +0.173 A 
ATOM     11  C   UNL     1       8.432  -4.255  -0.984  0.00  0.00    +0.046 C 
ATOM     12  C   UNL     1       8.698  -5.766  -1.022  0.00  0.00    -0.009 C 
ATOM     13  C   UNL     1       7.768  -6.403  -2.059  0.00  0.00    +0.008 C 
ATOM     14  C   UNL     1       6.326  -6.370  -1.552  0.00  0.00    +0.037 C 
ATOM     15  C   UNL     1      10.156  -6.021  -1.411  0.00  0.00    +0.008 C 
ENDROOT
BRANCH   1  17
ATOM     16  C   UNL     1       0.519  -5.255  -2.663  0.00  0.00    +0.027 C 
ATOM     17  C   UNL     1       0.968  -5.373  -1.205  0.00  0.00    +0.124 C 
ENDBRANCH   1  17
BRANCH  10  18
ATOM     18  S   UNL     1       0.562  -2.545  -0.421  0.00  0.00    -0.075 S 
BRANCH  18  19
ATOM     19  C   UNL     1       1.081  -0.873   0.042  0.00  0.00    +0.137 C 
ATOM     20  C   UNL     1       1.824  -0.921   1.378  0.00  0.00    +0.029 C 
BRANCH  19  21
ATOM     21  C   UNL     1      -0.133   0.011   0.173  0.00  0.00    +0.230 C 
ATOM     22  O   UNL     1      -1.214  -0.477   0.427  0.00  0.00    -0.274 OA
ATOM     23  N   UNL     1      -0.016   1.344   0.009  0.00  0.00    -0.284 N 
ATOM     24  H   UNL     1       0.977   1.796  -0.132  0.00  0.00    +0.155 HD
BRANCH  23  25
ATOM     25  C   UNL     1      -1.160   2.153   0.019  0.00  0.00    +0.037 A 
ATOM     26  C   UNL     1      -2.358   1.667  -0.487  0.00  0.00    +0.027 A 
ATOM     27  C   UNL     1      -3.488   2.462  -0.473  0.00  0.00    +0.051 A 
ATOM     28  C   UNL     1      -3.426   3.750   0.035  0.00  0.00    +0.166 A 
ATOM     29  C   UNL     1      -2.224   4.242   0.538  0.00  0.00    +0.168 A 
ATOM     30  C   UNL     1      -1.093   3.442   0.528  0.00  0.00    +0.072 A 
ATOM     31  O   UNL     1      -2.424   5.520   0.973  0.00  0.00    -0.453 OA
ATOM     32  C   UNL     1      -3.654   5.948   0.360  0.00  0.00    +0.466 C 
ATOM     33  O   UNL     1      -4.379   4.721   0.156  0.00  0.00    -0.453 OA
ENDBRANCH  23  25
ENDBRANCH  19  21
ENDBRANCH  18  19
ENDBRANCH  10  18
TORSDOF 5
