REMARK  Name = ZINC12468387
REMARK  6 active torsions:
REMARK  status: ('A' for Active; 'I' for Inactive)
REMARK    1  A    between atoms: C_1  and  C_2
REMARK    2  A    between atoms: C_6  and  C_8
REMARK    3  A    between atoms: C_8  and  N_9
REMARK    4  A    between atoms: C_11  and  C_18
REMARK    5  A    between atoms: N_25  and  C_28
REMARK    6  A    between atoms: C_33  and  C_34
REMARK                            x       y       z     vdW  Elec       q    Type
REMARK                         _______ _______ _______ _____ _____    ______ ____
ROOT
ATOM      1  C   UNL     1       1.478   7.082  -4.337  0.00  0.00    +0.028 C 
ATOM      2  C   UNL     1       2.610   7.822  -4.024  0.00  0.00    +0.100 C 
ATOM      3  C   UNL     1       3.010   8.060  -2.626  0.00  0.00    +0.255 C 
ATOM      4  O   UNL     1       2.355   7.613  -1.704  0.00  0.00    -0.270 OA
ATOM      5  N   UNL     1       4.125   8.784  -2.397  0.00  0.00    -0.263 N 
ATOM      6  C   UNL     1       4.853   9.288  -3.404  0.00  0.00    +0.150 C 
ATOM      7  S   UNL     1       6.249  10.200  -3.018  0.00  0.00    -0.018 S 
ATOM      8  N   UNL     1       4.544   9.115  -4.697  0.00  0.00    -0.217 N 
ATOM      9  C   UNL     1       3.460   8.408  -5.075  0.00  0.00    +0.262 C 
ATOM     10  O   UNL     1       3.190   8.259  -6.252  0.00  0.00    -0.269 OA
ATOM     11  H   UNL     1       4.405   8.946  -1.483  0.00  0.00    +0.157 HD
ENDROOT
BRANCH   1  14
ATOM     12  N   UNL     1       0.386   5.077  -1.559  0.00  0.00    -0.342 N 
ATOM     13  C   UNL     1       1.358   5.586  -2.337  0.00  0.00    +0.095 A 
ATOM     14  C   UNL     1       0.795   6.375  -3.326  0.00  0.00    +0.001 A 
ATOM     15  C   UNL     1      -0.665   6.326  -3.107  0.00  0.00    +0.007 A 
ATOM     16  C   UNL     1      -0.857   5.495  -1.992  0.00  0.00    +0.050 A 
ATOM     17  C   UNL     1      -2.150   5.250  -1.542  0.00  0.00    +0.026 A 
ATOM     18  C   UNL     1      -3.225   5.818  -2.191  0.00  0.00    +0.002 A 
ATOM     19  C   UNL     1      -3.032   6.635  -3.294  0.00  0.00    +0.001 A 
ATOM     20  C   UNL     1      -1.758   6.897  -3.751  0.00  0.00    +0.010 A 
BRANCH  12  21
ATOM     21  C   UNL     1       0.614   4.195  -0.412  0.00  0.00    +0.157 C 
BRANCH  21  27
ATOM     22  C   UNL     1       2.675   0.002  -2.205  0.00  0.00    +0.044 C 
ATOM     23  C   UNL     1       1.467   0.752  -1.707  0.00  0.00    -0.050 A 
ATOM     24  C   UNL     1       0.237   0.124  -1.650  0.00  0.00    +0.003 A 
ATOM     25  C   UNL     1      -0.872   0.814  -1.198  0.00  0.00    +0.001 A 
ATOM     26  C   UNL     1      -0.749   2.131  -0.793  0.00  0.00    +0.005 A 
ATOM     27  C   UNL     1       0.481   2.759  -0.849  0.00  0.00    -0.028 A 
ATOM     28  C   UNL     1       1.589   2.070  -1.306  0.00  0.00    +0.008 A 
ENDBRANCH  21  27
ENDBRANCH  12  21
ENDBRANCH   1  14
BRANCH   8  29
ATOM     29  C   UNL     1       5.368   9.682  -5.678  0.00  0.00    +0.048 A 
ATOM     30  C   UNL     1       5.111  10.964  -6.146  0.00  0.00    +0.024 A 
ATOM     31  C   UNL     1       5.928  11.523  -7.110  0.00  0.00    +0.003 A 
ATOM     32  C   UNL     1       6.994  10.804  -7.617  0.00  0.00    +0.020 A 
ATOM     33  C   UNL     1       7.249   9.524  -7.158  0.00  0.00    +0.046 A 
ATOM     34  C   UNL     1       6.438   8.961  -6.189  0.00  0.00    -0.010 A 
ATOM     35  C   UNL     1       6.716   7.567  -5.689  0.00  0.00    +0.047 C 
ATOM     36 CL   UNL     1       8.588   8.623  -7.798  0.00  0.00    -0.083 Cl
ENDBRANCH   8  29
TORSDOF 4
