REMARK  Name = ZINC07813477
REMARK  5 active torsions:
REMARK  status: ('A' for Active; 'I' for Inactive)
REMARK    1  A    between atoms: C_1  and  C_2
REMARK    2  A    between atoms: C_7  and  N_8
REMARK    3  A    between atoms: C_11  and  C_16
REMARK    4  A    between atoms: C_16  and  O_17
REMARK    5  A    between atoms: O_17  and  C_18
REMARK                            x       y       z     vdW  Elec       q    Type
REMARK                         _______ _______ _______ _____ _____    ______ ____
ROOT
ATOM      1  N   UNL     1       7.010   5.479   2.310  0.00  0.00    -0.283 N 
ATOM      2  C   UNL     1       6.384   5.176   1.117  0.00  0.00    +0.224 A 
ATOM      3  N   UNL     1       5.198   4.571   1.122  0.00  0.00    -0.196 NA
ATOM      4  C   UNL     1       4.601   4.276  -0.019  0.00  0.00    +0.173 A 
ATOM      5  N   UNL     1       5.172   4.589  -1.169  0.00  0.00    -0.196 NA
ATOM      6  C   UNL     1       6.355   5.198  -1.182  0.00  0.00    +0.217 A 
ATOM      7  N   UNL     1       6.962   5.492  -0.037  0.00  0.00    -0.181 NA
ATOM      8  N   UNL     1       6.952   5.524  -2.383  0.00  0.00    -0.327 N 
ATOM      9  H   UNL     1       6.552   5.326   3.151  0.00  0.00    +0.155 HD
ATOM     10  H   UNL     1       6.509   5.309  -3.218  0.00  0.00    +0.145 HD
ATOM     11  H   UNL     1       7.814   5.968  -2.391  0.00  0.00    +0.145 HD
ENDROOT
BRANCH   1  18
ATOM     12  C   UNL     1       7.836   7.032   4.547  0.00  0.00    +0.045 C 
ATOM     13  C   UNL     1       8.750   6.770   3.377  0.00  0.00    -0.029 A 
ATOM     14  C   UNL     1      10.030   7.289   3.370  0.00  0.00    +0.005 A 
ATOM     15  C   UNL     1      10.869   7.048   2.298  0.00  0.00    +0.000 A 
ATOM     16  C   UNL     1      10.430   6.287   1.229  0.00  0.00    +0.002 A 
ATOM     17  C   UNL     1       9.153   5.762   1.232  0.00  0.00    +0.023 A 
ATOM     18  C   UNL     1       8.306   6.006   2.306  0.00  0.00    +0.036 A 
ENDBRANCH   1  18
BRANCH   4  19
ATOM     19  C   UNL     1       3.261   3.585  -0.009  0.00  0.00    +0.307 C 
BRANCH  19  20
ATOM     20  O   UNL     1       3.454   2.170  -0.026  0.00  0.00    -0.468 OA
BRANCH  20  21
ATOM     21  C   UNL     1       2.342   1.397  -0.019  0.00  0.00    +0.226 A 
ATOM     22  C   UNL     1       2.450  -0.019  -0.035  0.00  0.00    +0.069 A 
ATOM     23  C   UNL     1       3.635  -0.860  -0.057  0.00  0.00    +0.023 A 
ATOM     24  C   UNL     1       3.491  -2.193  -0.068  0.00  0.00    +0.048 A 
ATOM     25  S   UNL     1       1.723  -2.422  -0.049  0.00  0.00    -0.077 S 
ATOM     26  C   UNL     1       1.224  -0.721  -0.027  0.00  0.00    +0.115 A 
ATOM     27  N   UNL     1       0.070  -0.086  -0.007  0.00  0.00    -0.228 NA
ATOM     28  C   UNL     1       0.034   1.232   0.007  0.00  0.00    +0.226 A 
ATOM     29  N   UNL     1       1.143   1.952   0.000  0.00  0.00    -0.201 NA
ENDBRANCH  20  21
ENDBRANCH  19  20
ENDBRANCH   4  19
TORSDOF 4
