REMARK  Name = ZINC46022551
REMARK  4 active torsions:
REMARK  status: ('A' for Active; 'I' for Inactive)
REMARK    1  A    between atoms: C_3  and  C_6
REMARK    2  A    between atoms: C_12  and  N_15
REMARK    3  A    between atoms: N_15  and  C_16
REMARK    4  A    between atoms: C_16  and  C_17
REMARK                            x       y       z     vdW  Elec       q    Type
REMARK                         _______ _______ _______ _____ _____    ______ ____
ROOT
ATOM      1  C   UNL     1       3.739   1.826  -0.024  0.00  0.00    +0.190 A 
ATOM      2  N   UNL     1       4.101   3.112  -0.015  0.00  0.00    -0.189 NA
ATOM      3  C   UNL     1       5.426   3.204  -0.029  0.00  0.00    +0.255 A 
ATOM      4  N   UNL     1       6.256   4.251  -0.030  0.00  0.00    -0.215 NA
ATOM      5  C   UNL     1       7.571   4.098  -0.046  0.00  0.00    +0.052 A 
ATOM      6  C   UNL     1       8.118   2.825  -0.058  0.00  0.00    +0.014 A 
ATOM      7  C   UNL     1       7.271   1.727  -0.061  0.00  0.00    +0.129 A 
ATOM      8  N   UNL     1       5.923   1.931  -0.046  0.00  0.00    -0.182 N 
ATOM      9  N   UNL     1       4.820   1.068  -0.038  0.00  0.00    -0.141 NA
ATOM     10  C   UNL     1       9.602   2.577  -0.062  0.00  0.00    +0.040 C 
ATOM     11  C   UNL     1      10.354   3.838  -0.487  0.00  0.00    +0.005 C 
ATOM     12  C   UNL     1       9.854   5.011   0.365  0.00  0.00    +0.006 C 
ATOM     13  C   UNL     1       8.423   5.340  -0.054  0.00  0.00    +0.056 C 
ENDROOT
BRANCH   1  16
ATOM     14  C   UNL     1      -0.016   1.354   0.009  0.00  0.00    +0.008 A 
ATOM     15  C   UNL     1       1.177   2.041   0.002  0.00  0.00    +0.019 A 
ATOM     16  C   UNL     1       2.347   1.329  -0.013  0.00  0.00    +0.058 A 
ATOM     17  S   UNL     1       1.752  -0.354  -0.017  0.00  0.00    -0.093 S 
ATOM     18  C   UNL     1       0.002  -0.004   0.002  0.00  0.00    +0.046 A 
ENDBRANCH   1  16
BRANCH   7  19
ATOM     19  N   UNL     1       7.784   0.449  -0.079  0.00  0.00    -0.325 N 
ATOM     20  H   UNL     1       8.745   0.312  -0.090  0.00  0.00    +0.148 HD
BRANCH  19  21
ATOM     21  C   UNL     1       6.880  -0.703  -0.082  0.00  0.00    +0.138 C 
BRANCH  21  22
ATOM     22  C   UNL     1       7.687  -1.975  -0.102  0.00  0.00    -0.027 A 
ATOM     23  C   UNL     1       8.050  -2.542  -1.310  0.00  0.00    +0.009 A 
ATOM     24  C   UNL     1       8.791  -3.709  -1.334  0.00  0.00    +0.050 A 
ATOM     25  C   UNL     1       9.172  -4.314  -0.147  0.00  0.00    +0.166 A 
ATOM     26  C   UNL     1       8.806  -3.742   1.069  0.00  0.00    +0.167 A 
ATOM     27  C   UNL     1       8.069  -2.570   1.086  0.00  0.00    +0.054 A 
ATOM     28  O   UNL     1       9.296  -4.518   2.080  0.00  0.00    -0.453 OA
ATOM     29  C   UNL     1       9.614  -5.785   1.474  0.00  0.00    +0.466 C 
ATOM     30  O   UNL     1       9.891  -5.447   0.102  0.00  0.00    -0.453 OA
ENDBRANCH  21  22
ENDBRANCH  19  21
ENDBRANCH   7  19
TORSDOF 4
