REMARK  Name = ZINC39330102
REMARK  5 active torsions:
REMARK  status: ('A' for Active; 'I' for Inactive)
REMARK    1  A    between atoms: C_4  and  C_7
REMARK    2  A    between atoms: C_17  and  S_19
REMARK    3  A    between atoms: S_19  and  C_20
REMARK    4  A    between atoms: C_24  and  C_33
REMARK    5  A    between atoms: N_26  and  C_27
REMARK                            x       y       z     vdW  Elec       q    Type
REMARK                         _______ _______ _______ _____ _____    ______ ____
ROOT
ATOM      1  S   UNL     1       2.160  -2.953  -1.150  0.00  0.00    -0.104 S 
ENDROOT
BRANCH   1  12
ATOM      2  C   UNL     1       2.259  -0.736   0.384  0.00  0.00    -0.010 C 
ATOM      3  C   UNL     1       3.277   0.205   0.564  0.00  0.00    +0.001 A 
ATOM      4  C   UNL     1       2.993   1.587   0.549  0.00  0.00    +0.010 A 
ATOM      5  C   UNL     1       4.002   2.481   0.726  0.00  0.00    +0.001 A 
ATOM      6  C   UNL     1       5.316   2.061   0.922  0.00  0.00    +0.002 A 
ATOM      7  C   UNL     1       5.652   0.742   0.947  0.00  0.00    +0.024 A 
ATOM      8  C   UNL     1       4.660  -0.239   0.770  0.00  0.00    +0.041 A 
ATOM      9  N   UNL     1       4.992  -1.534   0.795  0.00  0.00    -0.284 N 
ATOM     10  C   UNL     1       4.122  -2.513   0.637  0.00  0.00    +0.235 C 
ATOM     11  O   UNL     1       4.497  -3.670   0.670  0.00  0.00    -0.274 OA
ATOM     12  C   UNL     1       2.659  -2.198   0.422  0.00  0.00    +0.166 C 
ATOM     13  H   UNL     1       5.923  -1.766   0.935  0.00  0.00    +0.155 HD
BRANCH   2  17
ATOM     14  C   UNL     1      -1.720   0.430  -0.213  0.00  0.00    +0.000 A 
ATOM     15  C   UNL     1      -0.756   0.770  -1.148  0.00  0.00    +0.001 A 
ATOM     16  C   UNL     1       0.555   0.392  -0.961  0.00  0.00    +0.008 A 
ATOM     17  C   UNL     1       0.913  -0.341   0.182  0.00  0.00    -0.020 A 
ATOM     18  C   UNL     1      -0.072  -0.680   1.125  0.00  0.00    +0.008 A 
ATOM     19  C   UNL     1      -1.377  -0.292   0.919  0.00  0.00    +0.001 A 
ENDBRANCH   2  17
ENDBRANCH   1  12
BRANCH   1  20
ATOM     20  C   UNL     1       2.315  -4.735  -0.851  0.00  0.00    +0.218 C 
ATOM     21  N   UNL     1       3.720  -5.176  -1.058  0.00  0.00    -0.226 NA
ATOM     22  N   UNL     1       3.808  -5.320  -2.520  0.00  0.00    -0.230 NA
ATOM     23  C   UNL     1       2.492  -5.870  -2.916  0.00  0.00    +0.195 C 
ATOM     24  N   UNL     1       1.540  -5.497  -1.851  0.00  0.00    -0.283 N 
ATOM     25  H   UNL     1       3.894  -6.057  -0.597  0.00  0.00    +0.143 HD
ATOM     26  H   UNL     1       3.975  -4.428  -2.961  0.00  0.00    +0.143 HD
BRANCH  24  27
ATOM     27  C   UNL     1       0.178  -5.802  -1.798  0.00  0.00    +0.033 A 
ATOM     28  C   UNL     1      -0.411  -6.537  -2.819  0.00  0.00    +0.023 A 
ATOM     29  C   UNL     1      -1.757  -6.838  -2.763  0.00  0.00    +0.002 A 
ATOM     30  C   UNL     1      -2.519  -6.409  -1.692  0.00  0.00    +0.000 A 
ATOM     31  C   UNL     1      -1.936  -5.677  -0.673  0.00  0.00    +0.002 A 
ATOM     32  C   UNL     1      -0.589  -5.377  -0.721  0.00  0.00    +0.023 A 
ENDBRANCH  24  27
BRANCH  23  33
ATOM     33  C   UNL     1       2.058  -5.274  -4.230  0.00  0.00    +0.026 A 
ATOM     34  C   UNL     1       2.809  -4.956  -5.313  0.00  0.00    +0.014 A 
ATOM     35  C   UNL     1       2.189  -4.413  -6.423  0.00  0.00    +0.008 A 
ATOM     36  C   UNL     1       0.848  -4.215  -6.396  0.00  0.00    +0.045 A 
ATOM     37  S   UNL     1       0.420  -4.809  -4.768  0.00  0.00    -0.098 S 
ENDBRANCH  23  33
ENDBRANCH   1  20
TORSDOF 5
