REMARK  Name = ZINC20156868
REMARK  5 active torsions:
REMARK  status: ('A' for Active; 'I' for Inactive)
REMARK    1  A    between atoms: C_1  and  C_2
REMARK    2  A    between atoms: C_7  and  C_8
REMARK    3  A    between atoms: C_11  and  C_13
REMARK    4  A    between atoms: C_16  and  N_20
REMARK    5  A    between atoms: C_18  and  O_19
REMARK                            x       y       z     vdW  Elec       q    Type
REMARK                         _______ _______ _______ _____ _____    ______ ____
ROOT
ATOM      1  C   UNL     1      -0.018   1.503   0.010  0.00  0.00    +0.044 C 
ATOM      2  C   UNL     1       0.002  -0.004   0.002  0.00  0.00    -0.044 A 
ATOM      3  C   UNL     1       0.006  -0.682  -1.197  0.00  0.00    +0.035 A 
ATOM      4  C   UNL     1       0.025  -2.078  -1.204  0.00  0.00    +0.111 A 
ATOM      5  C   UNL     1       0.040  -2.779   0.013  0.00  0.00    +0.170 A 
ATOM      6  C   UNL     1       0.036  -2.080   1.210  0.00  0.00    +0.065 A 
ATOM      7  C   UNL     1       0.023  -0.699   1.202  0.00  0.00    -0.030 A 
ATOM      8  C   UNL     1       0.025   0.057   2.505  0.00  0.00    +0.045 C 
ATOM      9 BR   UNL     1       0.057  -3.017   2.853  0.00  0.00    -0.046 Br
ATOM     10  O   UNL     1       0.056  -4.094  -0.303  0.00  0.00    -0.434 OA
ATOM     11  C   UNL     1       0.051  -4.202  -1.645  0.00  0.00    +0.232 A 
ATOM     12  N   UNL     1       0.033  -3.011  -2.191  0.00  0.00    -0.209 NA
ENDROOT
BRANCH  11  13
ATOM     13  C   UNL     1       0.066  -5.474  -2.391  0.00  0.00    +0.078 A 
ATOM     14  C   UNL     1       0.080  -6.690  -1.702  0.00  0.00    +0.018 A 
ATOM     15  C   UNL     1       0.093  -7.876  -2.401  0.00  0.00    +0.024 A 
ATOM     16  C   UNL     1       0.093  -7.869  -3.793  0.00  0.00    +0.028 A 
ATOM     17  C   UNL     1       0.079  -6.665  -4.486  0.00  0.00    +0.069 A 
ATOM     18  C   UNL     1       0.059  -5.468  -3.793  0.00  0.00    +0.131 A 
BRANCH  16  19
ATOM     19  N   UNL     1       0.107  -9.073  -4.494  0.00  0.00    -0.358 N 
ATOM     20  H   UNL     1       0.118  -9.915  -4.012  0.00  0.00    +0.142 HD
ATOM     21  H   UNL     1       0.107  -9.070  -5.464  0.00  0.00    +0.142 HD
ENDBRANCH  16  19
BRANCH  18  22
ATOM     22  O   UNL     1       0.039  -4.290  -4.468  0.00  0.00    -0.506 OA
ATOM     23  H   UNL     1       0.917  -3.937  -4.668  0.00  0.00    +0.292 HD
ENDBRANCH  18  22
ENDBRANCH  11  13
TORSDOF 3
