REMARK  Name = ZINC12780517
REMARK  6 active torsions:
REMARK  status: ('A' for Active; 'I' for Inactive)
REMARK    1  A    between atoms: C_1  and  C_2
REMARK    2  A    between atoms: C_3  and  C_27
REMARK    3  A    between atoms: N_9  and  C_20
REMARK    4  A    between atoms: C_10  and  S_12
REMARK    5  A    between atoms: S_12  and  C_13
REMARK    6  A    between atoms: C_13  and  C_14
REMARK                            x       y       z     vdW  Elec       q    Type
REMARK                         _______ _______ _______ _____ _____    ______ ____
ROOT
ATOM      1  C   UNL     1       2.791  -3.334   0.282  0.00  0.00    +0.045 C 
ATOM      2  C   UNL     1       3.929  -2.355   0.153  0.00  0.00    -0.026 A 
ATOM      3  C   UNL     1       5.197  -2.790   0.118  0.00  0.00    -0.008 A 
ATOM      4  S   UNL     1       6.146  -1.289  -0.039  0.00  0.00    -0.073 S 
ATOM      5  C   UNL     1       4.811  -0.119  -0.053  0.00  0.00    +0.117 A 
ATOM      6  C   UNL     1       3.665  -0.929   0.065  0.00  0.00    +0.076 A 
ATOM      7  C   UNL     1       2.413  -0.238   0.081  0.00  0.00    +0.268 A 
ATOM      8  O   UNL     1       1.367  -0.857   0.179  0.00  0.00    -0.267 OA
ATOM      9  N   UNL     1       2.404   1.105  -0.015  0.00  0.00    -0.255 N 
ATOM     10  C   UNL     1       3.566   1.814  -0.131  0.00  0.00    +0.177 A 
ATOM     11  N   UNL     1       4.733   1.203  -0.144  0.00  0.00    -0.216 NA
ATOM     12  C   UNL     1       5.700  -4.208   0.194  0.00  0.00    +0.052 C 
ENDROOT
BRANCH   9  13
ATOM     13  C   UNL     1       1.180   1.787   0.000  0.00  0.00    +0.052 A 
ATOM     14  C   UNL     1       0.637   2.214   1.205  0.00  0.00    +0.028 A 
ATOM     15  C   UNL     1      -0.572   2.882   1.217  0.00  0.00    +0.022 A 
ATOM     16  C   UNL     1      -1.236   3.135   0.030  0.00  0.00    +0.041 A 
ATOM     17  C   UNL     1      -0.697   2.710  -1.172  0.00  0.00    +0.022 A 
ATOM     18  C   UNL     1       0.509   2.037  -1.189  0.00  0.00    +0.028 A 
ATOM     19 CL   UNL     1      -2.752   3.981   0.048  0.00  0.00    -0.084 Cl
ENDBRANCH   9  13
BRANCH  10  20
ATOM     20  S   UNL     1       3.503   3.570  -0.260  0.00  0.00    -0.085 S 
BRANCH  20  21
ATOM     21  C   UNL     1       5.271   3.940  -0.384  0.00  0.00    +0.109 C 
BRANCH  21  22
ATOM     22  C   UNL     1       5.468   5.452  -0.509  0.00  0.00    +0.129 C 
ATOM     23  C   UNL     1       6.963   5.768  -0.731  0.00  0.00    +0.034 C 
ATOM     24  C   UNL     1       7.160   7.047   0.129  0.00  0.00    +0.031 C 
ATOM     25  C   UNL     1       6.188   6.766   1.301  0.00  0.00    +0.160 C 
ATOM     26  O   UNL     1       5.065   6.096   0.706  0.00  0.00    -0.376 OA
ENDBRANCH  21  22
ENDBRANCH  20  21
ENDBRANCH  10  20
TORSDOF 4
