REMARK  Name = ZINC05528692
REMARK  6 active torsions:
REMARK  status: ('A' for Active; 'I' for Inactive)
REMARK    1  A    between atoms: C_1  and  C_2
REMARK    2  A    between atoms: C_2  and  C_4
REMARK    3  A    between atoms: C_2  and  O_19
REMARK    4  A    between atoms: N_6  and  N_7
REMARK    5  A    between atoms: C_8  and  C_9
REMARK    6  A    between atoms: O_19  and  C_20
REMARK                            x       y       z     vdW  Elec       q    Type
REMARK                         _______ _______ _______ _____ _____    ______ ____
ROOT
ATOM      1  C   UNL     1       1.438   7.821  -0.212  0.00  0.00    +0.273 C 
ATOM      2  O   UNL     1       0.249   8.006  -0.367  0.00  0.00    -0.270 OA
ATOM      3  N   UNL     1       1.937   6.570  -0.262  0.00  0.00    -0.204 N 
ATOM      4  H   UNL     1       2.888   6.421  -0.138  0.00  0.00    +0.177 HD
ENDROOT
BRANCH   1   6
ATOM      5  C   UNL     1       3.331   9.130  -1.135  0.00  0.00    +0.062 C 
ATOM      6  C   UNL     1       2.357   8.989   0.037  0.00  0.00    +0.257 C 
BRANCH   6   7
ATOM      7  O   UNL     1       1.584  10.185   0.161  0.00  0.00    -0.478 OA
BRANCH   7   8
ATOM      8  C   UNL     1       2.133  11.203   0.875  0.00  0.00    +0.140 A 
ATOM      9  C   UNL     1       3.432  11.097   1.349  0.00  0.00    +0.048 A 
ATOM     10  C   UNL     1       3.990  12.135   2.071  0.00  0.00    +0.023 A 
ATOM     11  C   UNL     1       3.250  13.275   2.330  0.00  0.00    +0.043 A 
ATOM     12  C   UNL     1       1.952  13.381   1.863  0.00  0.00    +0.043 A 
ATOM     13  C   UNL     1       1.392  12.347   1.136  0.00  0.00    +0.084 A 
ATOM     14 CL   UNL     1      -0.237  12.479   0.550  0.00  0.00    -0.080 Cl
ATOM     15 CL   UNL     1       3.951  14.575   3.243  0.00  0.00    -0.083 Cl
ENDBRANCH   7   8
ENDBRANCH   6   7
ENDBRANCH   1   6
BRANCH   3  16
ATOM     16  N   UNL     1       1.083   5.484  -0.494  0.00  0.00    -0.188 NA
ATOM     17  C   UNL     1       1.564   4.278  -0.542  0.00  0.00    +0.140 C 
BRANCH  17  18
ATOM     18  C   UNL     1       0.667   3.137  -0.785  0.00  0.00    +0.020 A 
ATOM     19  C   UNL     1       1.022   1.825  -0.862  0.00  0.00    +0.093 A 
ATOM     20  N   UNL     1      -0.084   1.064  -1.098  0.00  0.00    -0.360 N 
ATOM     21  H   UNL     1      -0.082   0.098  -1.192  0.00  0.00    +0.165 HD
ATOM     22  C   UNL     1      -1.204   1.863  -1.189  0.00  0.00    +0.047 A 
ATOM     23  C   UNL     1      -0.791   3.191  -0.993  0.00  0.00    +0.008 A 
ATOM     24  C   UNL     1      -1.724   4.224  -1.028  0.00  0.00    +0.010 A 
ATOM     25  C   UNL     1      -3.053   3.936  -1.250  0.00  0.00    +0.001 A 
ATOM     26  C   UNL     1      -3.463   2.624  -1.439  0.00  0.00    +0.002 A 
ATOM     27  C   UNL     1      -2.551   1.592  -1.407  0.00  0.00    +0.026 A 
ENDBRANCH  17  18
ENDBRANCH   3  16
TORSDOF 5
