REMARK  Name = ZINC20440697
REMARK  5 active torsions:
REMARK  status: ('A' for Active; 'I' for Inactive)
REMARK    1  A    between atoms: C_3  and  O_28
REMARK    2  A    between atoms: C_6  and  C_7
REMARK    3  A    between atoms: C_19  and  C_20
REMARK    4  A    between atoms: O_28  and  C_29
REMARK    5  A    between atoms: C_29  and  C_31
REMARK                            x       y       z     vdW  Elec       q    Type
REMARK                         _______ _______ _______ _____ _____    ______ ____
ROOT
ATOM      1  C   UNL     1      -1.007  -1.122   0.043  0.00  0.00    +0.025 C 
ATOM      2  C   UNL     1      -0.970  -2.487   0.210  0.00  0.00    +0.085 A 
ATOM      3  C   UNL     1      -2.204  -3.322   0.140  0.00  0.00    +0.160 A 
ATOM      4  N   UNL     1      -3.215  -3.046  -0.639  0.00  0.00    -0.281 NA
ATOM      5  N   UNL     1      -2.169  -4.440   0.998  0.00  0.00    -0.212 N 
ATOM      6  C   UNL     1      -0.929  -4.929   1.362  0.00  0.00    +0.199 A 
ATOM      7  N   UNL     1       0.236  -4.400   1.106  0.00  0.00    -0.182 NA
ATOM      8  C   UNL     1       0.300  -3.211   0.464  0.00  0.00    +0.283 A 
ATOM      9  O   UNL     1       1.369  -2.744   0.108  0.00  0.00    -0.265 OA
ATOM     10  S   UNL     1      -1.325  -6.414   2.248  0.00  0.00    -0.031 S 
ATOM     11  C   UNL     1      -3.105  -6.262   2.205  0.00  0.00    +0.101 A 
ATOM     12  N   UNL     1      -3.278  -5.092   1.498  0.00  0.00    -0.283 N 
ATOM     13  C   UNL     1      -4.050  -7.092   2.734  0.00  0.00    +0.102 C 
ATOM     14  H   UNL     1      -3.994  -3.623  -0.646  0.00  0.00    +0.188 HD
ATOM     15  H   UNL     1      -4.167  -4.732   1.354  0.00  0.00    +0.188 HD
ENDROOT
BRANCH  13  16
ATOM     16  C   UNL     1      -5.413  -6.789   2.586  0.00  0.00    +0.242 C 
ATOM     17  O   UNL     1      -5.751  -5.734   2.079  0.00  0.00    -0.271 OA
ATOM     18  N   UNL     1      -6.347  -7.665   3.006  0.00  0.00    -0.298 N 
ATOM     19  C   UNL     1      -7.773  -7.417   2.752  0.00  0.00    +0.108 C 
ATOM     20  C   UNL     1      -8.370  -8.642   2.053  0.00  0.00    +0.019 C 
ATOM     21  C   UNL     1      -8.088  -9.891   2.892  0.00  0.00    +0.003 C 
ATOM     22  C   UNL     1      -6.576 -10.094   3.016  0.00  0.00    +0.019 C 
ATOM     23  C   UNL     1      -5.959  -8.888   3.721  0.00  0.00    +0.108 C 
ENDBRANCH  13  16
BRANCH   1  29
ATOM     24  C   UNL     1       1.038  -0.648   1.373  0.00  0.00    +0.011 A 
ATOM     25  C   UNL     1       2.156   0.107   1.614  0.00  0.00    +0.047 A 
ATOM     26  C   UNL     1       2.451   1.198   0.802  0.00  0.00    +0.132 A 
ATOM     27  C   UNL     1       1.613   1.529  -0.258  0.00  0.00    +0.047 A 
ATOM     28  C   UNL     1       0.492   0.782  -0.509  0.00  0.00    +0.011 A 
ATOM     29  C   UNL     1       0.190  -0.319   0.306  0.00  0.00    -0.024 A 
BRANCH  26  30
ATOM     30  O   UNL     1       3.560   1.942   1.046  0.00  0.00    -0.422 OA
BRANCH  30  31
ATOM     31  C   UNL     1       4.763   1.363   0.860  0.00  0.00    +0.344 C 
ATOM     32  O   UNL     1       4.833   0.244   0.393  0.00  0.00    -0.245 OA
BRANCH  31  33
ATOM     33  C   UNL     1       5.995   2.090   1.223  0.00  0.00    +0.060 A 
ATOM     34  C   UNL     1       5.917   3.376   1.765  0.00  0.00    +0.018 A 
ATOM     35  C   UNL     1       7.070   4.049   2.103  0.00  0.00    +0.039 A 
ATOM     36  C   UNL     1       8.307   3.454   1.905  0.00  0.00    +0.123 A 
ATOM     37  C   UNL     1       8.391   2.179   1.367  0.00  0.00    +0.039 A 
ATOM     38  C   UNL     1       7.244   1.493   1.031  0.00  0.00    +0.018 A 
ATOM     39  F   UNL     1       9.435   4.119   2.238  0.00  0.00    -0.205 F 
ENDBRANCH  31  33
ENDBRANCH  30  31
ENDBRANCH  26  30
ENDBRANCH   1  29
TORSDOF 5
