REMARK  Name = ZINC60805384
REMARK  6 active torsions:
REMARK  status: ('A' for Active; 'I' for Inactive)
REMARK    1  A    between atoms: C_1  and  C_2
REMARK    2  A    between atoms: C_2  and  C_3
REMARK    3  A    between atoms: C_5  and  C_8
REMARK    4  A    between atoms: C_8  and  N_9
REMARK    5  A    between atoms: C_12  and  C_16
REMARK    6  A    between atoms: C_12  and  C_17
REMARK                            x       y       z     vdW  Elec       q    Type
REMARK                         _______ _______ _______ _____ _____    ______ ____
ROOT
ATOM      1  N   UNL     1       0.368  -0.337   5.545  0.00  0.00    -0.218 N 
ATOM      2  C   UNL     1       1.359   0.114   6.340  0.00  0.00    +0.254 C 
ATOM      3  O   UNL     1       2.446  -0.394   6.515  0.00  0.00    -0.272 OA
ATOM      4  C   UNL     1       0.833   1.389   6.968  0.00  0.00    +0.168 C 
ATOM      5  N   UNL     1      -0.521   1.521   6.402  0.00  0.00    -0.279 N 
ATOM      6  C   UNL     1      -0.698   0.470   5.581  0.00  0.00    +0.310 C 
ATOM      7  O   UNL     1      -1.715   0.274   4.944  0.00  0.00    -0.252 OA
ATOM      8  C   UNL     1       1.701   2.584   6.571  0.00  0.00    +0.050 C 
ATOM      9  H   UNL     1      -1.159   2.228   6.584  0.00  0.00    +0.152 HD
ENDROOT
BRANCH   4  10
ATOM     10  C   UNL     1       0.769   1.254   8.468  0.00  0.00    +0.138 A 
ATOM     11  C   UNL     1      -0.118   1.875   9.257  0.00  0.00    +0.056 A 
ATOM     12  C   UNL     1       0.190   1.453  10.629  0.00  0.00    +0.020 A 
ATOM     13  C   UNL     1      -0.352   1.738  11.882  0.00  0.00    +0.011 A 
ATOM     14  C   UNL     1       0.185   1.163  13.000  0.00  0.00    +0.001 A 
ATOM     15  C   UNL     1       1.265   0.299  12.895  0.00  0.00    +0.004 A 
ATOM     16  C   UNL     1       1.815   0.006  11.665  0.00  0.00    +0.047 A 
ATOM     17  C   UNL     1       1.284   0.579  10.517  0.00  0.00    +0.135 A 
ATOM     18  O   UNL     1       1.590   0.487   9.207  0.00  0.00    -0.457 OA
ENDBRANCH   4  10
BRANCH   1  19
ATOM     19  C   UNL     1       0.451  -1.556   4.738  0.00  0.00    +0.173 C 
BRANCH  19  22
ATOM     20  C   UNL     1       0.731  -0.503   1.223  0.00  0.00    +0.078 A 
ATOM     21  N   UNL     1       0.240  -0.793   2.402  0.00  0.00    -0.247 NA
ATOM     22  C   UNL     1       1.012  -1.223   3.380  0.00  0.00    +0.067 A 
ATOM     23  C   UNL     1       2.336  -1.351   3.107  0.00  0.00    +0.071 A 
ATOM     24  S   UNL     1       2.372  -0.831   1.400  0.00  0.00    -0.080 S 
BRANCH  20  26
ATOM     25  C   UNL     1      -0.019   1.526   0.010  0.00  0.00    +0.011 C 
ATOM     26  C   UNL     1       0.002  -0.004   0.002  0.00  0.00    +0.059 C 
ENDBRANCH  20  26
ENDBRANCH  19  22
ENDBRANCH   1  19
TORSDOF 4
