REMARK  Name = ZINC20909794
REMARK  5 active torsions:
REMARK  status: ('A' for Active; 'I' for Inactive)
REMARK    1  A    between atoms: C_5  and  C_7
REMARK    2  A    between atoms: C_7  and  N_8
REMARK    3  A    between atoms: N_8  and  C_9
REMARK    4  A    between atoms: C_9  and  C_10
REMARK    5  A    between atoms: C_19  and  N_20
REMARK                            x       y       z     vdW  Elec       q    Type
REMARK                         _______ _______ _______ _____ _____    ______ ____
ROOT
ATOM      1  C   UNL     1      -1.166   3.462  -0.222  0.00  0.00    -0.024 A 
ATOM      2  C   UNL     1      -1.230   2.112  -0.042  0.00  0.00    +0.015 A 
ATOM      3  C   UNL     1      -0.030   1.411   0.188  0.00  0.00    +0.004 A 
ATOM      4  C   UNL     1      -0.025   0.020   0.377  0.00  0.00    +0.059 A 
ATOM      5  C   UNL     1       1.153  -0.630   0.605  0.00  0.00    +0.167 A 
ATOM      6  C   UNL     1       2.364   0.080   0.650  0.00  0.00    +0.168 A 
ATOM      7  C   UNL     1       2.387   1.433   0.467  0.00  0.00    +0.078 A 
ATOM      8  C   UNL     1       1.190   2.130   0.234  0.00  0.00    +0.077 A 
ATOM      9  N   UNL     1       1.190   3.456   0.055  0.00  0.00    -0.232 NA
ATOM     10  C   UNL     1       0.071   4.116  -0.165  0.00  0.00    +0.123 A 
ATOM     11  O   UNL     1       3.374  -0.807   0.889  0.00  0.00    -0.453 OA
ATOM     12  C   UNL     1       2.735  -1.991   1.400  0.00  0.00    +0.466 C 
ATOM     13  O   UNL     1       1.420  -1.953   0.817  0.00  0.00    -0.453 OA
ENDROOT
BRANCH  10  14
ATOM     14  N   UNL     1       0.120   5.492  -0.343  0.00  0.00    -0.318 N 
ATOM     15  C   UNL     1       1.317   5.882  -1.093  0.00  0.00    +0.088 C 
ATOM     16  C   UNL     1       1.374   7.405  -1.289  0.00  0.00    -0.059 C 
ATOM     17  N   UNL     1       1.310   8.020   0.030  0.00  0.00    +0.384 N 
ATOM     18  C   UNL     1       1.361   9.487   0.091  0.00  0.00    -0.078 C 
ATOM     19  C   UNL     1       0.824   9.807   1.512  0.00  0.00    -0.020 C 
ATOM     20  C   UNL     1      -0.045   8.582   1.896  0.00  0.00    -0.016 C 
ATOM     21  C   UNL     1      -0.002   7.690   0.652  0.00  0.00    -0.051 C 
ATOM     22  C   UNL     1       0.001   6.197   0.947  0.00  0.00    +0.091 C 
ATOM     23  H   UNL     1       2.215   7.623   0.512  0.00  0.00    -0.081 HD
ENDBRANCH  10  14
BRANCH   1  24
ATOM     24  C   UNL     1      -2.425   4.250  -0.477  0.00  0.00    -0.043 C 
BRANCH  24  25
ATOM     25  N   UNL     1      -2.492   4.623  -1.896  0.00  0.00    +0.384 N 
ATOM     26  H   UNL     1      -2.489   3.705  -2.502  0.00  0.00    -0.085 HD
ATOM     27  H   UNL     1      -1.607   5.228  -2.143  0.00  0.00    -0.085 HD
BRANCH  25  28
ATOM     28  C   UNL     1      -3.709   5.394  -2.182  0.00  0.00    -0.045 C 
BRANCH  28  33
ATOM     29  C   UNL     1      -3.391   7.355  -5.392  0.00  0.00    +0.000 A 
ATOM     30  C   UNL     1      -3.803   6.424  -6.327  0.00  0.00    +0.001 A 
ATOM     31  C   UNL     1      -4.185   5.159  -5.922  0.00  0.00    +0.020 A 
ATOM     32  C   UNL     1      -4.154   4.825  -4.579  0.00  0.00    +0.042 A 
ATOM     33  C   UNL     1      -3.742   5.757  -3.644  0.00  0.00    -0.046 A 
ATOM     34  C   UNL     1      -3.365   7.023  -4.050  0.00  0.00    +0.003 A 
ATOM     35 CL   UNL     1      -4.634   3.236  -4.069  0.00  0.00    -0.083 Cl
ENDBRANCH  28  33
ENDBRANCH  25  28
ENDBRANCH  24  25
ENDBRANCH   1  24
TORSDOF 5
