REMARK  Name = ZINC41648293
REMARK  8 active torsions:
REMARK  status: ('A' for Active; 'I' for Inactive)
REMARK    1  A    between atoms: C_1  and  C_2
REMARK    2  A    between atoms: C_11  and  C_12
REMARK    3  A    between atoms: C_15  and  C_18
REMARK    4  A    between atoms: C_18  and  C_19
REMARK    5  A    between atoms: C_18  and  C_20
REMARK    6  A    between atoms: C_18  and  C_21
REMARK    7  A    between atoms: N_24  and  C_27
REMARK    8  A    between atoms: C_27  and  C_28
REMARK                            x       y       z     vdW  Elec       q    Type
REMARK                         _______ _______ _______ _____ _____    ______ ____
ROOT
ATOM      1  C   UNL     1      -0.082   1.509   0.016  0.00  0.00    +0.045 C 
ATOM      2  C   UNL     1      -0.072   0.002   0.006  0.00  0.00    -0.033 A 
ATOM      3  C   UNL     1      -0.095  -0.674  -1.180  0.00  0.00    +0.050 A 
ATOM      4  C   UNL     1      -0.085  -2.068  -1.196  0.00  0.00    +0.131 A 
ATOM      5  C   UNL     1      -0.050  -2.782  -0.010  0.00  0.00    +0.051 A 
ATOM      6  C   UNL     1      -0.029  -2.108   1.206  0.00  0.00    +0.148 A 
ATOM      7  C   UNL     1      -0.034  -0.705   1.208  0.00  0.00    +0.071 A 
ATOM      8  C   UNL     1       0.002  -0.290   2.622  0.00  0.00    +0.232 C 
ATOM      9  O   UNL     1       0.006   0.844   3.067  0.00  0.00    -0.283 OA
ATOM     10  C   UNL     1       0.031  -1.554   3.376  0.00  0.00    +0.176 C 
ATOM     11  C   UNL     1       0.069  -1.682   4.725  0.00  0.00    +0.058 C 
ATOM     12  O   UNL     1       0.002  -2.566   2.477  0.00  0.00    -0.451 OA
ATOM     13  C   UNL     1      -0.031  -4.289  -0.015  0.00  0.00    +0.130 C 
ATOM     14  N   UNL     1      -0.467  -4.784  -1.328  0.00  0.00    -0.259 NA
ATOM     15  C   UNL     1       0.266  -4.090  -2.400  0.00  0.00    +0.319 C 
ATOM     16  O   UNL     1      -0.112  -2.712  -2.393  0.00  0.00    -0.476 OA
ENDROOT
BRANCH  11  17
ATOM     17  C   UNL     1      -0.018  -3.014   5.340  0.00  0.00    -0.021 A 
ATOM     18  C   UNL     1      -0.115  -3.142   6.730  0.00  0.00    +0.008 A 
ATOM     19  C   UNL     1      -0.196  -4.396   7.299  0.00  0.00    +0.005 A 
ATOM     20  C   UNL     1      -0.181  -5.525   6.499  0.00  0.00    -0.042 A 
ATOM     21  C   UNL     1      -0.085  -5.407   5.123  0.00  0.00    +0.005 A 
ATOM     22  C   UNL     1      -0.009  -4.161   4.538  0.00  0.00    +0.008 A 
BRANCH  20  23
ATOM     23  C   UNL     1      -0.270  -6.891   7.129  0.00  0.00    -0.013 C 
ATOM     24  C   UNL     1      -1.579  -7.007   7.913  0.00  0.00    +0.015 C 
ATOM     25  C   UNL     1      -0.234  -7.961   6.036  0.00  0.00    +0.015 C 
ATOM     26  C   UNL     1       0.912  -7.092   8.079  0.00  0.00    +0.015 C 
ENDBRANCH  20  23
ENDBRANCH  11  17
BRANCH  14  27
ATOM     27  C   UNL     1      -0.293  -6.239  -1.427  0.00  0.00    +0.162 C 
BRANCH  27  28
ATOM     28  C   UNL     1      -0.970  -6.742  -2.676  0.00  0.00    +0.119 A 
ATOM     29  C   UNL     1      -0.398  -6.861  -3.887  0.00  0.00    +0.046 A 
ATOM     30  C   UNL     1      -1.388  -7.368  -4.760  0.00  0.00    +0.041 A 
ATOM     31  C   UNL     1      -2.506  -7.528  -4.030  0.00  0.00    +0.195 A 
ATOM     32  O   UNL     1      -2.245  -7.153  -2.767  0.00  0.00    -0.467 OA
ENDBRANCH  27  28
ENDBRANCH  14  27
TORSDOF 4
