REMARK  Name = ZINC33658483
REMARK  9 active torsions:
REMARK  status: ('A' for Active; 'I' for Inactive)
REMARK    1  A    between atoms: C_1  and  C_2
REMARK    2  A    between atoms: C_2  and  O_3
REMARK    3  A    between atoms: O_3  and  C_4
REMARK    4  A    between atoms: C_4  and  C_6
REMARK    5  A    between atoms: C_7  and  C_34
REMARK    6  A    between atoms: N_8  and  C_33
REMARK    7  A    between atoms: C_12  and  C_14
REMARK    8  A    between atoms: C_18  and  N_20
REMARK    9  A    between atoms: C_21  and  C_23
REMARK                            x       y       z     vdW  Elec       q    Type
REMARK                         _______ _______ _______ _____ _____    ______ ____
ROOT
ATOM      1  C   UNL     1       4.822  -3.972   5.040  0.00  0.00    -0.021 A 
ATOM      2  C   UNL     1       5.320  -3.034   5.926  0.00  0.00    +0.006 A 
ATOM      3  C   UNL     1       5.066  -1.690   5.729  0.00  0.00    +0.002 A 
ATOM      4  C   UNL     1       4.318  -1.278   4.643  0.00  0.00    +0.023 A 
ATOM      5  C   UNL     1       3.812  -2.218   3.755  0.00  0.00    +0.034 A 
ATOM      6  C   UNL     1       4.069  -3.568   3.955  0.00  0.00    +0.029 A 
ENDROOT
BRANCH   1  13
ATOM      7  C   UNL     1       4.080  -5.966   6.244  0.00  0.00    +0.078 C 
ATOM      8  C   UNL     1       4.536  -6.527   7.383  0.00  0.00    +0.024 C 
ATOM      9  N   UNL     1       5.875  -6.612   7.639  0.00  0.00    -0.262 N 
ATOM     10  C   UNL     1       6.821  -6.161   6.805  0.00  0.00    +0.307 C 
ATOM     11  O   UNL     1       7.989  -6.283   7.120  0.00  0.00    -0.252 OA
ATOM     12  N   UNL     1       6.520  -5.578   5.628  0.00  0.00    -0.288 N 
ATOM     13  C   UNL     1       5.102  -5.437   5.258  0.00  0.00    +0.144 C 
ATOM     14  C   UNL     1       6.301  -7.233   8.896  0.00  0.00    +0.139 C 
ATOM     15  C   UNL     1       3.553  -7.066   8.390  0.00  0.00    +0.061 C 
ATOM     16  H   UNL     1       7.304  -5.211   4.950  0.00  0.00    +0.151 HD
BRANCH   7  17
ATOM     17  C   UNL     1       2.693  -5.876   5.979  0.00  0.00    +0.339 C 
ATOM     18  O   UNL     1       1.890  -6.308   6.785  0.00  0.00    -0.245 OA
BRANCH  17  19
ATOM     19  O   UNL     1       2.261  -5.312   4.832  0.00  0.00    -0.462 OA
BRANCH  19  21
ATOM     20  C   UNL     1       0.551  -4.587   3.285  0.00  0.00    +0.048 C 
ATOM     21  C   UNL     1       0.847  -5.255   4.629  0.00  0.00    +0.229 C 
ENDBRANCH  19  21
ENDBRANCH  17  19
ENDBRANCH   7  17
ENDBRANCH   1  13
BRANCH   5  22
ATOM     22  N   UNL     1       3.049  -1.805   2.656  0.00  0.00    -0.285 N 
ATOM     23  C   UNL     1       2.250  -0.724   2.759  0.00  0.00    +0.223 C 
ATOM     24  O   UNL     1       2.119  -0.167   3.828  0.00  0.00    -0.275 OA
ATOM     25  H   UNL     1       3.102  -2.362   1.709  0.00  0.00    +0.155 HD
BRANCH  23  26
ATOM     26  C   UNL     1       1.521  -0.209   1.545  0.00  0.00    +0.048 C 
ATOM     27  C   UNL     1       0.597  -1.302   1.003  0.00  0.00    +0.019 C 
ATOM     28  C   UNL     1      -0.143  -0.778  -0.229  0.00  0.00    -0.009 C 
ATOM     29  C   UNL     1      -0.975   0.447   0.158  0.00  0.00    +0.007 C 
ATOM     30  C   UNL     1      -0.051   1.539   0.700  0.00  0.00    -0.009 C 
ATOM     31  C   UNL     1       0.690   1.016   1.932  0.00  0.00    +0.019 C 
ATOM     32  C   UNL     1       0.963   1.930  -0.377  0.00  0.00    +0.007 C 
ATOM     33  C   UNL     1       1.794   0.705  -0.764  0.00  0.00    -0.009 C 
ATOM     34  C   UNL     1       0.871  -0.387  -1.306  0.00  0.00    +0.007 C 
ATOM     35  C   UNL     1       2.535   0.182   0.468  0.00  0.00    +0.019 C 
ENDBRANCH  23  26
ENDBRANCH   5  22
TORSDOF 6
