REMARK  Name = ZINC09360834
REMARK  9 active torsions:
REMARK  status: ('A' for Active; 'I' for Inactive)
REMARK    1  A    between atoms: C_1  and  C_2
REMARK    2  A    between atoms: C_2  and  C_3
REMARK    3  A    between atoms: C_3  and  O_4
REMARK    4  A    between atoms: O_4  and  C_5
REMARK    5  A    between atoms: C_8  and  C_11
REMARK    6  A    between atoms: C_18  and  N_34
REMARK    7  A    between atoms: C_19  and  C_32
REMARK    8  A    between atoms: C_20  and  C_22
REMARK    9  A    between atoms: C_23  and  N_29
REMARK                            x       y       z     vdW  Elec       q    Type
REMARK                         _______ _______ _______ _____ _____    ______ ____
ROOT
ATOM      1  C   UNL     1       3.915  -4.188   2.848  0.00  0.00    +0.100 A 
ATOM      2  C   UNL     1       3.807  -4.796   4.102  0.00  0.00    +0.054 A 
ATOM      3  C   UNL     1       5.026  -4.723   4.713  0.00  0.00    +0.223 A 
ATOM      4  N   UNL     1       5.870  -4.091   3.871  0.00  0.00    -0.246 N 
ATOM      5  H   UNL     1       6.805  -3.898   4.040  0.00  0.00    +0.192 HD
ATOM      6  N   UNL     1       5.158  -3.768   2.705  0.00  0.00    -0.171 NA
ATOM      7  O   UNL     1       5.254  -5.223   5.953  0.00  0.00    -0.423 OA
ATOM      8  C   UNL     1       4.182  -5.560   6.698  0.00  0.00    +0.200 C 
ATOM      9  C   UNL     1       2.929  -5.678   6.203  0.00  0.00    +0.098 C 
ATOM     10  C   UNL     1       2.610  -5.443   4.748  0.00  0.00    +0.105 C 
ENDROOT
BRANCH  10  11
ATOM     11  C   UNL     1       2.317  -6.759   4.074  0.00  0.00    +0.014 A 
ATOM     12  C   UNL     1       1.064  -6.998   3.539  0.00  0.00    +0.132 A 
ATOM     13  C   UNL     1       0.795  -8.205   2.921  0.00  0.00    +0.033 A 
ATOM     14  C   UNL     1       1.778  -9.173   2.837  0.00  0.00    +0.004 A 
ATOM     15  C   UNL     1       3.031  -8.935   3.370  0.00  0.00    +0.020 A 
ATOM     16  C   UNL     1       3.303  -7.725   3.984  0.00  0.00    +0.047 A 
ATOM     17 CL   UNL     1       4.878  -7.423   4.648  0.00  0.00    -0.083 Cl
BRANCH  12  18
ATOM     18  N   UNL     1       0.011  -5.962   3.630  0.00  0.00    +0.057 N 
ATOM     19  O   UNL     1      -0.756  -5.798   2.710  0.00  0.00    -0.126 OA
ATOM     20  O   UNL     1      -0.081  -5.279   4.623  0.00  0.00    -0.126 OA
ENDBRANCH  12  18
ENDBRANCH  10  11
BRANCH   1  24
ATOM     21  C   UNL     1       0.792  -3.781  -0.013  0.00  0.00    +0.121 A 
ATOM     22  C   UNL     1       2.095  -4.006  -0.437  0.00  0.00    +0.046 A 
ATOM     23  C   UNL     1       3.109  -4.138   0.488  0.00  0.00    +0.013 A 
ATOM     24  C   UNL     1       2.826  -4.046   1.850  0.00  0.00    +0.003 A 
ATOM     25  C   UNL     1       1.517  -3.820   2.272  0.00  0.00    +0.013 A 
ATOM     26  C   UNL     1       0.507  -3.683   1.342  0.00  0.00    +0.046 A 
BRANCH  21  27
ATOM     27  O   UNL     1      -0.205  -3.652  -0.926  0.00  0.00    -0.492 OA
BRANCH  27  28
ATOM     28  C   UNL     1       0.158  -3.764  -2.304  0.00  0.00    +0.229 C 
BRANCH  28  30
ATOM     29  C   UNL     1      -0.699  -3.711  -4.650  0.00  0.00    +0.007 C 
ATOM     30  C   UNL     1      -1.087  -3.591  -3.175  0.00  0.00    +0.038 C 
ENDBRANCH  28  30
ENDBRANCH  27  28
ENDBRANCH  21  27
ENDBRANCH   1  24
BRANCH   8  31
ATOM     31  N   UNL     1       4.373  -5.797   8.036  0.00  0.00    -0.328 N 
ATOM     32  H   UNL     1       5.261  -5.721   8.420  0.00  0.00    +0.145 HD
ATOM     33  H   UNL     1       3.621  -6.041   8.598  0.00  0.00    +0.145 HD
ENDBRANCH   8  31
BRANCH   9  34
ATOM     34  C   UNL     1       1.867  -6.038   7.094  0.00  0.00    +0.101 C 
ATOM     35  N   UNL     1       1.025  -6.324   7.800  0.00  0.00    -0.191 NA
ENDBRANCH   9  34
TORSDOF 8
