REMARK  Name = ZINC08717601
REMARK  6 active torsions:
REMARK  status: ('A' for Active; 'I' for Inactive)
REMARK    1  A    between atoms: C_1  and  C_2
REMARK    2  A    between atoms: C_2  and  C_33
REMARK    3  A    between atoms: C_6  and  C_14
REMARK    4  A    between atoms: C_19  and  O_20
REMARK    5  A    between atoms: O_20  and  C_21
REMARK    6  A    between atoms: C_21  and  C_22
REMARK                            x       y       z     vdW  Elec       q    Type
REMARK                         _______ _______ _______ _____ _____    ______ ____
ROOT
ATOM      1  C   UNL     1      -0.019   1.526   0.010  0.00  0.00    +0.011 C 
ATOM      2  C   UNL     1       0.002  -0.004   0.002  0.00  0.00    -0.023 C 
ATOM      3  C   UNL     1      -1.431  -0.539   0.041  0.00  0.00    +0.058 C 
ATOM      4  C   UNL     1      -1.409  -2.049   0.077  0.00  0.00    +0.020 C 
ATOM      5  C   UNL     1      -0.393  -2.714   0.667  0.00  0.00    +0.041 C 
ATOM      6  C   UNL     1      -0.342  -4.226   0.717  0.00  0.00    +0.179 C 
ATOM      7  N   UNL     1      -1.641  -4.780   0.360  0.00  0.00    -0.221 N 
ATOM      8  C   UNL     1      -2.628  -4.054  -0.222  0.00  0.00    +0.218 A 
ATOM      9  N   UNL     1      -3.649  -4.844  -0.415  0.00  0.00    -0.201 NA
ATOM     10  C   UNL     1      -3.356  -6.070   0.031  0.00  0.00    +0.247 A 
ATOM     11  N   UNL     1      -2.138  -6.074   0.513  0.00  0.00    -0.156 NA
ATOM     12  N   UNL     1      -2.464  -2.709  -0.507  0.00  0.00    -0.287 N 
ATOM     13  C   UNL     1       0.675  -2.019   1.263  0.00  0.00    +0.164 C 
ATOM     14  O   UNL     1       1.564  -2.646   1.806  0.00  0.00    -0.292 OA
ATOM     15  C   UNL     1       0.742  -0.517   1.242  0.00  0.00    +0.086 C 
ATOM     16  C   UNL     1       0.706  -0.503  -1.262  0.00  0.00    +0.011 C 
ATOM     17  H   UNL     1      -3.075  -2.246  -1.101  0.00  0.00    +0.155 HD
ENDROOT
BRANCH   6  18
ATOM     18  C   UNL     1       0.696  -4.724  -0.255  0.00  0.00    +0.023 A 
ATOM     19  C   UNL     1       0.580  -4.433  -1.601  0.00  0.00    +0.009 A 
ATOM     20  C   UNL     1       1.532  -4.890  -2.493  0.00  0.00    +0.001 A 
ATOM     21  C   UNL     1       2.603  -5.639  -2.041  0.00  0.00    +0.004 A 
ATOM     22  C   UNL     1       2.724  -5.932  -0.697  0.00  0.00    +0.046 A 
ATOM     23  C   UNL     1       1.773  -5.470   0.201  0.00  0.00    +0.127 A 
BRANCH  23  24
ATOM     24  O   UNL     1       1.893  -5.753   1.525  0.00  0.00    -0.487 OA
BRANCH  24  25
ATOM     25  C   UNL     1       3.027  -6.526   1.923  0.00  0.00    +0.266 C 
BRANCH  25  26
ATOM     26  C   UNL     1       2.992  -6.738   3.415  0.00  0.00    +0.008 A 
ATOM     27  C   UNL     1       1.955  -6.212   4.163  0.00  0.00    +0.010 A 
ATOM     28  C   UNL     1       1.923  -6.406   5.531  0.00  0.00    +0.020 A 
ATOM     29  C   UNL     1       2.927  -7.127   6.152  0.00  0.00    +0.042 A 
ATOM     30  C   UNL     1       3.964  -7.653   5.404  0.00  0.00    +0.040 A 
ATOM     31  C   UNL     1       3.994  -7.463   4.034  0.00  0.00    +0.049 A 
ATOM     32 CL   UNL     1       5.292  -8.129   3.093  0.00  0.00    -0.083 Cl
ATOM     33 CL   UNL     1       2.886  -7.369   7.871  0.00  0.00    -0.083 Cl
ENDBRANCH  25  26
ENDBRANCH  24  25
ENDBRANCH  23  24
ENDBRANCH   6  18
TORSDOF 4
