REMARK  Name = ZINC38981270
REMARK  5 active torsions:
REMARK  status: ('A' for Active; 'I' for Inactive)
REMARK    1  A    between atoms: C_5  and  C_7
REMARK    2  A    between atoms: C_7  and  N_8
REMARK    3  A    between atoms: N_8  and  C_9
REMARK    4  A    between atoms: N_12  and  S_13
REMARK    5  A    between atoms: S_13  and  C_16
REMARK                            x       y       z     vdW  Elec       q    Type
REMARK                         _______ _______ _______ _____ _____    ______ ____
ROOT
ATOM      1  C   UNL     1       1.516  -4.149   1.367  0.00  0.00    +0.218 C 
ATOM      2  C   UNL     1       2.767  -4.572   2.104  0.00  0.00    +0.167 C 
ATOM      3  N   UNL     1       3.939  -4.193   1.688  0.00  0.00    -0.111 NA
ATOM      4  N   UNL     1       2.649  -5.346   3.195  0.00  0.00    -0.338 N 
ATOM      5  C   UNL     1       1.474  -5.743   3.637  0.00  0.00    +0.064 A 
ATOM      6  C   UNL     1       1.387  -6.559   4.793  0.00  0.00    +0.028 A 
ATOM      7  C   UNL     1       0.184  -6.970   5.250  0.00  0.00    +0.002 A 
ATOM      8  C   UNL     1      -1.026  -6.623   4.625  0.00  0.00    +0.002 A 
ATOM      9  C   UNL     1      -1.056  -5.849   3.517  0.00  0.00    +0.027 A 
ATOM     10  C   UNL     1       0.212  -5.360   2.956  0.00  0.00    +0.060 A 
ATOM     11  N   UNL     1       0.221  -4.611   1.890  0.00  0.00    -0.362 N 
ATOM     12  H   UNL     1      -0.608  -4.364   1.451  0.00  0.00    +0.162 HD
ATOM     13  H   UNL     1       3.449  -5.619   3.670  0.00  0.00    +0.167 HD
ENDROOT
BRANCH   3  14
ATOM     14  S   UNL     1       5.300  -4.664   2.505  0.00  0.00    +0.107 S 
ATOM     15  O   UNL     1       5.246  -4.038   3.779  0.00  0.00    -0.146 OA
ATOM     16  O   UNL     1       5.398  -6.073   2.352  0.00  0.00    -0.146 OA
BRANCH  14  17
ATOM     17  C   UNL     1       6.681  -3.969   1.660  0.00  0.00    +0.150 A 
ATOM     18  C   UNL     1       7.289  -2.773   1.858  0.00  0.00    +0.037 A 
ATOM     19  C   UNL     1       8.371  -2.433   1.067  0.00  0.00    +0.010 A 
ATOM     20  C   UNL     1       8.791  -3.304   0.117  0.00  0.00    +0.047 A 
ATOM     21  S   UNL     1       7.647  -4.659   0.327  0.00  0.00    -0.076 S 
ENDBRANCH  14  17
ENDBRANCH   3  14
BRANCH   1  22
ATOM     22  N   UNL     1       1.489  -2.680   1.337  0.00  0.00    -0.287 NA
ATOM     23  H   UNL     1       2.347  -2.295   1.703  0.00  0.00    +0.125 HD
BRANCH  22  24
ATOM     24  C   UNL     1       1.229  -2.186  -0.022  0.00  0.00    +0.120 C 
BRANCH  24  29
ATOM     25  C   UNL     1      -0.017   1.378   0.010  0.00  0.00    +0.000 A 
ATOM     26  C   UNL     1       1.171   2.086   0.002  0.00  0.00    +0.001 A 
ATOM     27  C   UNL     1       2.377   1.412  -0.013  0.00  0.00    +0.020 A 
ATOM     28  C   UNL     1       2.397   0.029  -0.021  0.00  0.00    +0.045 A 
ATOM     29  C   UNL     1       1.208  -0.679  -0.013  0.00  0.00    -0.015 A 
ATOM     30  C   UNL     1       0.002  -0.004   0.002  0.00  0.00    +0.006 A 
ATOM     31 CL   UNL     1       3.912  -0.818  -0.041  0.00  0.00    -0.083 Cl
ENDBRANCH  24  29
ENDBRANCH  22  24
ENDBRANCH   1  22
TORSDOF 5
