REMARK  Name = ZINC14276395
REMARK  9 active torsions:
REMARK  status: ('A' for Active; 'I' for Inactive)
REMARK    1  A    between atoms: C_1  and  C_2
REMARK    2  A    between atoms: C_5  and  C_27
REMARK    3  A    between atoms: C_7  and  N_8
REMARK    4  A    between atoms: N_8  and  C_9
REMARK    5  A    between atoms: C_9  and  N_11
REMARK    6  A    between atoms: C_12  and  C_14
REMARK    7  A    between atoms: C_14  and  C_15
REMARK    8  A    between atoms: C_14  and  C_21
REMARK    9  A    between atoms: C_30  and  C_35
REMARK                            x       y       z     vdW  Elec       q    Type
REMARK                         _______ _______ _______ _____ _____    ______ ____
ROOT
ATOM      1  C   UNL     1      -1.849   2.025   0.774  0.00  0.00    +0.141 C 
ATOM      2  S   UNL     1      -3.455   1.432   0.757  0.00  0.00    -0.018 S 
ENDROOT
BRANCH   1   3
ATOM      3  N   UNL     1      -1.588   3.276   0.347  0.00  0.00    -0.267 N 
ATOM      4  C   UNL     1      -2.592   4.061  -0.094  0.00  0.00    +0.230 C 
ATOM      5  O   UNL     1      -3.729   3.641  -0.105  0.00  0.00    -0.274 OA
ATOM      6  H   UNL     1      -0.678   3.612   0.356  0.00  0.00    +0.157 HD
BRANCH   4   7
ATOM      7  C   UNL     1      -2.300   5.460  -0.572  0.00  0.00    +0.135 C 
BRANCH   7   8
ATOM      8  C   UNL     1      -3.583   6.120  -1.007  0.00  0.00    -0.031 A 
ATOM      9  C   UNL     1      -4.667   6.158  -0.149  0.00  0.00    +0.005 A 
ATOM     10  C   UNL     1      -5.842   6.767  -0.546  0.00  0.00    +0.000 A 
ATOM     11  C   UNL     1      -5.938   7.330  -1.805  0.00  0.00    +0.000 A 
ATOM     12  C   UNL     1      -4.856   7.287  -2.665  0.00  0.00    +0.000 A 
ATOM     13  C   UNL     1      -3.679   6.683  -2.266  0.00  0.00    +0.005 A 
ENDBRANCH   7   8
BRANCH   7  14
ATOM     14  C   UNL     1      -1.682   6.255   0.549  0.00  0.00    -0.031 A 
ATOM     15  C   UNL     1      -2.292   6.293   1.789  0.00  0.00    +0.005 A 
ATOM     16  C   UNL     1      -1.722   7.018   2.818  0.00  0.00    +0.000 A 
ATOM     17  C   UNL     1      -0.547   7.714   2.606  0.00  0.00    +0.000 A 
ATOM     18  C   UNL     1       0.061   7.681   1.364  0.00  0.00    +0.000 A 
ATOM     19  C   UNL     1      -0.506   6.951   0.336  0.00  0.00    +0.005 A 
ENDBRANCH   7  14
ENDBRANCH   4   7
ENDBRANCH   1   3
BRANCH   1  20
ATOM     20  N   UNL     1      -0.846   1.241   1.214  0.00  0.00    -0.296 N 
ATOM     21  H   UNL     1       0.056   1.594   1.275  0.00  0.00    +0.154 HD
BRANCH  20  28
ATOM     22  C   UNL     1       0.909  -0.776   0.249  0.00  0.00    +0.045 C 
ATOM     23  C   UNL     1      -0.270  -1.103   1.128  0.00  0.00    -0.029 A 
ATOM     24  C   UNL     1      -0.520  -2.415   1.486  0.00  0.00    +0.006 A 
ATOM     25  C   UNL     1      -1.598  -2.722   2.290  0.00  0.00    +0.011 A 
ATOM     26  C   UNL     1      -2.440  -1.708   2.746  0.00  0.00    +0.011 A 
ATOM     27  C   UNL     1      -2.185  -0.384   2.392  0.00  0.00    +0.034 A 
ATOM     28  C   UNL     1      -1.103  -0.086   1.578  0.00  0.00    +0.036 A 
BRANCH  26  29
ATOM     29  C   UNL     1      -3.597  -2.035   3.609  0.00  0.00    +0.132 A 
ATOM     30  N   UNL     1      -3.991  -3.203   4.048  0.00  0.00    -0.156 NA
ATOM     31  N   UNL     1      -5.112  -3.326   4.859  0.00  0.00    -0.190 N 
ATOM     32  C   UNL     1      -5.840  -4.301   5.509  0.00  0.00    +0.153 A 
ATOM     33  N   UNL     1      -6.829  -3.720   6.129  0.00  0.00    -0.132 NA
ATOM     34  N   UNL     1      -6.790  -2.449   5.927  0.00  0.00    -0.120 NA
ATOM     35  C   UNL     1      -5.776  -2.163   5.168  0.00  0.00    +0.218 A 
ATOM     36  S   UNL     1      -4.810  -0.936   4.325  0.00  0.00    -0.026 S 
ATOM     37  C   UNL     1      -5.545  -5.779   5.502  0.00  0.00    +0.090 C 
ENDBRANCH  26  29
ENDBRANCH  20  28
ENDBRANCH   1  20
TORSDOF 7
