REMARK  Name = ZINC15735470
REMARK  6 active torsions:
REMARK  status: ('A' for Active; 'I' for Inactive)
REMARK    1  A    between atoms: C_1  and  C_2
REMARK    2  A    between atoms: C_2  and  O_3
REMARK    3  A    between atoms: O_3  and  C_4
REMARK    4  A    between atoms: C_4  and  C_6
REMARK    5  A    between atoms: C_6  and  N_7
REMARK    6  A    between atoms: C_22  and  C_24
REMARK                            x       y       z     vdW  Elec       q    Type
REMARK                         _______ _______ _______ _____ _____    ______ ____
ROOT
ATOM      1  N   UNL     1      -2.169   3.000   0.042  0.00  0.00    -0.289 N 
ATOM      2  C   UNL     1      -1.776   1.711   0.080  0.00  0.00    +0.304 C 
ATOM      3  O   UNL     1      -2.600   0.828   0.218  0.00  0.00    -0.253 OA
ATOM      4  N   UNL     1      -0.469   1.402  -0.035  0.00  0.00    -0.269 N 
ATOM      5  C   UNL     1       0.559   2.443  -0.210  0.00  0.00    +0.148 C 
ATOM      6  C   UNL     1       1.633   2.044  -1.196  0.00  0.00    +0.005 A 
ATOM      7  C   UNL     1       1.792   2.663  -2.454  0.00  0.00    -0.030 A 
ATOM      8  C   UNL     1       2.826   2.252  -3.233  0.00  0.00    -0.005 A 
ATOM      9  S   UNL     1       3.607   0.982  -2.270  0.00  0.00    -0.075 S 
ATOM     10  C   UNL     1       2.518   1.059  -0.882  0.00  0.00    +0.090 A 
ATOM     11  N   UNL     1       2.484   0.330   0.301  0.00  0.00    -0.312 N 
ATOM     12  C   UNL     1       3.461  -0.001   1.176  0.00  0.00    +0.092 A 
ATOM     13  C   UNL     1       2.887  -0.636   2.223  0.00  0.00    +0.020 A 
ATOM     14  C   UNL     1       1.501  -0.715   1.965  0.00  0.00    +0.025 A 
ATOM     15  C   UNL     1       1.281  -0.144   0.772  0.00  0.00    +0.049 A 
ATOM     16  C   UNL     1       0.002  -0.004   0.002  0.00  0.00    +0.155 C 
ATOM     17  C   UNL     1       3.205   2.757  -4.588  0.00  0.00    +0.043 C 
ATOM     18  C   UNL     1       2.024   3.563  -5.149  0.00  0.00    +0.005 C 
ATOM     19  C   UNL     1       1.534   4.532  -4.069  0.00  0.00    +0.005 C 
ATOM     20  C   UNL     1       0.849   3.759  -2.942  0.00  0.00    +0.036 C 
ATOM     21  H   UNL     1      -1.511   3.704  -0.068  0.00  0.00    +0.151 HD
ENDROOT
BRANCH  16  22
ATOM     22  C   UNL     1       0.225  -0.484  -1.409  0.00  0.00    -0.018 A 
ATOM     23  C   UNL     1       1.055  -1.564  -1.649  0.00  0.00    +0.006 A 
ATOM     24  C   UNL     1       1.260  -2.005  -2.942  0.00  0.00    +0.003 A 
ATOM     25  C   UNL     1       0.637  -1.367  -3.998  0.00  0.00    +0.038 A 
ATOM     26  C   UNL     1      -0.194  -0.286  -3.759  0.00  0.00    +0.124 A 
ATOM     27  C   UNL     1      -0.404   0.152  -2.462  0.00  0.00    +0.044 A 
ATOM     28  F   UNL     1      -0.804   0.338  -4.790  0.00  0.00    -0.205 F 
ENDBRANCH  16  22
BRANCH   1  29
ATOM     29  C   UNL     1      -3.589   3.337   0.168  0.00  0.00    +0.226 C 
BRANCH  29  30
ATOM     30  C   UNL     1      -3.759   4.832   0.094  0.00  0.00    +0.324 C 
ATOM     31  O   UNL     1      -2.793   5.544  -0.048  0.00  0.00    -0.249 OA
BRANCH  30  32
ATOM     32  O   UNL     1      -4.984   5.374   0.187  0.00  0.00    -0.464 OA
BRANCH  32  34
ATOM     33  C   UNL     1      -6.535   7.250   0.232  0.00  0.00    +0.048 C 
ATOM     34  C   UNL     1      -5.072   6.821   0.108  0.00  0.00    +0.229 C 
ENDBRANCH  32  34
ENDBRANCH  30  32
ENDBRANCH  29  30
ENDBRANCH   1  29
TORSDOF 5
