REMARK  Name = ZINC21229800
REMARK  10 active torsions:
REMARK  status: ('A' for Active; 'I' for Inactive)
REMARK    1  A    between atoms: C_1  and  C_2
REMARK    2  A    between atoms: C_2  and  C_4
REMARK    3  A    between atoms: C_2  and  O_16
REMARK    4  A    between atoms: N_6  and  C_7
REMARK    5  A    between atoms: C_10  and  C_13
REMARK    6  A    between atoms: O_16  and  C_17
REMARK    7  A    between atoms: C_17  and  C_19
REMARK    8  A    between atoms: C_20  and  C_28
REMARK    9  A    between atoms: C_28  and  S_29
REMARK   10  A    between atoms: S_29  and  C_30
REMARK                            x       y       z     vdW  Elec       q    Type
REMARK                         _______ _______ _______ _____ _____    ______ ____
ROOT
ATOM      1  C   UNL     1      -3.248   3.743   1.567  0.00  0.00    +0.062 C 
ATOM      2  C   UNL     1      -2.572   4.134   0.252  0.00  0.00    +0.259 C 
ENDROOT
BRANCH   2   3
ATOM      3  C   UNL     1      -1.256   3.409   0.128  0.00  0.00    +0.258 C 
ATOM      4  O   UNL     1      -0.217   4.035   0.127  0.00  0.00    -0.271 OA
ATOM      5  N   UNL     1      -1.235   2.066   0.019  0.00  0.00    -0.282 N 
ATOM      6  H   UNL     1      -2.178   1.505  -0.056  0.00  0.00    +0.155 HD
BRANCH   5   7
ATOM      7  C   UNL     1      -0.017   1.388   0.001  0.00  0.00    +0.034 A 
ATOM      8  C   UNL     1       1.089   1.962  -0.619  0.00  0.00    +0.024 A 
ATOM      9  C   UNL     1       2.291   1.292  -0.643  0.00  0.00    +0.015 A 
ATOM     10  C   UNL     1       2.401   0.035  -0.044  0.00  0.00    +0.037 A 
ATOM     11  C   UNL     1       1.289  -0.539   0.578  0.00  0.00    +0.015 A 
ATOM     12  C   UNL     1       0.089   0.136   0.599  0.00  0.00    +0.024 A 
BRANCH  10  13
ATOM     13  C   UNL     1       3.689  -0.686  -0.068  0.00  0.00    +0.242 C 
ATOM     14  O   UNL     1       3.783  -1.780   0.454  0.00  0.00    -0.270 OA
ATOM     15  N   UNL     1       4.761  -0.131  -0.668  0.00  0.00    -0.325 N 
ATOM     16  H   UNL     1       5.721  -0.668  -0.685  0.00  0.00    +0.145 HD
ATOM     17  H   UNL     1       4.676   0.858  -1.140  0.00  0.00    +0.145 HD
ENDBRANCH  10  13
ENDBRANCH   5   7
ENDBRANCH   2   3
BRANCH   2  18
ATOM     18  O   UNL     1      -2.338   5.567   0.236  0.00  0.00    -0.447 OA
BRANCH  18  19
ATOM     19  C   UNL     1      -3.317   6.341  -0.275  0.00  0.00    +0.376 C 
ATOM     20  O   UNL     1      -4.338   5.832  -0.695  0.00  0.00    -0.241 OA
BRANCH  19  21
ATOM     21  C   UNL     1      -3.151   7.799  -0.323  0.00  0.00    +0.217 A 
ATOM     22  C   UNL     1      -4.064   8.675  -0.818  0.00  0.00    +0.022 A 
ATOM     23  C   UNL     1      -3.477  10.005  -0.660  0.00  0.00    +0.025 A 
ATOM     24  C   UNL     1      -3.903  11.300  -0.966  0.00  0.00    +0.012 A 
ATOM     25  C   UNL     1      -3.091  12.363  -0.688  0.00  0.00    +0.001 A 
ATOM     26  C   UNL     1      -1.847  12.164  -0.105  0.00  0.00    +0.004 A 
ATOM     27  C   UNL     1      -1.407  10.895   0.203  0.00  0.00    +0.047 A 
ATOM     28  C   UNL     1      -2.216   9.798  -0.071  0.00  0.00    +0.136 A 
ATOM     29  O   UNL     1      -2.064   8.472   0.112  0.00  0.00    -0.448 OA
BRANCH  22  30
ATOM     30  C   UNL     1      -5.410   8.343  -1.409  0.00  0.00    +0.108 C 
BRANCH  30  31
ATOM     31  S   UNL     1      -6.663   8.344  -0.097  0.00  0.00    -0.159 S 
ATOM     32  C   UNL     1      -8.204   7.933  -0.961  0.00  0.00    +0.084 C 
ENDBRANCH  30  31
ENDBRANCH  22  30
ENDBRANCH  19  21
ENDBRANCH  18  19
ENDBRANCH   2  18
TORSDOF 8
