REMARK  Name = ZINC02658228
REMARK  10 active torsions:
REMARK  status: ('A' for Active; 'I' for Inactive)
REMARK    1  A    between atoms: C_1  and  C_2
REMARK    2  A    between atoms: C_5  and  C_8
REMARK    3  A    between atoms: C_8  and  N_9
REMARK    4  A    between atoms: C_10  and  C_12
REMARK    5  A    between atoms: C_12  and  O_13
REMARK    6  A    between atoms: O_13  and  C_14
REMARK    7  A    between atoms: C_14  and  C_16
REMARK    8  A    between atoms: C_19  and  O_36
REMARK    9  A    between atoms: N_22  and  S_23
REMARK   10  A    between atoms: S_23  and  C_26
REMARK                            x       y       z     vdW  Elec       q    Type
REMARK                         _______ _______ _______ _____ _____    ______ ____
ROOT
ATOM      1  C   UNL     1       4.524  -9.869   0.007  0.00  0.00    +0.191 C 
ATOM      2  C   UNL     1       3.935 -10.497   1.288  0.00  0.00    +0.064 C 
ATOM      3  C   UNL     1       4.717 -11.831   1.411  0.00  0.00    +0.132 C 
ATOM      4  C   UNL     1       6.117 -11.421   0.889  0.00  0.00    +0.141 C 
ATOM      5  N   UNL     1       5.847 -10.472  -0.211  0.00  0.00    -0.160 NA
ENDROOT
BRANCH   5   6
ATOM      6  S   UNL     1       6.862 -10.141  -1.477  0.00  0.00    +0.062 S 
ATOM      7  O   UNL     1       6.424  -8.911  -2.038  0.00  0.00    -0.153 OA
ATOM      8  O   UNL     1       8.186 -10.331  -0.996  0.00  0.00    -0.153 OA
BRANCH   6   9
ATOM      9  C   UNL     1       6.588 -11.379  -2.701  0.00  0.00    +0.109 A 
ATOM     10  C   UNL     1       7.263 -12.583  -2.627  0.00  0.00    +0.032 A 
ATOM     11  C   UNL     1       7.053 -13.555  -3.587  0.00  0.00    +0.051 A 
ATOM     12  C   UNL     1       6.162 -13.326  -4.625  0.00  0.00    +0.162 A 
ATOM     13  C   UNL     1       5.482 -12.116  -4.697  0.00  0.00    +0.164 A 
ATOM     14  C   UNL     1       5.696 -11.146  -3.730  0.00  0.00    +0.078 A 
ATOM     15  O   UNL     1       4.598 -11.873  -5.703  0.00  0.00    -0.485 OA
ATOM     16  C   UNL     1       4.684 -12.721  -6.854  0.00  0.00    +0.270 C 
ATOM     17  C   UNL     1       4.792 -14.174  -6.373  0.00  0.00    +0.270 C 
ATOM     18  O   UNL     1       5.967 -14.292  -5.564  0.00  0.00    -0.485 OA
ENDBRANCH   6   9
ENDBRANCH   5   6
BRANCH   1  19
ATOM     19  C   UNL     1       4.662  -8.379   0.183  0.00  0.00    +0.327 C 
ATOM     20  O   UNL     1       5.694  -7.914   0.608  0.00  0.00    -0.249 OA
BRANCH  19  21
ATOM     21  O   UNL     1       3.640  -7.567  -0.131  0.00  0.00    -0.454 OA
BRANCH  21  22
ATOM     22  C   UNL     1       3.841  -6.166   0.062  0.00  0.00    +0.327 C 
BRANCH  22  24
ATOM     23  N   UNL     1       2.554  -4.076  -0.243  0.00  0.00    -0.308 N 
ATOM     24  C   UNL     1       2.596  -5.420  -0.341  0.00  0.00    +0.251 C 
ATOM     25  O   UNL     1       1.631  -6.028  -0.752  0.00  0.00    -0.272 OA
ATOM     26  H   UNL     1       3.326  -3.589   0.086  0.00  0.00    +0.149 HD
BRANCH  23  27
ATOM     27  C   UNL     1       1.343  -3.350  -0.635  0.00  0.00    +0.139 C 
BRANCH  27  32
ATOM     28  C   UNL     1       2.154   2.318   0.143  0.00  0.00    +0.044 C 
ATOM     29  C   UNL     1       1.942   0.840  -0.060  0.00  0.00    -0.050 A 
ATOM     30  C   UNL     1       2.264   0.255  -1.270  0.00  0.00    +0.003 A 
ATOM     31  C   UNL     1       2.070  -1.101  -1.456  0.00  0.00    +0.005 A 
ATOM     32  C   UNL     1       1.555  -1.872  -0.432  0.00  0.00    -0.030 A 
ATOM     33  C   UNL     1       1.234  -1.288   0.779  0.00  0.00    +0.005 A 
ATOM     34  C   UNL     1       1.432   0.067   0.967  0.00  0.00    +0.003 A 
ENDBRANCH  27  32
ENDBRANCH  23  27
ENDBRANCH  22  24
ENDBRANCH  21  22
ENDBRANCH  19  21
ENDBRANCH   1  19
BRANCH   3  35
ATOM     35  O   UNL     1       4.138 -12.843   0.586  0.00  0.00    -0.390 OA
ATOM     36  H   UNL     1       4.593 -13.695   0.630  0.00  0.00    +0.210 HD
ENDBRANCH   3  35
TORSDOF 9
