REMARK  Name = ZINC32529620
REMARK  11 active torsions:
REMARK  status: ('A' for Active; 'I' for Inactive)
REMARK    1  A    between atoms: C_1  and  C_2
REMARK    2  A    between atoms: C_5  and  C_8
REMARK    3  A    between atoms: C_11  and  N_16
REMARK    4  A    between atoms: C_12  and  C_13
REMARK    5  A    between atoms: C_17  and  C_19
REMARK    6  A    between atoms: C_19  and  C_20
REMARK    7  A    between atoms: C_20  and  S_21
REMARK    8  A    between atoms: S_21  and  C_22
REMARK    9  A    between atoms: C_24  and  C_34
REMARK   10  A    between atoms: C_27  and  C_33
REMARK   11  A    between atoms: C_29  and  C_32
REMARK                            x       y       z     vdW  Elec       q    Type
REMARK                         _______ _______ _______ _____ _____    ______ ____
ROOT
ATOM      1  N   UNL     1       4.450   7.586  -0.002  0.00  0.00    -0.279 N 
ATOM      2  C   UNL     1       3.633   6.514   0.001  0.00  0.00    +0.218 C 
ATOM      3  O   UNL     1       2.430   6.668   0.014  0.00  0.00    -0.275 OA
ATOM      4  H   UNL     1       5.541   7.446  -0.013  0.00  0.00    +0.155 HD
ENDROOT
BRANCH   1   8
ATOM      5  C   UNL     1       3.774  11.277   0.025  0.00  0.00    +0.003 A 
ATOM      6  C   UNL     1       2.428  11.101   0.037  0.00  0.00    +0.056 A 
ATOM      7  S   UNL     1       2.248   9.329   0.022  0.00  0.00    -0.081 S 
ATOM      8  C   UNL     1       3.915   8.865   0.011  0.00  0.00    +0.084 A 
ATOM      9  C   UNL     1       4.589  10.078   0.011  0.00  0.00    +0.073 A 
BRANCH   5  14
ATOM     10  C   UNL     1       6.129  16.532   0.033  0.00  0.00    +0.044 C 
ATOM     11  C   UNL     1       5.513  15.156   0.031  0.00  0.00    -0.050 A 
ATOM     12  C   UNL     1       4.519  14.848  -0.881  0.00  0.00    +0.004 A 
ATOM     13  C   UNL     1       3.951  13.591  -0.888  0.00  0.00    +0.009 A 
ATOM     14  C   UNL     1       4.381  12.630   0.027  0.00  0.00    -0.017 A 
ATOM     15  C   UNL     1       5.379  12.948   0.947  0.00  0.00    +0.009 A 
ATOM     16  C   UNL     1       5.943  14.207   0.941  0.00  0.00    +0.004 A 
ENDBRANCH   5  14
BRANCH   9  17
ATOM     17  C   UNL     1       6.052  10.143  -0.003  0.00  0.00    +0.244 C 
ATOM     18  O   UNL     1       6.650  10.177  -1.063  0.00  0.00    -0.270 OA
ATOM     19  N   UNL     1       6.737  10.167   1.158  0.00  0.00    -0.325 N 
ATOM     20  H   UNL     1       7.835  10.217   1.147  0.00  0.00    +0.145 HD
ATOM     21  H   UNL     1       6.196  10.137   2.115  0.00  0.00    +0.145 HD
ENDBRANCH   9  17
ENDBRANCH   1   8
BRANCH   2  22
ATOM     22  C   UNL     1       4.215   5.123  -0.012  0.00  0.00    +0.107 C 
BRANCH  22  23
ATOM     23  C   UNL     1       3.081   4.096  -0.007  0.00  0.00    +0.085 C 
BRANCH  23  24
ATOM     24  S   UNL     1       3.779   2.427  -0.022  0.00  0.00    -0.105 S 
BRANCH  24  25
ATOM     25  C   UNL     1       2.296   1.475  -0.013  0.00  0.00    +0.098 A 
ATOM     26  C   UNL     1       2.381   0.074  -0.021  0.00  0.00    +0.038 A 
ATOM     27  C   UNL     1       1.243  -0.674  -0.014  0.00  0.00    -0.039 A 
ATOM     28  C   UNL     1       0.002  -0.004   0.002  0.00  0.00    +0.004 A 
ATOM     29  C   UNL     1      -1.208  -0.714   0.011  0.00  0.00    +0.013 A 
ATOM     30  C   UNL     1      -2.388  -0.034   0.026  0.00  0.00    -0.050 A 
ATOM     31  C   UNL     1      -2.410   1.359   0.034  0.00  0.00    +0.008 A 
ATOM     32  C   UNL     1      -1.254   2.079   0.031  0.00  0.00    -0.024 A 
ATOM     33  C   UNL     1      -0.017   1.412   0.010  0.00  0.00    +0.075 A 
ATOM     34  N   UNL     1       1.133   2.095   0.003  0.00  0.00    -0.240 NA
ATOM     35  C   UNL     1      -1.301   3.585   0.040  0.00  0.00    +0.046 C 
ATOM     36  C   UNL     1      -3.687  -0.798   0.035  0.00  0.00    +0.044 C 
ATOM     37  C   UNL     1       1.308  -2.180  -0.023  0.00  0.00    +0.044 C 
ENDBRANCH  24  25
ENDBRANCH  23  24
ENDBRANCH  22  23
ENDBRANCH   2  22
TORSDOF 7
