REMARK  Name = ZINC40719645
REMARK  8 active torsions:
REMARK  status: ('A' for Active; 'I' for Inactive)
REMARK    1  A    between atoms: C_1  and  C_2
REMARK    2  A    between atoms: C_2  and  C_3
REMARK    3  A    between atoms: C_2  and  O_4
REMARK    4  A    between atoms: O_4  and  C_5
REMARK    5  A    between atoms: C_6  and  C_13
REMARK    6  A    between atoms: C_13  and  N_14
REMARK    7  A    between atoms: N_14  and  C_15
REMARK    8  A    between atoms: C_15  and  C_16
REMARK                            x       y       z     vdW  Elec       q    Type
REMARK                         _______ _______ _______ _____ _____    ______ ____
ROOT
ATOM      1  C   UNL     1      -1.865  -0.246  -2.752  0.00  0.00    -0.043 C 
ENDROOT
BRANCH   1   3
ATOM      2  C   UNL     1      -1.552  -1.650  -0.698  0.00  0.00    +0.136 A 
ATOM      3  C   UNL     1      -1.846  -1.580  -2.051  0.00  0.00    -0.021 A 
ATOM      4  C   UNL     1      -2.121  -2.735  -2.758  0.00  0.00    +0.020 A 
ATOM      5  C   UNL     1      -2.104  -3.961  -2.116  0.00  0.00    +0.019 A 
ATOM      6  C   UNL     1      -1.812  -4.033  -0.766  0.00  0.00    +0.034 A 
ATOM      7  C   UNL     1      -1.531  -2.880  -0.056  0.00  0.00    +0.061 A 
ATOM      8 BR   UNL     1      -1.123  -2.979   1.788  0.00  0.00    -0.046 Br
ATOM      9 BR   UNL     1      -2.481  -5.540  -3.086  0.00  0.00    -0.050 Br
BRANCH   2  10
ATOM     10  O   UNL     1      -1.281  -0.514  -0.001  0.00  0.00    -0.488 OA
BRANCH  10  12
ATOM     11  C   UNL     1       0.099   1.470  -0.040  0.00  0.00    +0.051 C 
ATOM     12  C   UNL     1       0.074  -0.060  -0.004  0.00  0.00    +0.167 C 
ATOM     13  C   UNL     1       0.780  -0.551   1.262  0.00  0.00    +0.051 C 
ENDBRANCH  10  12
ENDBRANCH   2  10
ENDBRANCH   1   3
BRANCH   1  14
ATOM     14  N   UNL     1      -0.497   0.121  -3.144  0.00  0.00    +0.382 N 
ATOM     15  H   UNL     1       0.062   0.265  -2.317  0.00  0.00    -0.085 HD
ATOM     16  H   UNL     1      -0.096  -0.621  -3.697  0.00  0.00    -0.085 HD
BRANCH  14  17
ATOM     17  C   UNL     1      -0.530   1.359  -3.934  0.00  0.00    -0.079 C 
BRANCH  17  18
ATOM     18  C   UNL     1       0.894   1.740  -4.343  0.00  0.00    -0.032 C 
ATOM     19  C   UNL     1       1.709   2.090  -3.094  0.00  0.00    -0.018 C 
ATOM     20  C   UNL     1       3.107   2.547  -3.515  0.00  0.00    -0.082 C 
ATOM     21  N   UNL     1       3.000   3.730  -4.378  0.00  0.00    +0.379 N 
ATOM     22  C   UNL     1       2.281   3.384  -5.611  0.00  0.00    -0.082 C 
ATOM     23  C   UNL     1       0.852   2.959  -5.270  0.00  0.00    -0.018 C 
ATOM     24  H   UNL     1       2.498   4.456  -3.890  0.00  0.00    -0.086 HD
ATOM     25  H   UNL     1       3.924   4.060  -4.610  0.00  0.00    -0.086 HD
ENDBRANCH  17  18
ENDBRANCH  14  17
ENDBRANCH   1  14
TORSDOF 6
