REMARK  Name = ZINC23250296
REMARK  8 active torsions:
REMARK  status: ('A' for Active; 'I' for Inactive)
REMARK    1  A    between atoms: N_9  and  C_11
REMARK    2  A    between atoms: C_11  and  C_12
REMARK    3  A    between atoms: C_15  and  O_18
REMARK    4  A    between atoms: O_18  and  C_19
REMARK    5  A    between atoms: C_19  and  C_20
REMARK    6  A    between atoms: C_20  and  C_22
REMARK    7  A    between atoms: C_20  and  O_29
REMARK    8  A    between atoms: C_22  and  N_23
REMARK                            x       y       z     vdW  Elec       q    Type
REMARK                         _______ _______ _______ _____ _____    ______ ____
ROOT
ATOM      1  C   UNL     1       9.410  -1.670   5.728  0.00  0.00    -0.064 A 
ATOM      2  C   UNL     1       9.816  -0.832   4.706  0.00  0.00    +0.005 A 
ATOM      3  C   UNL     1       8.900  -0.383   3.774  0.00  0.00    +0.046 A 
ATOM      4  C   UNL     1       7.572  -0.773   3.864  0.00  0.00    +0.121 A 
ATOM      5  C   UNL     1       7.166  -1.609   4.894  0.00  0.00    +0.046 A 
ATOM      6  C   UNL     1       8.086  -2.060   5.820  0.00  0.00    +0.005 A 
ENDROOT
BRANCH   1   7
ATOM      7  C   UNL     1      10.411  -2.159   6.743  0.00  0.00    -0.043 C 
BRANCH   7  16
ATOM      8  C   UNL     1       9.399   1.328  12.047  0.00  0.00    +0.000 A 
ATOM      9  C   UNL     1       8.177   0.933  11.534  0.00  0.00    +0.000 A 
ATOM     10  C   UNL     1       8.130   0.117  10.422  0.00  0.00    +0.002 A 
ATOM     11  C   UNL     1       9.302  -0.310   9.815  0.00  0.00    -0.061 A 
ATOM     12  C   UNL     1      10.520   0.086  10.325  0.00  0.00    -0.048 A 
ATOM     13  C   UNL     1      10.566   0.904  11.444  0.00  0.00    +0.004 A 
ATOM     14  C   UNL     1      11.820  -0.347   9.697  0.00  0.00    +0.017 C 
ATOM     15  C   UNL     1      11.580  -1.542   8.773  0.00  0.00    -0.073 C 
ATOM     16  N   UNL     1      10.467  -1.216   7.868  0.00  0.00    +0.385 N 
ATOM     17  C   UNL     1       9.200  -1.203   8.606  0.00  0.00    -0.042 C 
ATOM     18  H   UNL     1      10.634  -0.211   7.454  0.00  0.00    -0.081 HD
ENDBRANCH   7  16
ENDBRANCH   1   7
BRANCH   4  19
ATOM     19  O   UNL     1       6.670  -0.332   2.949  0.00  0.00    -0.489 OA
BRANCH  19  20
ATOM     20  C   UNL     1       5.320  -0.774   3.104  0.00  0.00    +0.258 C 
BRANCH  20  21
ATOM     21  C   UNL     1       4.457  -0.179   1.989  0.00  0.00    +0.135 C 
BRANCH  21  22
ATOM     22  O   UNL     1       4.883  -0.700   0.729  0.00  0.00    -0.390 OA
ATOM     23  H   UNL     1       4.376  -0.385  -0.196  0.00  0.00    +0.210 HD
ENDBRANCH  21  22
BRANCH  21  24
ATOM     24  C   UNL     1       2.991  -0.550   2.226  0.00  0.00    -0.044 C 
BRANCH  24  25
ATOM     25  N   UNL     1       2.163   0.021   1.155  0.00  0.00    +0.381 N 
ATOM     26  C   UNL     1       0.793  -0.505   1.212  0.00  0.00    -0.079 C 
ATOM     27  C   UNL     1       0.002  -0.004   0.002  0.00  0.00    -0.019 C 
ATOM     28  C   UNL     1      -0.019   1.527   0.010  0.00  0.00    -0.004 C 
ATOM     29  C   UNL     1       1.421   2.049  -0.001  0.00  0.00    -0.019 C 
ATOM     30  C   UNL     1       2.171   1.488   1.210  0.00  0.00    -0.079 C 
ATOM     31  H   UNL     1       2.598  -0.281   0.191  0.00  0.00    -0.082 HD
ENDBRANCH  24  25
ENDBRANCH  21  24
ENDBRANCH  20  21
ENDBRANCH  19  20
ENDBRANCH   4  19
TORSDOF 8
