REMARK  Name = ZINC20461866
REMARK  10 active torsions:
REMARK  status: ('A' for Active; 'I' for Inactive)
REMARK    1  A    between atoms: C_1  and  C_2
REMARK    2  A    between atoms: C_8  and  O_12
REMARK    3  A    between atoms: O_12  and  C_13
REMARK    4  A    between atoms: C_13  and  C_14
REMARK    5  A    between atoms: C_14  and  C_16
REMARK    6  A    between atoms: C_14  and  O_36
REMARK    7  A    between atoms: C_16  and  N_17
REMARK    8  A    between atoms: N_20  and  C_23
REMARK    9  A    between atoms: C_23  and  C_24
REMARK   10  A    between atoms: C_23  and  C_30
REMARK                            x       y       z     vdW  Elec       q    Type
REMARK                         _______ _______ _______ _____ _____    ______ ____
ROOT
ATOM      1  N   UNL     1       0.136   3.837   6.681  0.00  0.00    -0.303 NA
ATOM      2  C   UNL     1       1.326   4.519   6.152  0.00  0.00    +0.066 C 
ATOM      3  C   UNL     1       1.242   6.012   6.479  0.00  0.00    -0.062 C 
ATOM      4  N   UNL     1       1.160   6.191   7.934  0.00  0.00    +0.389 N 
ATOM      5  C   UNL     1      -0.047   5.526   8.444  0.00  0.00    -0.062 C 
ATOM      6  C   UNL     1       0.027   4.029   8.134  0.00  0.00    +0.066 C 
ATOM      7  H   UNL     1       1.976   5.788   8.369  0.00  0.00    -0.080 HD
ENDROOT
BRANCH   1   8
ATOM      8  C   UNL     1       0.152   2.409   6.338  0.00  0.00    +0.119 C 
BRANCH   8   9
ATOM      9  C   UNL     1       0.015   2.247   4.823  0.00  0.00    +0.166 C 
BRANCH   9  10
ATOM     10  O   UNL     1      -1.217   2.826   4.391  0.00  0.00    -0.387 OA
ATOM     11  H   UNL     1      -2.001   2.428   4.793  0.00  0.00    +0.210 HD
ENDBRANCH   9  10
BRANCH   9  12
ATOM     12  C   UNL     1       0.032   0.759   4.465  0.00  0.00    +0.261 C 
BRANCH  12  13
ATOM     13  O   UNL     1       0.022   0.610   3.044  0.00  0.00    -0.489 OA
BRANCH  13  21
ATOM     14  C   UNL     1      -0.018   1.503   0.010  0.00  0.00    +0.046 C 
ATOM     15  C   UNL     1       0.002  -0.004   0.002  0.00  0.00    -0.022 A 
ATOM     16  C   UNL     1       0.009  -0.796  -1.081  0.00  0.00    +0.087 A 
ATOM     17  N   UNL     1       0.028  -2.111  -0.697  0.00  0.00    -0.360 N 
ATOM     18  H   UNL     1       0.037  -2.868  -1.303  0.00  0.00    +0.165 HD
ATOM     19  C   UNL     1       0.035  -2.196   0.677  0.00  0.00    +0.050 A 
ATOM     20  C   UNL     1       0.025  -0.882   1.175  0.00  0.00    +0.044 A 
ATOM     21  C   UNL     1       0.034  -0.658   2.557  0.00  0.00    +0.130 A 
ATOM     22  C   UNL     1       0.057  -1.735   3.421  0.00  0.00    +0.046 A 
ATOM     23  C   UNL     1       0.070  -3.031   2.926  0.00  0.00    +0.006 A 
ATOM     24  C   UNL     1       0.054  -3.265   1.568  0.00  0.00    +0.026 A 
ENDBRANCH  13  21
ENDBRANCH  12  13
ENDBRANCH   9  12
ENDBRANCH   8   9
ENDBRANCH   1   8
BRANCH   4  25
ATOM     25  C   UNL     1       1.097   7.625   8.248  0.00  0.00    -0.007 C 
BRANCH  25  26
ATOM     26  C   UNL     1       1.012   7.809   9.741  0.00  0.00    -0.057 A 
ATOM     27  C   UNL     1       1.769   7.013  10.580  0.00  0.00    +0.002 A 
ATOM     28  C   UNL     1       1.692   7.182  11.950  0.00  0.00    +0.000 A 
ATOM     29  C   UNL     1       0.858   8.148  12.481  0.00  0.00    +0.000 A 
ATOM     30  C   UNL     1       0.102   8.945  11.642  0.00  0.00    +0.000 A 
ATOM     31  C   UNL     1       0.182   8.779  10.272  0.00  0.00    +0.002 A 
ENDBRANCH  25  26
BRANCH  25  32
ATOM     32  C   UNL     1       2.335   8.308   7.727  0.00  0.00    -0.057 A 
ATOM     33  C   UNL     1       3.565   7.685   7.833  0.00  0.00    +0.002 A 
ATOM     34  C   UNL     1       4.700   8.312   7.355  0.00  0.00    +0.000 A 
ATOM     35  C   UNL     1       4.607   9.561   6.770  0.00  0.00    +0.000 A 
ATOM     36  C   UNL     1       3.377  10.183   6.663  0.00  0.00    +0.000 A 
ATOM     37  C   UNL     1       2.241   9.555   7.137  0.00  0.00    +0.002 A 
ENDBRANCH  25  32
ENDBRANCH   4  25
TORSDOF 9
