REMARK  Name = ZINC39469543
REMARK  6 active torsions:
REMARK  status: ('A' for Active; 'I' for Inactive)
REMARK    1  A    between atoms: C_1  and  C_2
REMARK    2  A    between atoms: C_2  and  O_3
REMARK    3  A    between atoms: O_3  and  C_4
REMARK    4  A    between atoms: P_13  and  O_23
REMARK    5  A    between atoms: O_23  and  C_24
REMARK    6  A    between atoms: C_24  and  C_25
REMARK                            x       y       z     vdW  Elec       q    Type
REMARK                         _______ _______ _______ _____ _____    ______ ____
ROOT
ATOM      1  C   UNL     1       0.777  -1.810  -1.336  0.00  0.00    +0.130 C 
ATOM      2  C   UNL     1       0.264  -2.638  -0.423  0.00  0.00    +0.024 C 
ATOM      3  C   UNL     1       0.381  -4.131  -0.624  0.00  0.00    +0.025 C 
ATOM      4  C   UNL     1       1.766  -4.580  -0.159  0.00  0.00    +0.031 C 
ATOM      5  C   UNL     1       1.976  -6.070  -0.452  0.00  0.00    +0.100 C 
ATOM      6  C   UNL     1       3.389  -6.429   0.025  0.00  0.00    +0.191 C 
ATOM      7  O   UNL     1       3.633  -7.830  -0.195  0.00  0.00    -0.294 OA
ATOM      8  P   UNL     1       3.332  -8.427  -1.678  0.00  0.00    +0.421 P 
ATOM      9  O   UNL     1       3.124  -9.891  -1.609  0.00  0.00    -0.239 OA
ATOM     10  N   UNL     1       1.950  -7.675  -2.176  0.00  0.00    -0.156 NA
ATOM     11  N   UNL     1       1.815  -6.332  -1.885  0.00  0.00    -0.228 NA
ATOM     12  C   UNL     1       0.485  -5.919  -2.365  0.00  0.00    +0.111 C 
ATOM     13  C   UNL     1       0.224  -4.439  -2.116  0.00  0.00    +0.035 C 
ATOM     14  C   UNL     1       1.200  -3.610  -2.906  0.00  0.00    -0.004 C 
ATOM     15  C   UNL     1       1.454  -2.362  -2.526  0.00  0.00    +0.051 C 
ATOM     16  I   UNL     1       2.815  -1.190  -3.605  0.00  0.00    -0.040 I 
ATOM     17  H   UNL     1       1.261  -8.159  -2.657  0.00  0.00    +0.153 HD
ENDROOT
BRANCH   1  18
ATOM     18  O   UNL     1       0.671  -0.465  -1.174  0.00  0.00    -0.492 OA
BRANCH  18  20
ATOM     19  C   UNL     1      -0.019   1.526   0.010  0.00  0.00    +0.048 C 
ATOM     20  C   UNL     1       0.002  -0.004   0.002  0.00  0.00    +0.226 C 
ENDBRANCH  18  20
ENDBRANCH   1  18
BRANCH   8  21
ATOM     21  O   UNL     1       4.548  -8.084  -2.676  0.00  0.00    -0.296 OA
BRANCH  21  22
ATOM     22  C   UNL     1       4.667  -8.651  -3.982  0.00  0.00    +0.168 C 
ATOM     23  C   UNL     1       5.931  -8.115  -4.658  0.00  0.00    +0.035 C 
ENDBRANCH  21  22
ENDBRANCH   8  21
TORSDOF 4
