REMARK  Name = ZINC28297128
REMARK  8 active torsions:
REMARK  status: ('A' for Active; 'I' for Inactive)
REMARK    1  A    between atoms: C_1  and  C_2
REMARK    2  A    between atoms: C_3  and  C_30
REMARK    3  A    between atoms: N_4  and  C_12
REMARK    4  A    between atoms: C_12  and  C_13
REMARK    5  A    between atoms: C_13  and  C_15
REMARK    6  A    between atoms: C_13  and  O_29
REMARK    7  A    between atoms: C_15  and  N_16
REMARK    8  A    between atoms: C_24  and  C_25
REMARK                            x       y       z     vdW  Elec       q    Type
REMARK                         _______ _______ _______ _____ _____    ______ ____
ROOT
ATOM      1  C   UNL     1       4.043   0.925  -1.474  0.00  0.00    +0.154 C 
ENDROOT
BRANCH   1   2
ATOM      2  O   UNL     1       3.748  -0.317  -2.117  0.00  0.00    -0.388 OA
ATOM      3  H   UNL     1       2.706  -0.658  -2.203  0.00  0.00    +0.210 HD
ENDBRANCH   1   2
BRANCH   1   4
ATOM      4  C   UNL     1       5.554   1.161  -1.489  0.00  0.00    +0.155 C 
BRANCH   4   8
ATOM      5  C   UNL     1       6.762   3.365  -5.842  0.00  0.00    +0.046 C 
ATOM      6  C   UNL     1       6.539   2.312  -4.787  0.00  0.00    -0.022 A 
ATOM      7  C   UNL     1       6.082   2.514  -3.542  0.00  0.00    +0.020 A 
ATOM      8  N   UNL     1       6.009   1.323  -2.872  0.00  0.00    -0.340 N 
ATOM      9  C   UNL     1       6.434   0.300  -3.691  0.00  0.00    +0.068 A 
ATOM     10  C   UNL     1       6.779   0.874  -4.928  0.00  0.00    +0.004 A 
ATOM     11  C   UNL     1       7.245   0.065  -5.965  0.00  0.00    +0.010 A 
ATOM     12  C   UNL     1       7.373  -1.282  -5.771  0.00  0.00    +0.002 A 
ATOM     13  C   UNL     1       7.031  -1.854  -4.554  0.00  0.00    +0.022 A 
ATOM     14  C   UNL     1       6.564  -1.075  -3.517  0.00  0.00    +0.065 A 
ATOM     15 CL   UNL     1       6.140  -1.805  -2.000  0.00  0.00    -0.081 Cl
ATOM     16  C   UNL     1       5.704   3.855  -2.966  0.00  0.00    +0.064 C 
ENDBRANCH   4   8
ENDBRANCH   1   4
BRANCH   1  17
ATOM     17  C   UNL     1       3.548   0.880  -0.027  0.00  0.00    +0.157 C 
BRANCH  17  18
ATOM     18  N   UNL     1       2.087   0.774  -0.014  0.00  0.00    -0.318 N 
ATOM     19  C   UNL     1       1.352  -0.395  -0.013  0.00  0.00    +0.069 A 
ATOM     20  C   UNL     1       1.680  -1.744  -0.025  0.00  0.00    +0.028 A 
ATOM     21  C   UNL     1       0.678  -2.691  -0.020  0.00  0.00    +0.002 A 
ATOM     22  C   UNL     1      -0.655  -2.304  -0.005  0.00  0.00    +0.002 A 
ATOM     23  C   UNL     1      -0.997  -0.981   0.006  0.00  0.00    +0.030 A 
ATOM     24  C   UNL     1       0.002  -0.004   0.002  0.00  0.00    +0.090 A 
ATOM     25  N   UNL     1      -0.016   1.354   0.009  0.00  0.00    -0.224 NA
ATOM     26  C   UNL     1       1.203   1.808   0.000  0.00  0.00    +0.216 A 
BRANCH  26  27
ATOM     27  C   UNL     1       1.581   3.267   0.004  0.00  0.00    +0.451 C 
ATOM     28  F   UNL     1       0.468   4.036   0.360  0.00  0.00    -0.163 F 
ATOM     29  F   UNL     1       2.610   3.479   0.928  0.00  0.00    -0.163 F 
ATOM     30  F   UNL     1       2.016   3.639  -1.272  0.00  0.00    -0.163 F 
ENDBRANCH  26  27
ENDBRANCH  17  18
ENDBRANCH   1  17
TORSDOF 6
