REMARK  Name = ZINC35027255
REMARK  10 active torsions:
REMARK  status: ('A' for Active; 'I' for Inactive)
REMARK    1  A    between atoms: C_1  and  C_2
REMARK    2  A    between atoms: C_2  and  C_3
REMARK    3  A    between atoms: C_3  and  C_5
REMARK    4  A    between atoms: C_3  and  N_17
REMARK    5  A    between atoms: N_15  and  C_16
REMARK    6  A    between atoms: N_17  and  C_18
REMARK    7  A    between atoms: C_18  and  C_19
REMARK    8  A    between atoms: C_19  and  O_20
REMARK    9  A    between atoms: O_20  and  C_21
REMARK   10  A    between atoms: N_24  and  C_25
REMARK                            x       y       z     vdW  Elec       q    Type
REMARK                         _______ _______ _______ _____ _____    ______ ____
ROOT
ATOM      1  N   UNL     1      -2.084   0.331   1.583  0.00  0.00    -0.273 N 
ATOM      2  C   UNL     1      -3.056   1.264   1.634  0.00  0.00    +0.307 C 
ATOM      3  O   UNL     1      -3.620   1.610   0.614  0.00  0.00    -0.252 OA
ATOM      4  N   UNL     1      -3.402   1.812   2.815  0.00  0.00    -0.269 N 
ATOM      5  H   UNL     1      -3.004   1.484   3.637  0.00  0.00    +0.156 HD
ENDROOT
BRANCH   4   6
ATOM      6  C   UNL     1      -4.335   2.854   2.857  0.00  0.00    +0.035 A 
ATOM      7  C   UNL     1      -5.216   2.958   3.925  0.00  0.00    +0.025 A 
ATOM      8  C   UNL     1      -6.136   3.987   3.963  0.00  0.00    +0.022 A 
ATOM      9  C   UNL     1      -6.181   4.915   2.938  0.00  0.00    +0.041 A 
ATOM     10  C   UNL     1      -5.304   4.814   1.871  0.00  0.00    +0.022 A 
ATOM     11  C   UNL     1      -4.378   3.790   1.832  0.00  0.00    +0.025 A 
ATOM     12 CL   UNL     1      -7.338   6.208   2.989  0.00  0.00    -0.084 Cl
ENDBRANCH   4   6
BRANCH   1  13
ATOM     13  C   UNL     1      -1.708  -0.265   0.298  0.00  0.00    +0.144 C 
BRANCH  13  14
ATOM     14  C   UNL     1      -1.932  -1.754   0.351  0.00  0.00    +0.133 A 
ATOM     15  N   UNL     1      -1.195  -2.460   1.153  0.00  0.00    -0.232 NA
ATOM     16  C   UNL     1      -1.340  -3.805   1.254  0.00  0.00    +0.078 A 
ATOM     17  C   UNL     1      -0.548  -4.565   2.116  0.00  0.00    +0.028 A 
ATOM     18  C   UNL     1      -0.730  -5.928   2.187  0.00  0.00    +0.002 A 
ATOM     19  C   UNL     1      -1.693  -6.558   1.409  0.00  0.00    +0.001 A 
ATOM     20  C   UNL     1      -2.487  -5.830   0.550  0.00  0.00    +0.015 A 
ATOM     21  C   UNL     1      -2.318  -4.450   0.464  0.00  0.00    +0.065 A 
ATOM     22  C   UNL     1      -3.136  -3.621  -0.433  0.00  0.00    +0.262 A 
ATOM     23  O   UNL     1      -3.997  -4.114  -1.140  0.00  0.00    -0.267 OA
ATOM     24  N   UNL     1      -2.900  -2.288  -0.440  0.00  0.00    -0.298 N 
ATOM     25  C   UNL     1      -3.689  -1.415  -1.311  0.00  0.00    +0.154 C 
ENDBRANCH  13  14
BRANCH  13  27
ATOM     26  C   UNL     1      -0.026   1.524  -0.164  0.00  0.00    +0.006 C 
ATOM     27  C   UNL     1      -0.231   0.018   0.018  0.00  0.00    +0.027 C 
ENDBRANCH  13  27
ENDBRANCH   1  13
BRANCH   1  28
ATOM     28  C   UNL     1      -1.404  -0.086   2.811  0.00  0.00    +0.138 C 
BRANCH  28  29
ATOM     29  C   UNL     1      -0.183   0.805   3.046  0.00  0.00    +0.178 C 
BRANCH  29  30
ATOM     30  O   UNL     1      -0.612   2.146   3.288  0.00  0.00    -0.381 OA
ATOM     31  C   UNL     1       0.458   3.065   3.521  0.00  0.00    +0.194 C 
ENDBRANCH  29  30
ENDBRANCH  28  29
ENDBRANCH   1  28
TORSDOF 7
