REMARK  Name = ZINC15153394
REMARK  9 active torsions:
REMARK  status: ('A' for Active; 'I' for Inactive)
REMARK    1  A    between atoms: C_1  and  C_2
REMARK    2  A    between atoms: C_2  and  C_3
REMARK    3  A    between atoms: C_3  and  C_5
REMARK    4  A    between atoms: C_3  and  N_6
REMARK    5  A    between atoms: N_6  and  C_7
REMARK    6  A    between atoms: C_15  and  C_17
REMARK    7  A    between atoms: C_17  and  O_18
REMARK    8  A    between atoms: O_18  and  C_19
REMARK    9  A    between atoms: C_19  and  C_21
REMARK                            x       y       z     vdW  Elec       q    Type
REMARK                         _______ _______ _______ _____ _____    ______ ____
ROOT
ATOM      1  N   UNL     1      -0.496   2.287   1.370  0.00  0.00    -0.291 N 
ATOM      2  C   UNL     1      -0.233   1.788   2.594  0.00  0.00    +0.254 C 
ATOM      3  O   UNL     1      -0.998   1.999   3.511  0.00  0.00    -0.272 OA
ENDROOT
BRANCH   1   4
ATOM      4  C   UNL     1       0.416   2.014   0.256  0.00  0.00    +0.099 C 
ATOM      5  C   UNL     1       0.623   0.496   0.127  0.00  0.00    +0.046 C 
ATOM      6  C   UNL     1       1.818   0.250  -0.838  0.00  0.00    +0.168 C 
ATOM      7  S   UNL     1       2.974   1.575  -0.287  0.00  0.00    -0.029 S 
ATOM      8  O   UNL     1       3.846   1.046   0.702  0.00  0.00    -0.174 OA
ATOM      9  O   UNL     1       3.521   2.217  -1.431  0.00  0.00    -0.174 OA
ATOM     10  C   UNL     1       1.773   2.711   0.520  0.00  0.00    +0.188 C 
ENDBRANCH   1   4
BRANCH   1  11
ATOM     11  C   UNL     1      -1.693   3.104   1.153  0.00  0.00    +0.073 C 
ATOM     12  C   UNL     1      -1.663   4.312   2.091  0.00  0.00    +0.028 C 
BRANCH  11  14
ATOM     13  C   UNL     1      -3.044   1.137   0.412  0.00  0.00    +0.005 C 
ATOM     14  C   UNL     1      -2.940   2.266   1.440  0.00  0.00    +0.019 C 
ENDBRANCH  11  14
ENDBRANCH   1  11
BRANCH   2  15
ATOM     15  C   UNL     1       1.009   0.967   2.822  0.00  0.00    +0.328 C 
BRANCH  15  16
ATOM     16  O   UNL     1       1.345   0.980   4.235  0.00  0.00    -0.452 OA
BRANCH  16  17
ATOM     17  C   UNL     1       2.439   0.288   4.610  0.00  0.00    +0.341 C 
ATOM     18  O   UNL     1       3.093  -0.310   3.779  0.00  0.00    -0.245 OA
BRANCH  17  19
ATOM     19  C   UNL     1       2.841   0.256   6.030  0.00  0.00    +0.072 A 
ATOM     20  C   UNL     1       2.091   0.943   6.987  0.00  0.00    +0.016 A 
ATOM     21  C   UNL     1       2.473   0.909   8.312  0.00  0.00    +0.001 A 
ATOM     22  C   UNL     1       3.596   0.197   8.695  0.00  0.00    +0.001 A 
ATOM     23  C   UNL     1       4.344  -0.486   7.753  0.00  0.00    +0.015 A 
ATOM     24  C   UNL     1       3.971  -0.465   6.423  0.00  0.00    +0.027 A 
ATOM     25  I   UNL     1       5.101  -1.507   4.999  0.00  0.00    -0.043 I 
ENDBRANCH  17  19
ENDBRANCH  16  17
ENDBRANCH  15  16
ENDBRANCH   2  15
TORSDOF 7
