REMARK  Name = ZINC20504091
REMARK  8 active torsions:
REMARK  status: ('A' for Active; 'I' for Inactive)
REMARK    1  A    between atoms: C_1  and  O_2
REMARK    2  A    between atoms: O_2  and  C_3
REMARK    3  A    between atoms: C_3  and  C_5
REMARK    4  A    between atoms: C_21  and  C_36
REMARK    5  A    between atoms: C_24  and  N_27
REMARK    6  A    between atoms: N_27  and  C_28
REMARK    7  A    between atoms: C_28  and  C_29
REMARK    8  A    between atoms: C_29  and  C_30
REMARK                            x       y       z     vdW  Elec       q    Type
REMARK                         _______ _______ _______ _____ _____    ______ ____
ROOT
ATOM      1  C   UNL     1       0.836  -1.705   0.919  0.00  0.00    +0.172 C 
ATOM      2  C   UNL     1      -0.665  -2.026   0.931  0.00  0.00    +0.068 C 
ATOM      3  C   UNL     1      -1.205  -1.700   2.300  0.00  0.00    -0.016 A 
ATOM      4  C   UNL     1      -2.576  -1.532   2.728  0.00  0.00    +0.003 A 
ATOM      5  C   UNL     1      -3.799  -1.610   2.054  0.00  0.00    +0.010 A 
ATOM      6  C   UNL     1      -4.933  -1.387   2.795  0.00  0.00    +0.001 A 
ATOM      7  C   UNL     1      -4.882  -1.098   4.149  0.00  0.00    +0.002 A 
ATOM      8  C   UNL     1      -3.686  -1.014   4.841  0.00  0.00    +0.026 A 
ATOM      9  C   UNL     1      -2.518  -1.235   4.115  0.00  0.00    +0.047 A 
ATOM     10  N   UNL     1      -1.201  -1.228   4.476  0.00  0.00    -0.356 N 
ATOM     11  H   UNL     1      -0.869  -1.053   5.370  0.00  0.00    +0.166 HD
ATOM     12  C   UNL     1      -0.421  -1.505   3.386  0.00  0.00    +0.038 A 
ATOM     13  C   UNL     1       1.084  -1.592   3.335  0.00  0.00    +0.103 C 
ATOM     14  N   UNL     1       1.472  -2.293   2.102  0.00  0.00    -0.274 NA
ATOM     15  C   UNL     1       2.932  -2.345   1.966  0.00  0.00    +0.090 C 
ATOM     16  C   UNL     1       3.521  -3.138   3.136  0.00  0.00    +0.008 C 
ATOM     17  C   UNL     1       3.129  -2.469   4.456  0.00  0.00    -0.068 C 
ATOM     18  C   UNL     1       1.604  -2.365   4.548  0.00  0.00    +0.009 C 
ENDROOT
BRANCH  15  19
ATOM     19  C   UNL     1       3.293  -3.019   0.668  0.00  0.00    +0.005 A 
ATOM     20  C   UNL     1       4.254  -2.463  -0.156  0.00  0.00    +0.008 A 
ATOM     21  C   UNL     1       4.585  -3.081  -1.347  0.00  0.00    +0.000 A 
ATOM     22  C   UNL     1       3.956  -4.256  -1.716  0.00  0.00    +0.003 A 
ATOM     23  C   UNL     1       2.996  -4.814  -0.894  0.00  0.00    +0.038 A 
ATOM     24  C   UNL     1       2.667  -4.198   0.302  0.00  0.00    +0.128 A 
ATOM     25  F   UNL     1       1.732  -4.745   1.109  0.00  0.00    -0.205 F 
ENDBRANCH  15  19
BRANCH  17  26
ATOM     26  N   UNL     1       3.635  -3.269   5.580  0.00  0.00    +0.381 N 
ATOM     27  H   UNL     1       3.308  -2.874   6.448  0.00  0.00    -0.086 HD
ATOM     28  H   UNL     1       3.301  -4.218   5.495  0.00  0.00    -0.086 HD
BRANCH  26  29
ATOM     29  C   UNL     1       5.104  -3.264   5.562  0.00  0.00    -0.076 C 
BRANCH  29  30
ATOM     30  C   UNL     1       5.631  -4.097   6.732  0.00  0.00    +0.038 C 
BRANCH  30  31
ATOM     31  C   UNL     1       7.138  -4.092   6.715  0.00  0.00    +0.057 A 
ATOM     32  C   UNL     1       7.940  -3.728   7.734  0.00  0.00    +0.107 A 
ATOM     33  N   UNL     1       9.228  -3.873   7.295  0.00  0.00    -0.351 N 
ATOM     34  H   UNL     1      10.034  -3.688   7.803  0.00  0.00    +0.166 HD
ATOM     35  C   UNL     1       9.168  -4.321   6.022  0.00  0.00    +0.196 A 
ATOM     36  N   UNL     1       7.915  -4.454   5.684  0.00  0.00    -0.241 NA
ENDBRANCH  30  31
ENDBRANCH  29  30
ENDBRANCH  26  29
ENDBRANCH  17  26
BRANCH   1  37
ATOM     37  C   UNL     1       1.029  -0.210   0.935  0.00  0.00    +0.325 C 
ATOM     38  O   UNL     1       1.799   0.291   1.720  0.00  0.00    -0.249 OA
BRANCH  37  40
ATOM     39  C   UNL     1       0.580   1.972   0.148  0.00  0.00    +0.280 C 
ATOM     40  O   UNL     1       0.347   0.564   0.077  0.00  0.00    -0.467 OA
ENDBRANCH  37  40
ENDBRANCH   1  37
TORSDOF 7
