REMARK  Name = ZINC20909803
REMARK  9 active torsions:
REMARK  status: ('A' for Active; 'I' for Inactive)
REMARK    1  A    between atoms: C_1  and  O_2
REMARK    2  A    between atoms: O_2  and  C_3
REMARK    3  A    between atoms: C_8  and  C_9
REMARK    4  A    between atoms: N_12  and  C_21
REMARK    5  A    between atoms: C_21  and  C_22
REMARK    6  A    between atoms: C_22  and  N_23
REMARK    7  A    between atoms: C_24  and  C_26
REMARK    8  A    between atoms: C_26  and  C_28
REMARK    9  A    between atoms: C_26  and  N_34
REMARK                            x       y       z     vdW  Elec       q    Type
REMARK                         _______ _______ _______ _____ _____    ______ ____
ROOT
ATOM      1  C   UNL     1       0.098  -2.753  -0.057  0.00  0.00    +0.191 C 
ATOM      2  C   UNL     1       0.580  -2.905   1.368  0.00  0.00    -0.028 C 
ATOM      3  N   UNL     1       1.843  -3.626   1.495  0.00  0.00    +0.386 N 
ATOM      4  C   UNL     1       1.679  -5.046   1.167  0.00  0.00    -0.039 C 
ATOM      5  C   UNL     1       1.799  -5.217  -0.335  0.00  0.00    -0.022 A 
ATOM      6  C   UNL     1       2.888  -5.873  -0.871  0.00  0.00    +0.005 A 
ATOM      7  C   UNL     1       2.982  -6.039  -2.242  0.00  0.00    +0.000 A 
ATOM      8  C   UNL     1       1.986  -5.551  -3.069  0.00  0.00    +0.004 A 
ATOM      9  C   UNL     1       0.898  -4.889  -2.532  0.00  0.00    +0.046 A 
ATOM     10  C   UNL     1       0.810  -4.716  -1.158  0.00  0.00    +0.123 A 
ATOM     11  O   UNL     1      -0.236  -4.028  -0.620  0.00  0.00    -0.486 OA
ATOM     12  H   UNL     1       2.520  -3.218   0.868  0.00  0.00    -0.081 HD
ENDROOT
BRANCH   1  18
ATOM     13  C   UNL     1      -0.978  -0.489  -0.101  0.00  0.00    +0.127 A 
ATOM     14  C   UNL     1      -2.102   0.324  -0.124  0.00  0.00    +0.046 A 
ATOM     15  C   UNL     1      -3.362  -0.243  -0.116  0.00  0.00    +0.004 A 
ATOM     16  C   UNL     1      -3.503  -1.619  -0.086  0.00  0.00    +0.001 A 
ATOM     17  C   UNL     1      -2.384  -2.430  -0.063  0.00  0.00    +0.011 A 
ATOM     18  C   UNL     1      -1.121  -1.868  -0.076  0.00  0.00    +0.032 A 
BRANCH  13  20
ATOM     19  C   UNL     1       0.335   1.493  -0.135  0.00  0.00    +0.277 C 
ATOM     20  O   UNL     1       0.263   0.066  -0.109  0.00  0.00    -0.495 OA
ENDBRANCH  13  20
ENDBRANCH   1  18
BRANCH   3  21
ATOM     21  C   UNL     1       2.330  -3.503   2.875  0.00  0.00    -0.059 C 
BRANCH  21  22
ATOM     22  C   UNL     1       2.691  -2.044   3.161  0.00  0.00    +0.086 C 
BRANCH  22  23
ATOM     23  N   UNL     1       3.297  -1.942   4.491  0.00  0.00    -0.316 N 
ATOM     24  C   UNL     1       3.696  -0.743   4.960  0.00  0.00    +0.235 C 
ATOM     25  O   UNL     1       3.555   0.251   4.280  0.00  0.00    -0.274 OA
ATOM     26  H   UNL     1       3.410  -2.738   5.035  0.00  0.00    +0.149 HD
BRANCH  24  27
ATOM     27  C   UNL     1       4.319  -0.639   6.328  0.00  0.00    +0.175 C 
BRANCH  27  28
ATOM     28  C   UNL     1       3.236  -0.644   7.375  0.00  0.00    -0.003 A 
ATOM     29  C   UNL     1       2.943  -1.804   8.076  0.00  0.00    +0.008 A 
ATOM     30  C   UNL     1       1.938  -1.763   9.030  0.00  0.00    +0.020 A 
ATOM     31  C   UNL     1       1.266  -0.575   9.249  0.00  0.00    +0.111 A 
ATOM     32  N   UNL     1       1.571   0.509   8.563  0.00  0.00    -0.263 NA
ATOM     33  C   UNL     1       2.525   0.507   7.653  0.00  0.00    +0.116 A 
ENDBRANCH  27  28
BRANCH  27  34
ATOM     34  N   UNL     1       5.085   0.611   6.423  0.00  0.00    -0.288 NA
ATOM     35  C   UNL     1       5.766   0.720   7.738  0.00  0.00    +0.085 C 
ATOM     36  C   UNL     1       6.889   1.753   7.472  0.00  0.00    +0.017 C 
ATOM     37  C   UNL     1       7.348   1.404   6.037  0.00  0.00    +0.017 C 
ATOM     38  C   UNL     1       6.160   0.652   5.408  0.00  0.00    +0.085 C 
ENDBRANCH  27  34
ENDBRANCH  24  27
ENDBRANCH  22  23
ENDBRANCH  21  22
ENDBRANCH   3  21
TORSDOF 8
