REMARK  Name = ZINC04397993
REMARK  15 active torsions:
REMARK  status: ('A' for Active; 'I' for Inactive)
REMARK    1  A    between atoms: C_1  and  C_2
REMARK    2  A    between atoms: C_2  and  C_3
REMARK    3  A    between atoms: C_10  and  C_15
REMARK    4  A    between atoms: C_15  and  N_68
REMARK    5  A    between atoms: C_16  and  C_17
REMARK    6  A    between atoms: C_16  and  N_68
REMARK    7  A    between atoms: C_22  and  C_24
REMARK    8  A    between atoms: C_22  and  C_33
REMARK    9  A    between atoms: C_22  and  N_68
REMARK   10  A    between atoms: N_28  and  C_29
REMARK   11  A    between atoms: C_29  and  C_30
REMARK   12  A    between atoms: C_29  and  C_31
REMARK   13  A    between atoms: C_29  and  C_32
REMARK   14  A    between atoms: C_33  and  C_34
REMARK   15  A    between atoms: C_33  and  C_35
REMARK                            x       y       z     vdW  Elec       q    Type
REMARK                         _______ _______ _______ _____ _____    ______ ____
ROOT
ATOM      1  N   UNL     1       3.676  -1.217  -2.163  0.00  0.00    +0.392 N 
ATOM      2  H   UNL     1       3.216  -1.084  -3.071  0.00  0.00    -0.080 HD
ENDROOT
BRANCH   1   3
ATOM      3  C   UNL     1       5.127  -1.400  -2.381  0.00  0.00    -0.036 C 
BRANCH   3  11
ATOM      4  C   UNL     1       6.005  -4.237  -7.809  0.00  0.00    -0.047 A 
ATOM      5  C   UNL     1       6.046  -5.530  -7.304  0.00  0.00    +0.005 A 
ATOM      6  C   UNL     1       5.901  -5.763  -5.954  0.00  0.00    +0.026 A 
ATOM      7  C   UNL     1       5.712  -4.692  -5.085  0.00  0.00    +0.049 A 
ATOM      8  C   UNL     1       5.671  -3.383  -5.601  0.00  0.00    -0.001 A 
ATOM      9  C   UNL     1       5.820  -3.171  -6.975  0.00  0.00    +0.013 A 
ATOM     10  C   UNL     1       5.471  -2.263  -4.679  0.00  0.00    +0.017 A 
ATOM     11  C   UNL     1       5.333  -2.530  -3.357  0.00  0.00    +0.001 A 
ATOM     12  C   UNL     1       5.388  -3.861  -2.890  0.00  0.00    +0.251 A 
ATOM     13  O   UNL     1       5.266  -4.078  -1.697  0.00  0.00    -0.268 OA
ATOM     14  N   UNL     1       5.565  -4.896  -3.730  0.00  0.00    -0.322 N 
ATOM     15  H   UNL     1       5.591  -5.827  -3.366  0.00  0.00    +0.169 HD
BRANCH   4  17
ATOM     16  C   UNL     1       7.647  -3.817  -9.619  0.00  0.00    +0.009 C 
ATOM     17  C   UNL     1       6.165  -4.008  -9.290  0.00  0.00    +0.032 C 
ENDBRANCH   4  17
ENDBRANCH   3  11
ENDBRANCH   1   3
BRANCH   1  18
ATOM     18  C   UNL     1       3.108  -2.413  -1.507  0.00  0.00    -0.034 C 
BRANCH  18  19
ATOM     19  C   UNL     1       1.610  -2.386  -1.665  0.00  0.00    -0.027 A 
ATOM     20  C   UNL     1       0.862  -2.684  -2.755  0.00  0.00    +0.009 A 
ATOM     21  C   UNL     1      -0.515  -2.589  -2.670  0.00  0.00    +0.008 A 
ATOM     22  C   UNL     1      -1.075  -2.201  -1.498  0.00  0.00    +0.045 A 
ATOM     23  S   UNL     1       0.360  -1.962  -0.464  0.00  0.00    -0.103 S 
ENDBRANCH  18  19
ENDBRANCH   1  18
BRANCH   1  24
ATOM     24  C   UNL     1       3.439  -0.022  -1.326  0.00  0.00    +0.006 C 
BRANCH  24  25
ATOM     25  C   UNL     1       2.130   0.601  -1.740  0.00  0.00    +0.139 A 
ATOM     26  N   UNL     1       0.945   0.330  -1.252  0.00  0.00    -0.115 NA
ATOM     27  N   UNL     1       0.084   1.067  -1.864  0.00  0.00    -0.023 NA
ATOM     28  N   UNL     1       0.689   1.802  -2.730  0.00  0.00    -0.043 NA
ATOM     29  N   UNL     1       1.953   1.544  -2.684  0.00  0.00    -0.226 N 
BRANCH  29  30
ATOM     30  C   UNL     1       2.997   2.161  -3.506  0.00  0.00    +0.059 C 
ATOM     31  C   UNL     1       2.357   3.129  -4.503  0.00  0.00    +0.036 C 
ATOM     32  C   UNL     1       3.970   2.925  -2.605  0.00  0.00    +0.036 C 
ATOM     33  C   UNL     1       3.756   1.072  -4.268  0.00  0.00    +0.036 C 
ENDBRANCH  29  30
ENDBRANCH  24  25
BRANCH  24  34
ATOM     34  C   UNL     1       3.372  -0.411   0.152  0.00  0.00    -0.024 C 
ATOM     35  C   UNL     1       4.745  -0.906   0.611  0.00  0.00    +0.006 C 
ATOM     36  C   UNL     1       2.966   0.808   0.983  0.00  0.00    +0.006 C 
ENDBRANCH  24  34
ENDBRANCH   1  24
TORSDOF 9
