REMARK  Name = ZINC20816808
REMARK  7 active torsions:
REMARK  status: ('A' for Active; 'I' for Inactive)
REMARK    1  A    between atoms: C_3  and  O_8
REMARK    2  A    between atoms: O_8  and  C_9
REMARK    3  A    between atoms: C_9  and  C_10
REMARK    4  A    between atoms: C_10  and  O_12
REMARK    5  A    between atoms: O_12  and  C_13
REMARK    6  A    between atoms: C_13  and  C_14
REMARK    7  A    between atoms: N_19  and  C_20
REMARK                            x       y       z     vdW  Elec       q    Type
REMARK                         _______ _______ _______ _____ _____    ______ ____
ROOT
ATOM      1  C   UNL     1      -8.436   1.168   0.050  0.00  0.00    +0.258 C 
ATOM      2  O   UNL     1      -8.451   2.380   0.056  0.00  0.00    -0.272 OA
ATOM      3  N   UNL     1      -9.595   0.479   0.052  0.00  0.00    -0.237 N 
ATOM      4  C   UNL     1     -10.770   1.139   0.061  0.00  0.00    +0.306 C 
ATOM      5  O   UNL     1     -10.785   2.354   0.067  0.00  0.00    -0.252 OA
ATOM      6  N   UNL     1     -11.929   0.451   0.063  0.00  0.00    -0.294 N 
ATOM      7  H   UNL     1      -9.581  -0.621   0.046  0.00  0.00    +0.159 HD
ATOM      8  H   UNL     1     -11.915  -0.649   0.058  0.00  0.00    +0.151 HD
ENDROOT
BRANCH   6   9
ATOM      9  C   UNL     1     -13.206   1.167   0.073  0.00  0.00    +0.037 C 
ATOM     10  C   UNL     1     -13.292   2.039   1.327  0.00  0.00    +0.029 C 
ATOM     11  C   UNL     1     -14.627   2.788   1.338  0.00  0.00    -0.008 C 
ATOM     12  C   UNL     1     -15.777   1.779   1.338  0.00  0.00    +0.007 C 
ATOM     13  C   UNL     1     -15.691   0.907   0.084  0.00  0.00    -0.008 C 
ATOM     14  C   UNL     1     -14.357   0.159   0.074  0.00  0.00    +0.029 C 
ATOM     15  C   UNL     1     -15.789   1.792  -1.160  0.00  0.00    +0.007 C 
ATOM     16  C   UNL     1     -14.639   2.801  -1.161  0.00  0.00    -0.008 C 
ATOM     17  C   UNL     1     -14.725   3.673   0.093  0.00  0.00    +0.007 C 
ATOM     18  C   UNL     1     -13.305   2.052  -1.171  0.00  0.00    +0.029 C 
ENDBRANCH   6   9
BRANCH   1  19
ATOM     19  C   UNL     1      -7.122   0.430   0.040  0.00  0.00    +0.328 C 
BRANCH  19  20
ATOM     20  O   UNL     1      -6.030   1.388   0.039  0.00  0.00    -0.453 OA
BRANCH  20  21
ATOM     21  C   UNL     1      -4.783   0.890   0.030  0.00  0.00    +0.346 C 
ATOM     22  O   UNL     1      -4.610  -0.306   0.024  0.00  0.00    -0.247 OA
BRANCH  21  23
ATOM     23  C   UNL     1      -3.599   1.823   0.029  0.00  0.00    +0.349 C 
BRANCH  23  24
ATOM     24  O   UNL     1      -2.391   1.059   0.020  0.00  0.00    -0.481 OA
BRANCH  24  27
ATOM     25  C   UNL     1       1.174   1.783   0.000  0.00  0.00    +0.005 A 
ATOM     26  C   UNL     1      -0.013   1.076   0.008  0.00  0.00    +0.046 A 
ATOM     27  C   UNL     1      -1.223   1.753   0.017  0.00  0.00    +0.122 A 
ATOM     28  C   UNL     1      -1.239   3.141   0.029  0.00  0.00    +0.061 A 
ATOM     29  C   UNL     1      -0.049   3.844   0.022  0.00  0.00    +0.021 A 
ATOM     30  C   UNL     1       1.157   3.165   0.007  0.00  0.00    +0.015 A 
ATOM     31 BR   UNL     1      -0.069   5.735   0.031  0.00  0.00    -0.050 Br
ENDBRANCH  24  27
ENDBRANCH  23  24
ENDBRANCH  21  23
ENDBRANCH  20  21
ENDBRANCH  19  20
ENDBRANCH   1  19
TORSDOF 7
