REMARK  Name = ZINC21077395
REMARK  6 active torsions:
REMARK  status: ('A' for Active; 'I' for Inactive)
REMARK    1  A    between atoms: C_5  and  C_7
REMARK    2  A    between atoms: N_8  and  N_9
REMARK    3  A    between atoms: C_12  and  S_15
REMARK    4  A    between atoms: S_15  and  C_16
REMARK    5  A    between atoms: C_16  and  C_17
REMARK    6  A    between atoms: N_19  and  C_20
REMARK                            x       y       z     vdW  Elec       q    Type
REMARK                         _______ _______ _______ _____ _____    ______ ____
ROOT
ATOM      1  C   UNL     1       3.590   6.110   0.676  0.00  0.00    +0.228 C 
ATOM      2  O   UNL     1       4.634   5.553   0.413  0.00  0.00    -0.275 OA
ATOM      3  N   UNL     1       2.426   5.437   0.586  0.00  0.00    -0.284 N 
ATOM      4  H   UNL     1       1.473   5.962   0.751  0.00  0.00    +0.155 HD
ENDROOT
BRANCH   3   5
ATOM      5  C   UNL     1       2.429   4.080   0.285  0.00  0.00    +0.045 A 
ATOM      6  C   UNL     1       3.382   3.557  -0.589  0.00  0.00    +0.024 A 
ATOM      7  C   UNL     1       3.389   2.212  -0.891  0.00  0.00    +0.003 A 
ATOM      8  C   UNL     1       2.449   1.358  -0.332  0.00  0.00    +0.012 A 
ATOM      9  C   UNL     1       1.491   1.857   0.542  0.00  0.00    +0.035 A 
ATOM     10  C   UNL     1       1.476   3.230   0.856  0.00  0.00    +0.054 A 
ATOM     11  C   UNL     1       0.457   3.759   1.781  0.00  0.00    +0.196 C 
ATOM     12  O   UNL     1       0.575   4.872   2.255  0.00  0.00    -0.287 OA
ATOM     13  C   UNL     1      -0.711   2.918   2.127  0.00  0.00    +0.033 A 
ATOM     14  C   UNL     1      -1.820   3.472   2.756  0.00  0.00    +0.012 A 
ATOM     15  C   UNL     1      -2.914   2.671   3.054  0.00  0.00    +0.001 A 
ATOM     16  C   UNL     1      -2.900   1.322   2.747  0.00  0.00    +0.001 A 
ATOM     17  C   UNL     1      -1.801   0.755   2.127  0.00  0.00    +0.012 A 
ATOM     18  C   UNL     1      -0.701   1.546   1.809  0.00  0.00    +0.033 A 
ATOM     19  C   UNL     1       0.483   0.958   1.145  0.00  0.00    +0.195 C 
ATOM     20  O   UNL     1       0.623  -0.247   1.092  0.00  0.00    -0.287 OA
ENDBRANCH   3   5
BRANCH   1  21
ATOM     21  C   UNL     1       3.594   7.555   1.105  0.00  0.00    +0.173 C 
BRANCH  21  22
ATOM     22  S   UNL     1       5.299   8.174   1.128  0.00  0.00    -0.075 S 
BRANCH  22  26
ATOM     23  N   UNL     1       6.324  13.095   2.493  0.00  0.00    -0.205 N 
ATOM     24  C   UNL     1       5.619  11.933   2.214  0.00  0.00    +0.232 A 
ATOM     25  N   UNL     1       6.158  10.743   1.810  0.00  0.00    -0.186 NA
ATOM     26  C   UNL     1       5.136   9.852   1.642  0.00  0.00    +0.211 A 
ATOM     27  N   UNL     1       4.012  10.466   1.924  0.00  0.00    -0.144 NA
ATOM     28  N   UNL     1       4.319  11.783   2.292  0.00  0.00    -0.245 N 
ATOM     29  H   UNL     1       7.419  13.110   2.395  0.00  0.00    +0.177 HD
ATOM     30  H   UNL     1       3.686  12.626   2.606  0.00  0.00    +0.192 HD
BRANCH  23  32
ATOM     31  C   UNL     1       6.301  15.335   3.161  0.00  0.00    +0.141 C 
ATOM     32  N   UNL     1       5.641  14.248   2.900  0.00  0.00    -0.187 NA
BRANCH  31  37
ATOM     33  C   UNL     1       5.609  18.853   4.271  0.00  0.00    +0.001 A 
ATOM     34  C   UNL     1       4.231  18.831   4.394  0.00  0.00    +0.003 A 
ATOM     35  C   UNL     1       3.523  17.676   4.117  0.00  0.00    +0.039 A 
ATOM     36  C   UNL     1       4.189  16.534   3.714  0.00  0.00    +0.132 A 
ATOM     37  C   UNL     1       5.582  16.549   3.588  0.00  0.00    +0.030 A 
ATOM     38  C   UNL     1       6.289  17.720   3.876  0.00  0.00    +0.012 A 
ATOM     39  F   UNL     1       3.496  15.405   3.444  0.00  0.00    -0.205 F 
ENDBRANCH  31  37
ENDBRANCH  23  32
ENDBRANCH  22  26
ENDBRANCH  21  22
ENDBRANCH   1  21
TORSDOF 6
