REMARK  Name = ZINC30553339
REMARK  5 active torsions:
REMARK  status: ('A' for Active; 'I' for Inactive)
REMARK    1  A    between atoms: C_1  and  C_2
REMARK    2  A    between atoms: C_5  and  N_9
REMARK    3  A    between atoms: N_9  and  N_10
REMARK    4  A    between atoms: C_11  and  C_13
REMARK    5  A    between atoms: C_17  and  N_22
REMARK                            x       y       z     vdW  Elec       q    Type
REMARK                         _______ _______ _______ _____ _____    ______ ____
ROOT
ATOM      1  N   UNL     1       0.073  -4.876   1.187  0.00  0.00    -0.232 N 
ATOM      2  C   UNL     1       0.091  -6.224   1.179  0.00  0.00    +0.267 C 
ATOM      3  O   UNL     1       0.094  -6.825   0.121  0.00  0.00    -0.268 OA
ATOM      4  H   UNL     1       0.071  -4.396   2.030  0.00  0.00    +0.173 HD
ENDROOT
BRANCH   2   5
ATOM      5  C   UNL     1       0.107  -6.966   2.447  0.00  0.00    +0.076 A 
ATOM      6  C   UNL     1       0.132  -8.312   2.641  0.00  0.00    +0.029 A 
ATOM      7  C   UNL     1       0.144  -8.833   3.947  0.00  0.00    -0.008 A 
ATOM      8  C   UNL     1       0.169 -10.193   4.350  0.00  0.00    +0.041 A 
ATOM      9  C   UNL     1       0.177 -10.527   5.666  0.00  0.00    +0.127 A 
ATOM     10  C   UNL     1       0.162  -9.560   6.664  0.00  0.00    +0.034 A 
ATOM     11  C   UNL     1       0.138  -8.225   6.316  0.00  0.00    +0.018 A 
ATOM     12  C   UNL     1       0.129  -7.870   4.984  0.00  0.00    +0.020 A 
ATOM     13  S   UNL     1       0.108  -6.324   4.112  0.00  0.00    -0.084 S 
BRANCH   9  14
ATOM     14  N   UNL     1       0.203 -11.957   6.047  0.00  0.00    +0.056 N 
ATOM     15  O   UNL     1       0.216 -12.811   5.191  0.00  0.00    -0.126 OA
ATOM     16  O   UNL     1       0.211 -12.272   7.215  0.00  0.00    -0.126 OA
ENDBRANCH   9  14
ENDBRANCH   2   5
BRANCH   1  17
ATOM     17  N   UNL     1       0.058  -4.168  -0.022  0.00  0.00    -0.264 N 
ATOM     18  H   UNL     1       0.060  -4.648  -0.865  0.00  0.00    +0.170 HD
BRANCH  17  23
ATOM     19  C   UNL     1      -0.018   1.503   0.010  0.00  0.00    +0.045 C 
ATOM     20  C   UNL     1       0.002  -0.004   0.002  0.00  0.00    -0.032 A 
ATOM     21  C   UNL     1       0.006  -0.688  -1.200  0.00  0.00    +0.006 A 
ATOM     22  C   UNL     1       0.024  -2.068  -1.212  0.00  0.00    +0.025 A 
ATOM     23  C   UNL     1       0.040  -2.772  -0.013  0.00  0.00    +0.046 A 
ATOM     24  C   UNL     1       0.036  -2.083   1.193  0.00  0.00    +0.044 A 
ATOM     25  C   UNL     1       0.023  -0.701   1.197  0.00  0.00    +0.046 A 
ATOM     26 CL   UNL     1       0.026   0.161   2.704  0.00  0.00    -0.083 Cl
ENDBRANCH  17  23
ENDBRANCH   1  17
TORSDOF 4
