REMARK  Name = ZINC01368681
REMARK  7 active torsions:
REMARK  status: ('A' for Active; 'I' for Inactive)
REMARK    1  A    between atoms: C_1  and  C_2
REMARK    2  A    between atoms: C_7  and  C_29
REMARK    3  A    between atoms: C_10  and  C_12
REMARK    4  A    between atoms: C_12  and  S_13
REMARK    5  A    between atoms: S_13  and  C_14
REMARK    6  A    between atoms: C_19  and  C_27
REMARK    7  A    between atoms: C_19  and  C_28
REMARK                            x       y       z     vdW  Elec       q    Type
REMARK                         _______ _______ _______ _____ _____    ______ ____
ROOT
ATOM      1  C   UNL     1       3.161   0.556  -5.734  0.00  0.00    +0.193 A 
ATOM      2  N   UNL     1       3.011  -0.727  -6.006  0.00  0.00    -0.122 NA
ATOM      3  N   UNL     1       3.416  -0.977  -7.206  0.00  0.00    -0.128 NA
ATOM      4  C   UNL     1       3.858   0.110  -7.754  0.00  0.00    +0.166 A 
ATOM      5  N   UNL     1       3.682   1.136  -6.837  0.00  0.00    -0.296 N 
ATOM      6  C   UNL     1       4.028   2.523  -7.132  0.00  0.00    +0.048 C 
ATOM      7  C   UNL     1       5.219   2.579  -8.087  0.00  0.00    +0.064 C 
ATOM      8  C   UNL     1       5.068   1.634  -9.247  0.00  0.00    -0.034 A 
ATOM      9  C   UNL     1       4.436   0.395  -9.081  0.00  0.00    +0.023 A 
ATOM     10  C   UNL     1       4.362  -0.508 -10.132  0.00  0.00    +0.012 A 
ATOM     11  C   UNL     1       4.901  -0.170 -11.360  0.00  0.00    +0.001 A 
ATOM     12  C   UNL     1       5.504   1.063 -11.532  0.00  0.00    +0.000 A 
ATOM     13  C   UNL     1       5.587   1.961 -10.483  0.00  0.00    +0.004 A 
ATOM     14  C   UNL     1       4.385   3.245  -5.832  0.00  0.00    +0.035 C 
ATOM     15  C   UNL     1       2.825   3.211  -7.780  0.00  0.00    +0.035 C 
ENDROOT
BRANCH   1  16
ATOM     16  S   UNL     1       2.752   1.362  -4.221  0.00  0.00    -0.077 S 
BRANCH  16  17
ATOM     17  C   UNL     1       2.123  -0.047  -3.275  0.00  0.00    +0.173 C 
BRANCH  17  25
ATOM     18  C   UNL     1       1.768  -2.205  -2.497  0.00  0.00    +0.028 C 
ATOM     19  C   UNL     1       0.758  -1.792  -1.424  0.00  0.00    +0.073 C 
ATOM     20  C   UNL     1       1.038  -2.563  -0.131  0.00  0.00    +0.022 C 
ATOM     21  C   UNL     1       0.117  -2.046   0.977  0.00  0.00    +0.004 C 
ATOM     22  C   UNL     1       0.401  -0.563   1.228  0.00  0.00    +0.022 C 
ATOM     23  C   UNL     1       0.113   0.231  -0.050  0.00  0.00    +0.073 C 
ATOM     24  N   UNL     1       0.888  -0.353  -1.154  0.00  0.00    -0.295 N 
ATOM     25  C   UNL     1       1.701   0.416  -1.905  0.00  0.00    +0.226 C 
ATOM     26  O   UNL     1       2.093   1.481  -1.477  0.00  0.00    -0.275 OA
ATOM     27  C   UNL     1       0.526   1.691   0.150  0.00  0.00    +0.028 C 
ENDBRANCH  17  25
ENDBRANCH  16  17
ENDBRANCH   1  16
TORSDOF 3
