REMARK  Name = ZINC63393989
REMARK  9 active torsions:
REMARK  status: ('A' for Active; 'I' for Inactive)
REMARK    1  A    between atoms: C_1  and  C_2
REMARK    2  A    between atoms: C_2  and  O_3
REMARK    3  A    between atoms: O_3  and  C_4
REMARK    4  A    between atoms: C_7  and  C_10
REMARK    5  A    between atoms: C_11  and  C_27
REMARK    6  A    between atoms: C_12  and  C_21
REMARK    7  A    between atoms: N_28  and  C_29
REMARK    8  A    between atoms: C_29  and  C_30
REMARK    9  A    between atoms: C_30  and  C_31
REMARK                            x       y       z     vdW  Elec       q    Type
REMARK                         _______ _______ _______ _____ _____    ______ ____
ROOT
ATOM      1  C   UNL     1       0.975  -6.003  -1.906  0.00  0.00    +0.141 C 
ATOM      2  C   UNL     1       1.574  -6.487  -3.019  0.00  0.00    +0.023 C 
ATOM      3  C   UNL     1       1.786  -7.963  -3.213  0.00  0.00    +0.087 C 
ATOM      4  C   UNL     1       0.907  -8.743  -2.272  0.00  0.00    +0.007 A 
ATOM      5  C   UNL     1       0.679 -10.087  -2.510  0.00  0.00    +0.008 A 
ATOM      6  C   UNL     1      -0.124 -10.817  -1.655  0.00  0.00    +0.001 A 
ATOM      7  C   UNL     1      -0.703 -10.206  -0.558  0.00  0.00    +0.004 A 
ATOM      8  C   UNL     1      -0.480  -8.865  -0.316  0.00  0.00    +0.046 A 
ATOM      9  C   UNL     1       0.329  -8.128  -1.174  0.00  0.00    +0.133 A 
ATOM     10  O   UNL     1       0.543  -6.812  -0.921  0.00  0.00    -0.455 OA
ENDROOT
BRANCH   1  14
ATOM     11  C   UNL     1       0.456  -1.809  -1.506  0.00  0.00    +0.121 A 
ATOM     12  C   UNL     1       1.076  -2.530  -0.492  0.00  0.00    +0.046 A 
ATOM     13  C   UNL     1       1.246  -3.891  -0.618  0.00  0.00    +0.015 A 
ATOM     14  C   UNL     1       0.794  -4.547  -1.767  0.00  0.00    +0.018 A 
ATOM     15  C   UNL     1       0.172  -3.817  -2.784  0.00  0.00    +0.015 A 
ATOM     16  C   UNL     1       0.001  -2.457  -2.647  0.00  0.00    +0.046 A 
BRANCH  11  17
ATOM     17  O   UNL     1       0.291  -0.467  -1.378  0.00  0.00    -0.492 OA
BRANCH  17  19
ATOM     18  C   UNL     1       0.507   1.640  -0.215  0.00  0.00    +0.048 C 
ATOM     19  C   UNL     1       0.782   0.136  -0.179  0.00  0.00    +0.225 C 
ENDBRANCH  17  19
ENDBRANCH  11  17
ENDBRANCH   1  14
BRANCH   3  20
ATOM     20  C   UNL     1       3.229  -8.300  -2.940  0.00  0.00    -0.035 A 
ATOM     21  C   UNL     1       3.774  -8.049  -1.695  0.00  0.00    +0.004 A 
ATOM     22  C   UNL     1       5.097  -8.359  -1.444  0.00  0.00    +0.000 A 
ATOM     23  C   UNL     1       5.876  -8.920  -2.439  0.00  0.00    +0.000 A 
ATOM     24  C   UNL     1       5.331  -9.172  -3.684  0.00  0.00    +0.000 A 
ATOM     25  C   UNL     1       4.006  -8.867  -3.933  0.00  0.00    +0.004 A 
ENDBRANCH   3  20
BRANCH   2  26
ATOM     26  C   UNL     1       2.009  -5.590  -4.016  0.00  0.00    +0.086 C 
ATOM     27  N   UNL     1       2.527  -6.045  -5.121  0.00  0.00    -0.390 N 
ATOM     28  H   UNL     1       2.542  -6.999  -5.293  0.00  0.00    +0.159 HD
BRANCH  27  29
ATOM     29  C   UNL     1       3.087  -5.115  -6.105  0.00  0.00    +0.116 C 
BRANCH  29  30
ATOM     30  C   UNL     1       4.596  -5.340  -6.219  0.00  0.00    +0.054 C 
BRANCH  30  31
ATOM     31  C   UNL     1       5.190  -4.307  -7.141  0.00  0.00    -0.040 C 
ATOM     32  C   UNL     1       5.763  -3.134  -6.787  0.00  0.00    -0.001 A 
ATOM     33  C   UNL     1       5.993  -2.493  -5.487  0.00  0.00    +0.010 A 
ATOM     34  C   UNL     1       6.605  -1.288  -5.449  0.00  0.00    +0.001 A 
ATOM     35  C   UNL     1       7.023  -0.636  -6.618  0.00  0.00    +0.002 A 
ATOM     36  C   UNL     1       6.845  -1.162  -7.849  0.00  0.00    +0.026 A 
ATOM     37  C   UNL     1       6.213  -2.426  -8.006  0.00  0.00    +0.043 A 
ATOM     38  N   UNL     1       5.930  -3.134  -9.073  0.00  0.00    -0.380 N 
ATOM     39  C   UNL     1       5.273  -4.375  -8.650  0.00  0.00    +0.144 C 
ATOM     40  H   UNL     1       6.127  -2.881  -9.988  0.00  0.00    +0.160 HD
ENDBRANCH  30  31
ENDBRANCH  29  30
ENDBRANCH  27  29
ENDBRANCH   2  26
TORSDOF 8
