REMARK  Name = ZINC37976213
REMARK  4 active torsions:
REMARK  status: ('A' for Active; 'I' for Inactive)
REMARK    1  A    between atoms: C_1  and  C_2
REMARK    2  A    between atoms: C_5  and  C_7
REMARK    3  A    between atoms: C_7  and  C_9
REMARK    4  A    between atoms: C_7  and  N_10
REMARK                            x       y       z     vdW  Elec       q    Type
REMARK                         _______ _______ _______ _____ _____    ______ ____
ROOT
ATOM      1  N   UNL     1       2.811  -2.961  -0.914  0.00  0.00    -0.318 N 
ATOM      2  C   UNL     1       3.516  -4.008  -1.500  0.00  0.00    +0.138 A 
ATOM      3  C   UNL     1       4.590  -3.730  -2.342  0.00  0.00    +0.082 A 
ATOM      4  C   UNL     1       5.282  -4.781  -2.918  0.00  0.00    +0.045 A 
ATOM      5  C   UNL     1       4.875  -6.079  -2.632  0.00  0.00    +0.061 A 
ATOM      6  C   UNL     1       3.800  -6.280  -1.787  0.00  0.00    +0.133 A 
ATOM      7  N   UNL     1       3.163  -5.258  -1.248  0.00  0.00    -0.238 NA
ATOM      8 CL   UNL     1       5.708  -7.433  -3.329  0.00  0.00    -0.082 Cl
ATOM      9 CL   UNL     1       5.053  -2.089  -2.665  0.00  0.00    -0.080 Cl
ATOM     10  H   UNL     1       3.066  -2.043  -1.096  0.00  0.00    +0.148 HD
ENDROOT
BRANCH   1  11
ATOM     11  C   UNL     1       1.684  -3.245  -0.023  0.00  0.00    +0.135 C 
ATOM     12  C   UNL     1       2.205  -3.494   1.394  0.00  0.00    +0.036 C 
BRANCH  11  17
ATOM     13  C   UNL     1      -0.018   1.503   0.010  0.00  0.00    +0.086 C 
ATOM     14  C   UNL     1       0.002  -0.004   0.002  0.00  0.00    +0.102 A 
ATOM     15  C   UNL     1      -1.078  -0.805   0.003  0.00  0.00    +0.045 A 
ATOM     16  C   UNL     1      -0.601  -2.136  -0.007  0.00  0.00    +0.047 A 
ATOM     17  C   UNL     1       0.742  -2.069  -0.013  0.00  0.00    +0.125 A 
ATOM     18  O   UNL     1       1.102  -0.775  -0.013  0.00  0.00    -0.463 OA
ENDBRANCH  11  17
ENDBRANCH   1  11
TORSDOF 2
