REMARK  Name = ZINC05481221
REMARK  6 active torsions:
REMARK  status: ('A' for Active; 'I' for Inactive)
REMARK    1  A    between atoms: C_1  and  C_2
REMARK    2  A    between atoms: C_2  and  C_4
REMARK    3  A    between atoms: C_4  and  O_30
REMARK    4  A    between atoms: C_9  and  C_29
REMARK    5  A    between atoms: C_19  and  C_28
REMARK    6  A    between atoms: C_22  and  N_65
REMARK                            x       y       z     vdW  Elec       q    Type
REMARK                         _______ _______ _______ _____ _____    ______ ____
ROOT
ATOM      1  C   UNL     1       1.503  -6.267  -1.720  0.00  0.00    +0.129 C 
ATOM      2  C   UNL     1       2.478  -6.710  -0.599  0.00  0.00    +0.043 C 
ATOM      3  C   UNL     1       3.070  -5.406   0.012  0.00  0.00    +0.008 C 
ATOM      4  C   UNL     1       2.071  -4.344  -0.458  0.00  0.00    +0.002 C 
ATOM      5  C   UNL     1       1.815  -4.771  -1.916  0.00  0.00    +0.007 C 
ATOM      6  C   UNL     1       0.696  -3.938  -2.493  0.00  0.00    +0.010 C 
ATOM      7  C   UNL     1       1.071  -2.446  -2.394  0.00  0.00    +0.005 C 
ATOM      8  C   UNL     1       1.339  -2.033  -0.959  0.00  0.00    +0.003 C 
ATOM      9  C   UNL     1       2.421  -2.901  -0.304  0.00  0.00    +0.000 C 
ATOM     10  C   UNL     1       3.786  -2.492  -0.851  0.00  0.00    +0.031 C 
ATOM     11  C   UNL     1       4.024  -1.078  -0.363  0.00  0.00    -0.022 C 
ATOM     12  C   UNL     1       3.013  -0.223  -0.338  0.00  0.00    -0.044 C 
ATOM     13  C   UNL     1       1.615  -0.559  -0.770  0.00  0.00    -0.004 C 
ATOM     14  C   UNL     1       0.647   0.025   0.268  0.00  0.00    +0.017 C 
ATOM     15  C   UNL     1       0.812   1.536   0.371  0.00  0.00    +0.050 C 
ATOM     16  C   UNL     1       2.249   1.949   0.454  0.00  0.00    -0.009 C 
ATOM     17  C   UNL     1       3.269   1.151   0.140  0.00  0.00    +0.021 C 
ATOM     18  C   UNL     1       1.369   0.174  -2.088  0.00  0.00    +0.016 C 
ATOM     19  C   UNL     1       3.058  -4.688  -2.799  0.00  0.00    +0.015 C 
ENDROOT
BRANCH  16  24
ATOM     20  C   UNL     1       1.541   4.250   1.254  0.00  0.00    +0.085 C 
ATOM     21  C   UNL     1       2.317   5.529   1.633  0.00  0.00    +0.019 C 
ATOM     22  C   UNL     1       3.671   5.341   0.898  0.00  0.00    +0.019 C 
ATOM     23  C   UNL     1       3.881   3.812   1.020  0.00  0.00    +0.085 C 
ATOM     24  N   UNL     1       2.542   3.208   1.247  0.00  0.00    -0.396 NA
ATOM     25  H   UNL     1       2.564   2.877   2.219  0.00  0.00    +0.126 HD
ENDBRANCH  16  24
BRANCH   1  27
ATOM     26  C   UNL     1       0.722  -7.122  -4.056  0.00  0.00    +0.089 C 
ATOM     27  C   UNL     1       1.783  -7.021  -2.991  0.00  0.00    +0.162 C 
ATOM     28  O   UNL     1       2.858  -7.544  -3.158  0.00  0.00    -0.295 OA
ENDBRANCH   1  27
BRANCH   1  29
ATOM     29  O   UNL     1       0.150  -6.440  -1.310  0.00  0.00    -0.381 OA
ATOM     30  H   UNL     1      -0.104  -7.363  -1.171  0.00  0.00    +0.211 HD
ENDBRANCH   1  29
TORSDOF 3
