REMARK  Name = ZINC40822077
REMARK  8 active torsions:
REMARK  status: ('A' for Active; 'I' for Inactive)
REMARK    1  A    between atoms: C_1  and  C_2
REMARK    2  A    between atoms: C_6  and  C_7
REMARK    3  A    between atoms: C_7  and  O_9
REMARK    4  A    between atoms: O_9  and  C_10
REMARK    5  A    between atoms: N_20  and  N_21
REMARK    6  A    between atoms: C_22  and  C_24
REMARK    7  A    between atoms: C_24  and  O_25
REMARK    8  A    between atoms: O_25  and  C_26
REMARK                            x       y       z     vdW  Elec       q    Type
REMARK                         _______ _______ _______ _____ _____    ______ ____
ROOT
ATOM      1  C   UNL     1       0.107   1.494   0.003  0.00  0.00    +0.048 C 
ATOM      2  C   UNL     1       0.079  -0.013  -0.002  0.00  0.00    +0.011 A 
ATOM      3  C   UNL     1       0.070  -0.850  -1.124  0.00  0.00    +0.042 A 
ATOM      4  C   UNL     1       0.042  -2.148  -0.670  0.00  0.00    +0.115 A 
ATOM      5  O   UNL     1       0.038  -2.119   0.660  0.00  0.00    -0.452 OA
ATOM      6  C   UNL     1       0.064  -0.837   1.090  0.00  0.00    +0.215 A 
ATOM      7  C   UNL     1       0.019  -3.339  -1.594  0.00  0.00    +0.075 C 
ATOM      8  C   UNL     1      -0.478  -2.903  -2.975  0.00  0.00    +0.014 C 
ATOM      9  C   UNL     1       0.336  -1.712  -3.491  0.00  0.00    +0.058 C 
ATOM     10  C   UNL     1       0.086  -0.528  -2.568  0.00  0.00    +0.070 C 
ATOM     11  N   UNL     1      -0.099   0.676  -3.015  0.00  0.00    -0.184 NA
ENDROOT
BRANCH  11  12
ATOM     12  N   UNL     1      -0.073   0.923  -4.393  0.00  0.00    -0.204 N 
ATOM     13  C   UNL     1      -0.266   2.174  -4.858  0.00  0.00    +0.270 C 
ATOM     14  O   UNL     1      -0.462   3.085  -4.082  0.00  0.00    -0.270 OA
ATOM     15  H   UNL     1       0.084   0.194  -5.014  0.00  0.00    +0.177 HD
BRANCH  13  16
ATOM     16  C   UNL     1      -0.237   2.440  -6.341  0.00  0.00    +0.326 C 
BRANCH  16  17
ATOM     17  O   UNL     1      -0.465   3.830  -6.580  0.00  0.00    -0.481 OA
BRANCH  17  18
ATOM     18  C   UNL     1      -0.471   4.240  -7.876  0.00  0.00    +0.140 A 
ATOM     19  C   UNL     1      -0.268   3.323  -8.896  0.00  0.00    +0.048 A 
ATOM     20  C   UNL     1      -0.274   3.742 -10.212  0.00  0.00    +0.023 A 
ATOM     21  C   UNL     1      -0.484   5.076 -10.514  0.00  0.00    +0.043 A 
ATOM     22  C   UNL     1      -0.687   5.993  -9.499  0.00  0.00    +0.043 A 
ATOM     23  C   UNL     1      -0.687   5.577  -8.180  0.00  0.00    +0.084 A 
ATOM     24 CL   UNL     1      -0.949   6.727  -6.906  0.00  0.00    -0.080 Cl
ATOM     25 CL   UNL     1      -0.491   5.599 -12.169  0.00  0.00    -0.083 Cl
ENDBRANCH  17  18
ENDBRANCH  16  17
ENDBRANCH  13  16
ENDBRANCH  11  12
BRANCH   6  26
ATOM     26  C   UNL     1       0.071  -0.404   2.490  0.00  0.00    +0.380 C 
ATOM     27  O   UNL     1       0.092   0.782   2.759  0.00  0.00    -0.241 OA
BRANCH  26  28
ATOM     28  O   UNL     1       0.054  -1.320   3.480  0.00  0.00    -0.420 OA
BRANCH  28  29
ATOM     29  C   UNL     1       0.164  -0.878   4.760  0.00  0.00    +0.132 A 
ATOM     30  C   UNL     1      -0.929  -0.306   5.395  0.00  0.00    +0.046 A 
ATOM     31  C   UNL     1      -0.814   0.142   6.697  0.00  0.00    +0.004 A 
ATOM     32  C   UNL     1       0.389   0.021   7.367  0.00  0.00    +0.000 A 
ATOM     33  C   UNL     1       1.480  -0.548   6.737  0.00  0.00    +0.004 A 
ATOM     34  C   UNL     1       1.369  -1.003   5.437  0.00  0.00    +0.046 A 
ENDBRANCH  28  29
ENDBRANCH  26  28
ENDBRANCH   6  26
TORSDOF 7
