REMARK  Name = ZINC19412276
REMARK  3 active torsions:
REMARK  status: ('A' for Active; 'I' for Inactive)
REMARK    1  A    between atoms: C_5  and  N_7
REMARK    2  A    between atoms: N_10  and  C_13
REMARK    3  A    between atoms: C_13  and  C_14
REMARK                            x       y       z     vdW  Elec       q    Type
REMARK                         _______ _______ _______ _____ _____    ______ ____
ROOT
ATOM      1  C   UNL     1       2.383   1.431  -0.012  0.00  0.00    +0.003 A 
ATOM      2  C   UNL     1       1.173   2.113   0.002  0.00  0.00    +0.014 A 
ATOM      3  C   UNL     1      -0.017   1.407   0.010  0.00  0.00    +0.051 A 
ATOM      4  C   UNL     1       0.002  -0.004   0.002  0.00  0.00    +0.070 A 
ATOM      5  C   UNL     1       1.222  -0.678  -0.013  0.00  0.00    +0.038 A 
ATOM      6  C   UNL     1       2.412   0.053  -0.020  0.00  0.00    +0.023 A 
ATOM      7  C   UNL     1      -1.408  -0.428   0.013  0.00  0.00    +0.256 C 
ATOM      8  O   UNL     1      -1.803  -1.577   0.010  0.00  0.00    -0.269 OA
ATOM      9  N   UNL     1      -2.187   0.669   0.026  0.00  0.00    -0.229 N 
ATOM     10  C   UNL     1      -1.444   1.791   0.031  0.00  0.00    +0.254 C 
ATOM     11  O   UNL     1      -1.874   2.926   0.044  0.00  0.00    -0.270 OA
ENDROOT
BRANCH   5  12
ATOM     12  N   UNL     1       1.254  -2.065  -0.020  0.00  0.00    -0.357 N 
ATOM     13  H   UNL     1       2.219  -2.592  -0.032  0.00  0.00    +0.142 HD
ATOM     14  H   UNL     1       0.314  -2.637  -0.014  0.00  0.00    +0.142 HD
ENDBRANCH   5  12
BRANCH   9  15
ATOM     15  C   UNL     1      -3.652   0.645   0.040  0.00  0.00    +0.159 C 
BRANCH  15  16
ATOM     16  C   UNL     1      -4.141   0.629   1.465  0.00  0.00    +0.009 A 
ATOM     17  C   UNL     1      -4.430   1.672   2.280  0.00  0.00    +0.014 A 
ATOM     18  C   UNL     1      -4.874   1.417   3.564  0.00  0.00    +0.028 A 
ATOM     19  C   UNL     1      -4.996   0.130   3.974  0.00  0.00    +0.078 A 
ATOM     20  S   UNL     1      -4.483  -0.770   2.520  0.00  0.00    -0.080 S 
ATOM     21 CL   UNL     1      -5.516  -0.483   5.513  0.00  0.00    -0.076 Cl
ENDBRANCH  15  16
ENDBRANCH   9  15
TORSDOF 3
