REMARK  Name = ZINC48025077
REMARK  6 active torsions:
REMARK  status: ('A' for Active; 'I' for Inactive)
REMARK    1  A    between atoms: C_4  and  N_7
REMARK    2  A    between atoms: N_7  and  C_8
REMARK    3  A    between atoms: C_14  and  C_16
REMARK    4  A    between atoms: C_16  and  N_17
REMARK    5  A    between atoms: C_20  and  C_23
REMARK    6  A    between atoms: C_23  and  C_24
REMARK                            x       y       z     vdW  Elec       q    Type
REMARK                         _______ _______ _______ _____ _____    ______ ____
ROOT
ATOM      1  N   UNL     1       2.855  -0.424  -2.505  0.00  0.00    -0.297 N 
ATOM      2  C   UNL     1       2.343  -0.104  -3.710  0.00  0.00    +0.199 C 
ATOM      3  O   UNL     1       1.389   0.640  -3.785  0.00  0.00    -0.278 OA
ENDROOT
BRANCH   1   7
ATOM      4  C   UNL     1       0.039   1.508   0.052  0.00  0.00    +0.000 C 
ATOM      5  C   UNL     1       1.468   2.054   0.004  0.00  0.00    +0.002 C 
ATOM      6  C   UNL     1       2.157   1.570  -1.273  0.00  0.00    +0.022 C 
ATOM      7  C   UNL     1       2.196   0.040  -1.283  0.00  0.00    +0.076 C 
ATOM      8  C   UNL     1       0.767  -0.507  -1.235  0.00  0.00    +0.022 C 
ATOM      9  C   UNL     1       0.078  -0.022   0.043  0.00  0.00    +0.002 C 
ENDBRANCH   1   7
BRANCH   1  10
ATOM     10  C   UNL     1       4.071  -1.236  -2.418  0.00  0.00    +0.076 C 
ATOM     11  C   UNL     1       3.803  -2.465  -1.548  0.00  0.00    +0.022 C 
ATOM     12  C   UNL     1       5.073  -3.313  -1.457  0.00  0.00    +0.002 C 
ATOM     13  C   UNL     1       6.197  -2.483  -0.834  0.00  0.00    +0.000 C 
ATOM     14  C   UNL     1       6.466  -1.254  -1.705  0.00  0.00    +0.002 C 
ATOM     15  C   UNL     1       5.196  -0.406  -1.796  0.00  0.00    +0.022 C 
ENDBRANCH   1  10
BRANCH   2  16
ATOM     16  C   UNL     1       2.958  -0.671  -4.965  0.00  0.00    +0.019 C 
BRANCH  16  17
ATOM     17  N   UNL     1       2.320  -0.062  -6.140  0.00  0.00    +0.385 N 
ATOM     18  C   UNL     1       2.618   1.375  -6.167  0.00  0.00    -0.078 C 
ATOM     19  C   UNL     1       1.891   2.029  -7.344  0.00  0.00    -0.015 C 
ATOM     20  C   UNL     1       2.362   1.383  -8.650  0.00  0.00    -0.006 C 
ATOM     21  C   UNL     1       2.114  -0.126  -8.581  0.00  0.00    -0.015 C 
ATOM     22  C   UNL     1       2.834  -0.700  -7.358  0.00  0.00    -0.078 C 
ATOM     23  H   UNL     1       1.322  -0.196  -6.087  0.00  0.00    -0.081 HD
BRANCH  20  24
ATOM     24  C   UNL     1       1.581   1.977  -9.825  0.00  0.00    +0.099 C 
BRANCH  24  25
ATOM     25  C   UNL     1       2.129   1.432 -11.118  0.00  0.00    +0.211 C 
ATOM     26  O   UNL     1       3.054   0.647 -11.103  0.00  0.00    -0.276 OA
ATOM     27  N   UNL     1       1.592   1.818 -12.293  0.00  0.00    -0.329 N 
ATOM     28  H   UNL     1       0.853   2.446 -12.305  0.00  0.00    +0.145 HD
ATOM     29  H   UNL     1       1.945   1.468 -13.126  0.00  0.00    +0.145 HD
ENDBRANCH  24  25
ENDBRANCH  20  24
ENDBRANCH  16  17
ENDBRANCH   2  16
TORSDOF 6
