REMARK  Name = ZINC03075070
REMARK  9 active torsions:
REMARK  status: ('A' for Active; 'I' for Inactive)
REMARK    1  A    between atoms: C_2  and  C_8
REMARK    2  A    between atoms: N_9  and  N_10
REMARK    3  A    between atoms: C_11  and  C_13
REMARK    4  A    between atoms: C_13  and  C_14
REMARK    5  A    between atoms: C_14  and  C_15
REMARK    6  A    between atoms: C_15  and  C_16
REMARK    7  A    between atoms: C_16  and  C_17
REMARK    8  A    between atoms: N_19  and  N_20
REMARK    9  A    between atoms: C_21  and  C_22
REMARK                            x       y       z     vdW  Elec       q    Type
REMARK                         _______ _______ _______ _____ _____    ______ ____
ROOT
ATOM      1  C   UNL     1       4.866   8.333  -0.001  0.00  0.00    +0.010 C 
ENDROOT
BRANCH   1   2
ATOM      2  C   UNL     1       3.428   7.811   0.010  0.00  0.00    +0.097 C 
BRANCH   2   4
ATOM      3  N   UNL     1       2.279   5.620   0.009  0.00  0.00    -0.207 N 
ATOM      4  C   UNL     1       3.441   6.304   0.002  0.00  0.00    +0.232 C 
ATOM      5  O   UNL     1       4.496   5.707  -0.011  0.00  0.00    -0.274 OA
ATOM      6  H   UNL     1       1.435   6.098   0.020  0.00  0.00    +0.177 HD
BRANCH   3   8
ATOM      7  C   UNL     1       1.173   3.561   0.009  0.00  0.00    +0.138 C 
ATOM      8  N   UNL     1       2.291   4.220   0.002  0.00  0.00    -0.188 NA
BRANCH   7  10
ATOM      9  C   UNL     1      -0.017   1.375   0.010  0.00  0.00    +0.010 A 
ATOM     10  C   UNL     1       1.185   2.087   0.002  0.00  0.00    -0.005 A 
ATOM     11  C   UNL     1       2.399   1.395  -0.013  0.00  0.00    +0.010 A 
ATOM     12  C   UNL     1       2.404   0.016  -0.021  0.00  0.00    +0.016 A 
ATOM     13  C   UNL     1       1.209  -0.683  -0.014  0.00  0.00    +0.018 A 
ATOM     14  C   UNL     1       0.002  -0.004   0.002  0.00  0.00    +0.016 A 
ATOM     15 BR   UNL     1       1.225  -2.574  -0.025  0.00  0.00    -0.050 Br
ENDBRANCH   7  10
ENDBRANCH   3   8
ENDBRANCH   2   4
ENDBRANCH   1   2
BRANCH   1  16
ATOM     16  C   UNL     1       4.853   9.863   0.007  0.00  0.00    +0.010 C 
BRANCH  16  17
ATOM     17  C   UNL     1       6.291  10.386  -0.004  0.00  0.00    +0.097 C 
BRANCH  17  18
ATOM     18  C   UNL     1       6.279  11.892   0.004  0.00  0.00    +0.232 C 
ATOM     19  O   UNL     1       5.223  12.490   0.017  0.00  0.00    -0.274 OA
ATOM     20  N   UNL     1       7.440  12.576  -0.004  0.00  0.00    -0.207 N 
ATOM     21  H   UNL     1       8.284  12.098  -0.014  0.00  0.00    +0.177 HD
BRANCH  20  22
ATOM     22  N   UNL     1       7.428  13.977   0.004  0.00  0.00    -0.188 NA
ATOM     23  C   UNL     1       8.546  14.635  -0.004  0.00  0.00    +0.138 C 
BRANCH  23  24
ATOM     24  C   UNL     1       8.534  16.110   0.004  0.00  0.00    -0.005 A 
ATOM     25  C   UNL     1       7.320  16.801   0.025  0.00  0.00    +0.010 A 
ATOM     26  C   UNL     1       7.316  18.180   0.032  0.00  0.00    +0.016 A 
ATOM     27  C   UNL     1       8.511  18.880   0.019  0.00  0.00    +0.018 A 
ATOM     28  C   UNL     1       9.717  18.201  -0.002  0.00  0.00    +0.016 A 
ATOM     29  C   UNL     1       9.736  16.822  -0.004  0.00  0.00    +0.010 A 
ATOM     30 BR   UNL     1       8.495  20.771   0.029  0.00  0.00    -0.050 Br
ENDBRANCH  23  24
ENDBRANCH  20  22
ENDBRANCH  17  18
ENDBRANCH  16  17
ENDBRANCH   1  16
TORSDOF 9
