REMARK  Name = ZINC21148755
REMARK  15 active torsions:
REMARK  status: ('A' for Active; 'I' for Inactive)
REMARK    1  A    between atoms: C_1  and  C_2
REMARK    2  A    between atoms: C_2  and  N_3
REMARK    3  A    between atoms: N_3  and  C_4
REMARK    4  A    between atoms: N_3  and  C_6
REMARK    5  A    between atoms: C_4  and  C_5
REMARK    6  A    between atoms: C_6  and  C_7
REMARK    7  A    between atoms: C_7  and  C_8
REMARK    8  A    between atoms: C_8  and  N_9
REMARK    9  A    between atoms: N_9  and  C_10
REMARK   10  A    between atoms: C_11  and  S_25
REMARK   11  A    between atoms: C_13  and  S_15
REMARK   12  A    between atoms: S_15  and  C_18
REMARK   13  A    between atoms: C_21  and  C_24
REMARK   14  A    between atoms: S_25  and  C_28
REMARK   15  A    between atoms: C_31  and  C_34
REMARK                            x       y       z     vdW  Elec       q    Type
REMARK                         _______ _______ _______ _____ _____    ______ ____
ROOT
ATOM      1  C   UNL     1       0.836  -1.848  -1.424  0.00  0.00    +0.113 A 
ATOM      2  C   UNL     1       1.443  -2.502  -2.456  0.00  0.00    +0.212 A 
ATOM      3  N   UNL     1       1.456  -3.819  -2.472  0.00  0.00    -0.201 NA
ATOM      4  C   UNL     1       0.895  -4.524  -1.514  0.00  0.00    +0.224 A 
ATOM      5  S   UNL     1       0.274  -3.234  -0.444  0.00  0.00    -0.032 S 
ENDROOT
BRANCH   4   6
ATOM      6  S   UNL     1       0.791  -6.274  -1.331  0.00  0.00    +0.049 S 
ATOM      7  O   UNL     1      -0.333  -6.529  -0.501  0.00  0.00    -0.162 OA
ATOM      8  O   UNL     1       0.917  -6.827  -2.634  0.00  0.00    -0.162 OA
BRANCH   6   9
ATOM      9  C   UNL     1       2.213  -6.788  -0.426  0.00  0.00    +0.096 A 
ATOM     10  C   UNL     1       3.370  -7.139  -1.096  0.00  0.00    +0.028 A 
ATOM     11  C   UNL     1       4.486  -7.539  -0.386  0.00  0.00    +0.005 A 
ATOM     12  C   UNL     1       4.443  -7.596   0.995  0.00  0.00    -0.050 A 
ATOM     13  C   UNL     1       3.284  -7.251   1.665  0.00  0.00    +0.005 A 
ATOM     14  C   UNL     1       2.169  -6.847   0.955  0.00  0.00    +0.028 A 
ATOM     15  C   UNL     1       5.659  -8.036   1.769  0.00  0.00    +0.044 C 
ENDBRANCH   6   9
ENDBRANCH   4   6
BRANCH   2  16
ATOM     16  S   UNL     1       2.205  -1.592  -3.758  0.00  0.00    +0.044 S 
ATOM     17  O   UNL     1       2.233  -2.449  -4.891  0.00  0.00    -0.163 OA
ATOM     18  O   UNL     1       1.579  -0.316  -3.782  0.00  0.00    -0.163 OA
BRANCH  16  19
ATOM     19  C   UNL     1       3.882  -1.320  -3.291  0.00  0.00    +0.095 A 
ATOM     20  C   UNL     1       4.227  -0.185  -2.580  0.00  0.00    +0.028 A 
ATOM     21  C   UNL     1       5.542   0.026  -2.210  0.00  0.00    +0.005 A 
ATOM     22  C   UNL     1       6.514  -0.893  -2.559  0.00  0.00    -0.050 A 
ATOM     23  C   UNL     1       6.170  -2.025  -3.274  0.00  0.00    +0.005 A 
ATOM     24  C   UNL     1       4.855  -2.238  -3.641  0.00  0.00    +0.028 A 
ATOM     25  C   UNL     1       7.948  -0.661  -2.159  0.00  0.00    +0.044 C 
ENDBRANCH  16  19
ENDBRANCH   2  16
BRANCH   1  26
ATOM     26  N   UNL     1       0.699  -0.477  -1.193  0.00  0.00    -0.336 N 
ATOM     27  H   UNL     1       1.117   0.246  -1.909  0.00  0.00    +0.147 HD
BRANCH  26  28
ATOM     28  C   UNL     1      -0.003  -0.002   0.002  0.00  0.00    +0.100 C 
BRANCH  28  29
ATOM     29  C   UNL     1      -0.013   1.528   0.014  0.00  0.00    +0.000 C 
BRANCH  29  30
ATOM     30  C   UNL     1      -0.746   2.024   1.262  0.00  0.00    -0.077 C 
BRANCH  30  31
ATOM     31  N   UNL     1      -0.649   3.488   1.337  0.00  0.00    +0.379 N 
ATOM     32  H   UNL     1       0.380   3.772   1.071  0.00  0.00    -0.082 HD
BRANCH  31  34
ATOM     33  C   UNL     1      -1.254   5.623   0.303  0.00  0.00    -0.017 C 
ATOM     34  C   UNL     1      -1.557   4.126   0.375  0.00  0.00    -0.082 C 
ENDBRANCH  31  34
BRANCH  31  35
ATOM     35  C   UNL     1      -0.910   3.963   2.703  0.00  0.00    -0.082 C 
ATOM     36  C   UNL     1       0.311   3.685   3.582  0.00  0.00    -0.017 C 
ENDBRANCH  31  35
ENDBRANCH  30  31
ENDBRANCH  29  30
ENDBRANCH  28  29
ENDBRANCH  26  28
ENDBRANCH   1  26
TORSDOF 11
