REMARK  Name = ZINC39793513
REMARK  6 active torsions:
REMARK  status: ('A' for Active; 'I' for Inactive)
REMARK    1  A    between atoms: C_1  and  O_2
REMARK    2  A    between atoms: O_2  and  C_3
REMARK    3  A    between atoms: C_6  and  C_9
REMARK    4  A    between atoms: N_15  and  C_24
REMARK    5  A    between atoms: C_19  and  N_23
REMARK    6  A    between atoms: C_20  and  C_21
REMARK                            x       y       z     vdW  Elec       q    Type
REMARK                         _______ _______ _______ _____ _____    ______ ____
ROOT
ATOM      1  C   UNL     1       2.562  -2.631  -4.101  0.00  0.00    +0.092 C 
ATOM      2  C   UNL     1       1.555  -3.402  -4.984  0.00  0.00    +0.181 C 
ATOM      3  C   UNL     1       0.130  -2.991  -4.723  0.00  0.00    +0.247 C 
ATOM      4  O   UNL     1      -0.350  -1.884  -4.840  0.00  0.00    -0.273 OA
ATOM      5  N   UNL     1      -0.499  -4.122  -4.331  0.00  0.00    -0.220 N 
ATOM      6  C   UNL     1       0.363  -5.142  -4.198  0.00  0.00    +0.152 C 
ATOM      7  S   UNL     1      -0.105  -6.762  -3.902  0.00  0.00    -0.017 S 
ATOM      8  N   UNL     1       1.649  -4.745  -4.341  0.00  0.00    -0.257 N 
ATOM      9  C   UNL     1       2.986  -4.924  -4.068  0.00  0.00    +0.104 C 
ATOM     10  C   UNL     1       3.610  -3.719  -3.869  0.00  0.00    +0.074 C 
ENDROOT
BRANCH   1  14
ATOM     11  C   UNL     1       0.769  -1.399  -0.422  0.00  0.00    +0.120 A 
ATOM     12  C   UNL     1       1.354  -0.460  -1.259  0.00  0.00    +0.046 A 
ATOM     13  C   UNL     1       1.933  -0.861  -2.447  0.00  0.00    +0.008 A 
ATOM     14  C   UNL     1       1.930  -2.197  -2.803  0.00  0.00    -0.037 A 
ATOM     15  C   UNL     1       1.347  -3.135  -1.971  0.00  0.00    +0.008 A 
ATOM     16  C   UNL     1       0.772  -2.740  -0.779  0.00  0.00    +0.046 A 
BRANCH  11  18
ATOM     17  C   UNL     1       0.233   0.389   1.050  0.00  0.00    +0.277 C 
ATOM     18  O   UNL     1       0.200  -1.008   0.748  0.00  0.00    -0.495 OA
ENDBRANCH  11  18
ENDBRANCH   1  14
BRANCH   5  19
ATOM     19  C   UNL     1      -1.877  -4.216  -4.093  0.00  0.00    +0.043 A 
ATOM     20  C   UNL     1      -2.348  -4.433  -2.805  0.00  0.00    +0.024 A 
ATOM     21  C   UNL     1      -3.706  -4.526  -2.574  0.00  0.00    +0.002 A 
ATOM     22  C   UNL     1      -4.598  -4.404  -3.624  0.00  0.00    +0.000 A 
ATOM     23  C   UNL     1      -4.132  -4.188  -4.908  0.00  0.00    +0.002 A 
ATOM     24  C   UNL     1      -2.775  -4.088  -5.145  0.00  0.00    +0.024 A 
ENDBRANCH   5  19
BRANCH   9  25
ATOM     25  N   UNL     1       3.611  -6.146  -4.002  0.00  0.00    -0.345 N 
ATOM     26  H   UNL     1       3.104  -6.959  -4.154  0.00  0.00    +0.144 HD
ATOM     27  H   UNL     1       4.559  -6.195  -3.804  0.00  0.00    +0.144 HD
ENDBRANCH   9  25
BRANCH  10  28
ATOM     28  C   UNL     1       4.983  -3.517  -3.515  0.00  0.00    +0.099 C 
ATOM     29  N   UNL     1       6.071  -3.357  -3.233  0.00  0.00    -0.191 NA
ENDBRANCH  10  28
TORSDOF 5
