REMARK  Name = ZINC21975735
REMARK  6 active torsions:
REMARK  status: ('A' for Active; 'I' for Inactive)
REMARK    1  A    between atoms: C_1  and  C_2
REMARK    2  A    between atoms: C_2  and  C_4
REMARK    3  A    between atoms: C_2  and  O_18
REMARK    4  A    between atoms: C_14  and  O_16
REMARK    5  A    between atoms: O_16  and  C_17
REMARK    6  A    between atoms: O_18  and  C_19
REMARK                            x       y       z     vdW  Elec       q    Type
REMARK                         _______ _______ _______ _____ _____    ______ ____
ROOT
ATOM      1  C   UNL     1       0.239  -1.564  -2.082  0.00  0.00    +0.260 C 
ATOM      2  O   UNL     1       0.926  -2.247  -2.812  0.00  0.00    -0.271 OA
ATOM      3  N   UNL     1       0.683  -0.360  -1.670  0.00  0.00    -0.268 N 
ATOM      4  C   UNL     1      -0.184   0.527  -0.882  0.00  0.00    +0.114 C 
ATOM      5  C   UNL     1      -0.050   1.943  -1.456  0.00  0.00    +0.024 C 
ATOM      6  C   UNL     1       1.392   2.416  -1.275  0.00  0.00    +0.038 C 
ATOM      7  C   UNL     1       2.355   1.391  -1.814  0.00  0.00    -0.022 A 
ATOM      8  C   UNL     1       1.983   0.067  -1.985  0.00  0.00    +0.040 A 
ATOM      9  C   UNL     1       2.898  -0.858  -2.474  0.00  0.00    +0.027 A 
ATOM     10  C   UNL     1       4.181  -0.460  -2.795  0.00  0.00    +0.047 A 
ATOM     11  C   UNL     1       4.554   0.866  -2.628  0.00  0.00    +0.120 A 
ATOM     12  C   UNL     1       3.642   1.787  -2.138  0.00  0.00    +0.051 A 
ENDROOT
BRANCH   1  14
ATOM     13  C   UNL     1      -1.086  -2.331  -0.131  0.00  0.00    +0.062 C 
ATOM     14  C   UNL     1      -1.112  -2.061  -1.637  0.00  0.00    +0.256 C 
BRANCH  14  15
ATOM     15  O   UNL     1      -1.428  -3.269  -2.331  0.00  0.00    -0.480 OA
BRANCH  15  16
ATOM     16  C   UNL     1      -2.745  -3.575  -2.472  0.00  0.00    +0.122 A 
ATOM     17  C   UNL     1      -3.127  -4.668  -3.236  0.00  0.00    +0.047 A 
ATOM     18  C   UNL     1      -4.466  -4.980  -3.372  0.00  0.00    +0.019 A 
ATOM     19  C   UNL     1      -5.426  -4.196  -2.757  0.00  0.00    +0.018 A 
ATOM     20  C   UNL     1      -5.047  -3.102  -2.000  0.00  0.00    +0.019 A 
ATOM     21  C   UNL     1      -3.709  -2.790  -1.856  0.00  0.00    +0.047 A 
ATOM     22 BR   UNL     1      -7.258  -4.621  -2.951  0.00  0.00    -0.050 Br
ENDBRANCH  15  16
ENDBRANCH  14  15
ENDBRANCH   1  14
BRANCH  11  23
ATOM     23  O   UNL     1       5.816   1.261  -2.945  0.00  0.00    -0.495 OA
ATOM     24  C   UNL     1       6.704   0.259  -3.444  0.00  0.00    +0.277 C 
ENDBRANCH  11  23
TORSDOF 4
