REMARK  Name = ZINC11386838
REMARK  8 active torsions:
REMARK  status: ('A' for Active; 'I' for Inactive)
REMARK    1  A    between atoms: C_1  and  C_2
REMARK    2  A    between atoms: C_2  and  C_3
REMARK    3  A    between atoms: C_3  and  N_4
REMARK    4  A    between atoms: C_14  and  S_15
REMARK    5  A    between atoms: S_15  and  C_16
REMARK    6  A    between atoms: C_16  and  C_17
REMARK    7  A    between atoms: N_19  and  C_20
REMARK    8  A    between atoms: C_20  and  C_27
REMARK                            x       y       z     vdW  Elec       q    Type
REMARK                         _______ _______ _______ _____ _____    ______ ____
ROOT
ATOM      1  N   UNL     1       2.332   1.481  -0.012  0.00  0.00    -0.287 N 
ATOM      2  C   UNL     1       2.472   0.135  -0.021  0.00  0.00    +0.262 A 
ATOM      3  O   UNL     1       3.572  -0.385  -0.035  0.00  0.00    -0.267 OA
ATOM      4  C   UNL     1       1.246  -0.675  -0.013  0.00  0.00    +0.066 A 
ATOM      5  C   UNL     1       1.285  -2.069  -0.021  0.00  0.00    +0.030 A 
ATOM      6  C   UNL     1       0.103  -2.778  -0.014  0.00  0.00    +0.019 A 
ATOM      7  C   UNL     1      -1.119  -2.116   0.001  0.00  0.00    +0.017 A 
ATOM      8  C   UNL     1      -1.179  -0.752   0.009  0.00  0.00    +0.029 A 
ATOM      9  C   UNL     1       0.002  -0.004   0.002  0.00  0.00    +0.079 A 
ATOM     10  N   UNL     1      -0.016   1.350   0.009  0.00  0.00    -0.223 NA
ATOM     11  C   UNL     1       1.091   2.050   0.003  0.00  0.00    +0.173 A 
ATOM     12 BR   UNL     1       0.145  -4.669  -0.024  0.00  0.00    -0.050 Br
ENDROOT
BRANCH   1  13
ATOM     13  C   UNL     1       3.523   2.335  -0.019  0.00  0.00    +0.127 C 
BRANCH  13  15
ATOM     14  C   UNL     1       5.167   3.531  -1.471  0.00  0.00    +0.005 C 
ATOM     15  C   UNL     1       3.924   2.640  -1.464  0.00  0.00    +0.018 C 
ENDBRANCH  13  15
ENDBRANCH   1  13
BRANCH  11  16
ATOM     16  S   UNL     1       0.973   3.808   0.013  0.00  0.00    -0.078 S 
BRANCH  16  17
ATOM     17  C   UNL     1      -0.827   4.002   0.030  0.00  0.00    +0.173 C 
BRANCH  17  18
ATOM     18  C   UNL     1      -1.174   5.468   0.041  0.00  0.00    +0.224 C 
ATOM     19  O   UNL     1      -0.291   6.301   0.037  0.00  0.00    -0.275 OA
ATOM     20  N   UNL     1      -2.465   5.855   0.055  0.00  0.00    -0.308 N 
ATOM     21  H   UNL     1      -3.170   5.190   0.058  0.00  0.00    +0.149 HD
BRANCH  20  22
ATOM     22  C   UNL     1      -2.802   7.281   0.065  0.00  0.00    +0.052 C 
ATOM     23  C   UNL     1      -4.331   7.444   0.081  0.00  0.00    +0.049 C 
ATOM     24  C   UNL     1      -4.846   7.048   1.494  0.00  0.00    +0.168 C 
ATOM     25  S   UNL     1      -3.548   7.814   2.553  0.00  0.00    -0.029 S 
ATOM     26  O   UNL     1      -3.965   9.121   2.922  0.00  0.00    -0.174 OA
ATOM     27  O   UNL     1      -3.170   6.889   3.563  0.00  0.00    -0.174 OA
ATOM     28  C   UNL     1      -2.188   7.945   1.321  0.00  0.00    +0.191 C 
ATOM     29  C   UNL     1      -2.233   7.947  -1.189  0.00  0.00    +0.033 C 
ENDBRANCH  20  22
ENDBRANCH  17  18
ENDBRANCH  16  17
ENDBRANCH  11  16
TORSDOF 6
