REMARK  Name = ZINC59645468
REMARK  7 active torsions:
REMARK  status: ('A' for Active; 'I' for Inactive)
REMARK    1  A    between atoms: C_4  and  C_7
REMARK    2  A    between atoms: C_7  and  O_8
REMARK    3  A    between atoms: O_8  and  C_9
REMARK    4  A    between atoms: C_12  and  C_16
REMARK    5  A    between atoms: N_17  and  N_18
REMARK    6  A    between atoms: C_19  and  C_21
REMARK    7  A    between atoms: C_21  and  C_22
REMARK                            x       y       z     vdW  Elec       q    Type
REMARK                         _______ _______ _______ _____ _____    ______ ____
ROOT
ATOM      1  C   UNL     1       5.318  -1.605   1.466  0.00  0.00    +0.135 A 
ATOM      2  C   UNL     1       6.046  -2.006   0.354  0.00  0.00    +0.047 A 
ATOM      3  C   UNL     1       7.241  -2.674   0.514  0.00  0.00    +0.013 A 
ATOM      4  C   UNL     1       7.720  -2.948   1.798  0.00  0.00    -0.004 A 
ATOM      5  C   UNL     1       6.985  -2.542   2.914  0.00  0.00    +0.028 A 
ATOM      6  C   UNL     1       5.793  -1.869   2.745  0.00  0.00    +0.060 A 
ATOM      7 BR   UNL     1       4.801  -1.312   4.255  0.00  0.00    -0.046 Br
ENDROOT
BRANCH   4   8
ATOM      8  C   UNL     1       8.997  -3.663   1.973  0.00  0.00    +0.138 C 
ATOM      9  N   UNL     1       9.441  -3.916   3.166  0.00  0.00    -0.188 NA
BRANCH   9  10
ATOM     10  N   UNL     1      10.655  -4.595   3.333  0.00  0.00    -0.207 N 
ATOM     11  C   UNL     1      11.115  -4.858   4.572  0.00  0.00    +0.238 C 
ATOM     12  O   UNL     1      10.478  -4.506   5.543  0.00  0.00    -0.274 OA
ATOM     13  H   UNL     1      11.164  -4.877   2.557  0.00  0.00    +0.177 HD
BRANCH  11  14
ATOM     14  C   UNL     1      12.421  -5.589   4.752  0.00  0.00    +0.153 C 
BRANCH  14  15
ATOM     15  C   UNL     1      12.706  -5.755   6.222  0.00  0.00    +0.059 A 
ATOM     16  C   UNL     1      12.947  -6.973   6.763  0.00  0.00    +0.072 A 
ATOM     17  S   UNL     1      13.205  -6.533   8.474  0.00  0.00    -0.061 S 
ATOM     18  C   UNL     1      12.982  -4.872   8.324  0.00  0.00    +0.156 A 
ATOM     19  N   UNL     1      12.736  -4.717   7.040  0.00  0.00    -0.230 NA
ATOM     20  N   UNL     1      13.045  -3.901   9.312  0.00  0.00    -0.338 N 
ATOM     21  H   UNL     1      13.241  -4.154  10.228  0.00  0.00    +0.144 HD
ATOM     22  H   UNL     1      12.894  -2.970   9.087  0.00  0.00    +0.144 HD
ENDBRANCH  14  15
ENDBRANCH  11  14
ENDBRANCH   9  10
ENDBRANCH   4   8
BRANCH   1  23
ATOM     23  O   UNL     1       4.141  -0.946   1.304  0.00  0.00    -0.486 OA
BRANCH  23  24
ATOM     24  C   UNL     1       3.711  -0.707  -0.038  0.00  0.00    +0.264 C 
BRANCH  24  28
ATOM     25  C   UNL     1      -0.017   1.378   0.010  0.00  0.00    +0.000 A 
ATOM     26  C   UNL     1       1.171   2.086   0.002  0.00  0.00    +0.000 A 
ATOM     27  C   UNL     1       2.377   1.411  -0.013  0.00  0.00    +0.007 A 
ATOM     28  C   UNL     1       2.396   0.029  -0.020  0.00  0.00    -0.010 A 
ATOM     29  C   UNL     1       1.208  -0.679  -0.012  0.00  0.00    +0.007 A 
ATOM     30  C   UNL     1       0.002  -0.004   0.002  0.00  0.00    +0.000 A 
ENDBRANCH  24  28
ENDBRANCH  23  24
ENDBRANCH   1  23
TORSDOF 7
