REMARK  Name = ZINC00632727
REMARK  9 active torsions:
REMARK  status: ('A' for Active; 'I' for Inactive)
REMARK    1  A    between atoms: C_1  and  C_2
REMARK    2  A    between atoms: C_3  and  C_26
REMARK    3  A    between atoms: C_4  and  C_16
REMARK    4  A    between atoms: C_10  and  C_14
REMARK    5  A    between atoms: C_10  and  C_15
REMARK    6  A    between atoms: C_18  and  O_24
REMARK    7  A    between atoms: C_21  and  O_22
REMARK    8  A    between atoms: O_22  and  C_23
REMARK    9  A    between atoms: O_24  and  C_25
REMARK                            x       y       z     vdW  Elec       q    Type
REMARK                         _______ _______ _______ _____ _____    ______ ____
ROOT
ATOM      1  C   UNL     1      -0.018   1.503   0.010  0.00  0.00    +0.061 C 
ATOM      2  C   UNL     1       0.002  -0.004   0.002  0.00  0.00    +0.019 C 
ATOM      3  C   UNL     1      -1.153  -0.687   0.004  0.00  0.00    +0.058 C 
ATOM      4  C   UNL     1      -1.173  -2.187   0.001  0.00  0.00    +0.099 C 
ATOM      5  C   UNL     1       0.161  -2.746  -0.427  0.00  0.00    +0.025 C 
ATOM      6  C   UNL     1       1.269  -1.974  -0.412  0.00  0.00    +0.016 C 
ATOM      7  N   UNL     1       1.201  -0.669  -0.013  0.00  0.00    -0.320 N 
ATOM      8  C   UNL     1       2.606  -2.525  -0.844  0.00  0.00    +0.058 C 
ATOM      9  C   UNL     1       2.670  -4.021  -0.532  0.00  0.00    -0.023 C 
ATOM     10  C   UNL     1       1.517  -4.719  -1.260  0.00  0.00    +0.086 C 
ATOM     11  C   UNL     1       0.218  -4.088  -0.838  0.00  0.00    +0.162 C 
ATOM     12  O   UNL     1      -0.800  -4.752  -0.852  0.00  0.00    -0.292 OA
ATOM     13  C   UNL     1       4.005  -4.591  -1.017  0.00  0.00    +0.011 C 
ATOM     14  C   UNL     1       2.532  -4.238   0.977  0.00  0.00    +0.011 C 
ATOM     15  H   UNL     1       2.009  -0.210   0.266  0.00  0.00    +0.152 HD
ENDROOT
BRANCH   4  16
ATOM     16  C   UNL     1      -1.492  -2.680   1.389  0.00  0.00    +0.010 A 
ATOM     17  C   UNL     1      -0.667  -2.349   2.446  0.00  0.00    +0.053 A 
ATOM     18  C   UNL     1      -0.961  -2.803   3.723  0.00  0.00    +0.121 A 
ATOM     19  C   UNL     1      -2.084  -3.588   3.939  0.00  0.00    +0.049 A 
ATOM     20  C   UNL     1      -2.909  -3.919   2.882  0.00  0.00    +0.049 A 
ATOM     21  C   UNL     1      -2.618  -3.461   1.605  0.00  0.00    +0.124 A 
BRANCH  21  22
ATOM     22  O   UNL     1      -3.433  -3.781   0.565  0.00  0.00    -0.495 OA
ATOM     23  C   UNL     1      -4.574  -4.589   0.861  0.00  0.00    +0.277 C 
ENDBRANCH  21  22
BRANCH  18  24
ATOM     24  O   UNL     1      -0.148  -2.478   4.764  0.00  0.00    -0.495 OA
ATOM     25  C   UNL     1      -0.512  -2.979   6.052  0.00  0.00    +0.277 C 
ENDBRANCH  18  24
ENDBRANCH   4  16
BRANCH   3  26
ATOM     26  C   UNL     1      -2.393   0.031   0.008  0.00  0.00    +0.097 C 
ATOM     27  N   UNL     1      -3.376   0.601   0.011  0.00  0.00    -0.191 NA
ENDBRANCH   3  26
TORSDOF 4
