REMARK  Name = ZINC40799176
REMARK  8 active torsions:
REMARK  status: ('A' for Active; 'I' for Inactive)
REMARK    1  A    between atoms: C_1  and  C_2
REMARK    2  A    between atoms: C_2  and  C_3
REMARK    3  A    between atoms: C_3  and  N_4
REMARK    4  A    between atoms: C_5  and  C_7
REMARK    5  A    between atoms: C_11  and  N_12
REMARK    6  A    between atoms: C_13  and  C_15
REMARK    7  A    between atoms: N_19  and  C_20
REMARK    8  A    between atoms: C_20  and  C_21
REMARK                            x       y       z     vdW  Elec       q    Type
REMARK                         _______ _______ _______ _____ _____    ______ ____
ROOT
ATOM      1  N   UNL     1       3.506  -4.298  -1.078  0.00  0.00    -0.274 N 
ATOM      2  C   UNL     1       4.423  -5.143  -0.568  0.00  0.00    +0.265 C 
ATOM      3  O   UNL     1       4.223  -6.344  -0.589  0.00  0.00    -0.268 OA
ATOM      4  H   UNL     1       3.630  -3.340  -0.995  0.00  0.00    +0.156 HD
ENDROOT
BRANCH   1   9
ATOM      5  C   UNL     1       1.347  -4.086  -2.302  0.00  0.00    +0.069 A 
ATOM      6  C   UNL     1       0.282  -4.854  -2.923  0.00  0.00    -0.023 A 
ATOM      7  C   UNL     1       0.447  -6.192  -2.845  0.00  0.00    -0.004 A 
ATOM      8  S   UNL     1       1.972  -6.406  -1.974  0.00  0.00    -0.077 S 
ATOM      9  C   UNL     1       2.386  -4.798  -1.721  0.00  0.00    +0.085 A 
ATOM     10  C   UNL     1      -0.471  -7.244  -3.384  0.00  0.00    +0.043 C 
ATOM     11  C   UNL     1      -1.820  -6.587  -3.710  0.00  0.00    +0.005 C 
ATOM     12  C   UNL     1      -1.567  -5.307  -4.512  0.00  0.00    +0.005 C 
ATOM     13  C   UNL     1      -0.931  -4.245  -3.612  0.00  0.00    +0.037 C 
BRANCH   5  15
ATOM     14  N   UNL     1       0.743  -1.959  -1.276  0.00  0.00    -0.311 N 
ATOM     15  C   UNL     1       1.328  -2.620  -2.294  0.00  0.00    +0.247 C 
ATOM     16  O   UNL     1       1.841  -2.000  -3.207  0.00  0.00    -0.270 OA
ATOM     17  H   UNL     1       0.334  -2.453  -0.548  0.00  0.00    +0.149 HD
BRANCH  14  18
ATOM     18  C   UNL     1       0.724  -0.494  -1.268  0.00  0.00    +0.104 C 
BRANCH  18  20
ATOM     19  C   UNL     1      -0.016   1.530  -0.004  0.00  0.00    +0.005 C 
ATOM     20  C   UNL     1       0.004  -0.000  -0.012  0.00  0.00    +0.015 C 
ENDBRANCH  18  20
ENDBRANCH  14  18
ENDBRANCH   5  15
ENDBRANCH   1   9
BRANCH   2  21
ATOM     21  C   UNL     1       5.661  -4.618   0.011  0.00  0.00    +0.107 A 
ATOM     22  C   UNL     1       5.966  -3.285   0.187  0.00  0.00    +0.048 A 
ATOM     23  C   UNL     1       7.225  -3.222   0.764  0.00  0.00    +0.038 A 
ATOM     24  C   UNL     1       7.714  -4.521   0.951  0.00  0.00    +0.057 A 
ATOM     25  N   UNL     1       6.717  -5.372   0.478  0.00  0.00    -0.331 N 
ATOM     26  C   UNL     1       8.987  -4.617   1.529  0.00  0.00    +0.034 A 
ATOM     27  C   UNL     1       9.662  -3.498   1.869  0.00  0.00    +0.048 A 
ATOM     28  S   UNL     1       8.534  -2.200   1.390  0.00  0.00    -0.095 S 
BRANCH  25  29
ATOM     29  C   UNL     1       6.782  -6.835   0.475  0.00  0.00    +0.157 C 
BRANCH  29  30
ATOM     30  C   UNL     1       7.506  -7.303  -0.760  0.00  0.00    -0.025 A 
ATOM     31  C   UNL     1       6.790  -7.657  -1.889  0.00  0.00    +0.005 A 
ATOM     32  C   UNL     1       7.454  -8.087  -3.023  0.00  0.00    +0.003 A 
ATOM     33  C   UNL     1       8.834  -8.164  -3.030  0.00  0.00    +0.038 A 
ATOM     34  C   UNL     1       9.552  -7.810  -1.900  0.00  0.00    +0.124 A 
ATOM     35  C   UNL     1       8.886  -7.374  -0.767  0.00  0.00    +0.043 A 
ATOM     36  F   UNL     1      10.901  -7.885  -1.905  0.00  0.00    -0.205 F 
ENDBRANCH  29  30
ENDBRANCH  25  29
ENDBRANCH   2  21
TORSDOF 7
