REMARK  Name = ZINC09729203
REMARK  7 active torsions:
REMARK  status: ('A' for Active; 'I' for Inactive)
REMARK    1  A    between atoms: C_4  and  C_7
REMARK    2  A    between atoms: C_7  and  C_9
REMARK    3  A    between atoms: C_7  and  S_22
REMARK    4  A    between atoms: N_11  and  C_12
REMARK    5  A    between atoms: C_15  and  N_19
REMARK    6  A    between atoms: S_22  and  C_23
REMARK    7  A    between atoms: C_27  and  C_29
REMARK                            x       y       z     vdW  Elec       q    Type
REMARK                         _______ _______ _______ _____ _____    ______ ____
ROOT
ATOM      1  C   UNL     1       3.728  -0.711  -0.041  0.00  0.00    +0.170 C 
ENDROOT
BRANCH   1   5
ATOM      2  C   UNL     1       0.007   1.387  -0.024  0.00  0.00    +0.000 A 
ATOM      3  C   UNL     1       1.198   2.090  -0.025  0.00  0.00    +0.000 A 
ATOM      4  C   UNL     1       2.402   1.411  -0.031  0.00  0.00    +0.005 A 
ATOM      5  C   UNL     1       2.416   0.029  -0.035  0.00  0.00    -0.025 A 
ATOM      6  C   UNL     1       1.226  -0.675  -0.032  0.00  0.00    +0.005 A 
ATOM      7  C   UNL     1       0.022   0.004  -0.028  0.00  0.00    +0.000 A 
ENDBRANCH   1   5
BRANCH   1   8
ATOM      8  C   UNL     1       3.822  -1.580   1.186  0.00  0.00    +0.235 C 
ATOM      9  O   UNL     1       3.582  -2.767   1.109  0.00  0.00    -0.274 OA
ATOM     10  N   UNL     1       4.172  -1.039   2.370  0.00  0.00    -0.283 N 
ATOM     11  H   UNL     1       4.426  -0.104   2.419  0.00  0.00    +0.155 HD
BRANCH  10  12
ATOM     12  C   UNL     1       4.168  -1.825   3.528  0.00  0.00    +0.052 A 
ATOM     13  C   UNL     1       4.519  -3.167   3.459  0.00  0.00    +0.027 A 
ATOM     14  C   UNL     1       4.515  -3.940   4.604  0.00  0.00    +0.034 A 
ATOM     15  C   UNL     1       4.160  -3.380   5.817  0.00  0.00    +0.128 A 
ATOM     16  C   UNL     1       3.809  -2.045   5.890  0.00  0.00    +0.054 A 
ATOM     17  C   UNL     1       3.817  -1.264   4.750  0.00  0.00    +0.064 A 
ATOM     18 CL   UNL     1       3.383   0.415   4.843  0.00  0.00    -0.082 Cl
BRANCH  15  19
ATOM     19  N   UNL     1       4.156  -4.212   7.042  0.00  0.00    +0.056 N 
ATOM     20  O   UNL     1       4.462  -5.380   6.979  0.00  0.00    -0.126 OA
ATOM     21  O   UNL     1       3.846  -3.724   8.103  0.00  0.00    -0.126 OA
ENDBRANCH  15  19
ENDBRANCH  10  12
ENDBRANCH   1   8
BRANCH   1  22
ATOM     22  S   UNL     1       3.830  -1.749  -1.526  0.00  0.00    -0.069 S 
BRANCH  22  23
ATOM     23  C   UNL     1       3.856  -0.592  -2.854  0.00  0.00    +0.186 A 
ATOM     24  N   UNL     1       3.922  -0.895  -4.170  0.00  0.00    -0.253 N 
ATOM     25  H   UNL     1       3.963  -1.783  -4.559  0.00  0.00    +0.191 HD
ATOM     26  N   UNL     1       3.918   0.326  -4.862  0.00  0.00    -0.151 NA
ATOM     27  C   UNL     1       3.853   1.279  -3.957  0.00  0.00    +0.189 A 
ATOM     28  N   UNL     1       3.810   0.717  -2.739  0.00  0.00    -0.200 NA
BRANCH  27  29
ATOM     29  C   UNL     1       3.825   2.730  -4.236  0.00  0.00    +0.058 A 
ATOM     30  C   UNL     1       3.855   3.377  -5.443  0.00  0.00    +0.019 A 
ATOM     31  C   UNL     1       3.819   4.755  -5.456  0.00  0.00    +0.008 A 
ATOM     32  C   UNL     1       3.756   5.427  -4.278  0.00  0.00    +0.046 A 
ATOM     33  S   UNL     1       3.738   4.095  -3.089  0.00  0.00    -0.093 S 
ENDBRANCH  27  29
ENDBRANCH  22  23
ENDBRANCH   1  22
TORSDOF 7
