REMARK  Name = ZINC41317295
REMARK  8 active torsions:
REMARK  status: ('A' for Active; 'I' for Inactive)
REMARK    1  A    between atoms: C_1  and  N_2
REMARK    2  A    between atoms: N_2  and  C_3
REMARK    3  A    between atoms: N_2  and  C_4
REMARK    4  A    between atoms: C_4  and  C_5
REMARK    5  A    between atoms: C_5  and  N_6
REMARK    6  A    between atoms: C_16  and  C_18
REMARK    7  A    between atoms: C_18  and  C_20
REMARK    8  A    between atoms: C_18  and  C_27
REMARK                            x       y       z     vdW  Elec       q    Type
REMARK                         _______ _______ _______ _____ _____    ______ ____
ROOT
ATOM      1  N   UNL     1      -4.111   0.662  -2.461  0.00  0.00    -0.329 N 
ATOM      2  C   UNL     1      -4.159  -0.677  -3.066  0.00  0.00    +0.124 C 
ATOM      3  C   UNL     1      -5.618  -0.990  -3.428  0.00  0.00    +0.132 C 
ATOM      4  N   UNL     1      -6.429  -0.871  -2.207  0.00  0.00    -0.268 N 
ATOM      5  C   UNL     1      -6.227   0.236  -1.367  0.00  0.00    +0.057 A 
ATOM      6  C   UNL     1      -5.064   0.999  -1.490  0.00  0.00    +0.051 A 
ATOM      7  C   UNL     1      -4.858   2.087  -0.657  0.00  0.00    +0.025 A 
ATOM      8  C   UNL     1      -5.805   2.413   0.297  0.00  0.00    +0.002 A 
ATOM      9  C   UNL     1      -6.955   1.657   0.423  0.00  0.00    +0.002 A 
ATOM     10  C   UNL     1      -7.174   0.571  -0.413  0.00  0.00    +0.025 A 
ATOM     11  C   UNL     1      -7.350  -1.806  -1.901  0.00  0.00    +0.228 C 
ATOM     12  O   UNL     1      -7.936  -1.755  -0.840  0.00  0.00    -0.275 OA
ENDROOT
BRANCH   1  13
ATOM     13  C   UNL     1      -3.083   1.626  -2.862  0.00  0.00    +0.086 C 
BRANCH  13  14
ATOM     14  C   UNL     1      -1.851   1.458  -1.970  0.00  0.00    -0.060 C 
BRANCH  14  16
ATOM     15  C   UNL     1      -1.302   3.788  -2.118  0.00  0.00    -0.097 C 
ATOM     16  N   UNL     1      -0.820   2.424  -2.373  0.00  0.00    +0.377 N 
ATOM     17  C   UNL     1       0.405   2.184  -1.598  0.00  0.00    -0.097 C 
ATOM     18  H   UNL     1      -0.623   2.315  -3.356  0.00  0.00    -0.083 HD
ENDBRANCH  14  16
ENDBRANCH  13  14
ENDBRANCH   1  13
BRANCH  11  19
ATOM     19  C   UNL     1      -7.651  -2.915  -2.876  0.00  0.00    +0.108 C 
BRANCH  19  20
ATOM     20  C   UNL     1      -9.120  -3.247  -2.821  0.00  0.00    -0.035 A 
ATOM     21  C   UNL     1      -9.688  -3.675  -1.635  0.00  0.00    +0.007 A 
ATOM     22  C   UNL     1     -11.035  -3.979  -1.584  0.00  0.00    +0.038 A 
ATOM     23  C   UNL     1     -11.816  -3.855  -2.721  0.00  0.00    +0.123 A 
ATOM     24  C   UNL     1     -11.246  -3.427  -3.908  0.00  0.00    +0.038 A 
ATOM     25  C   UNL     1      -9.900  -3.118  -3.955  0.00  0.00    +0.007 A 
ATOM     26  F   UNL     1     -13.133  -4.153  -2.672  0.00  0.00    -0.205 F 
ENDBRANCH  19  20
BRANCH  19  27
ATOM     27  C   UNL     1      -6.834  -4.155  -2.506  0.00  0.00    +0.005 C 
ATOM     28  C   UNL     1      -5.650  -4.515  -3.406  0.00  0.00    +0.005 C 
ATOM     29  C   UNL     1      -6.923  -5.363  -3.440  0.00  0.00    +0.005 C 
ENDBRANCH  19  27
ENDBRANCH  11  19
TORSDOF 6
