REMARK  Name = ZINC00095059
REMARK  8 active torsions:
REMARK  status: ('A' for Active; 'I' for Inactive)
REMARK    1  A    between atoms: C_1  and  C_2
REMARK    2  A    between atoms: C_2  and  C_3
REMARK    3  A    between atoms: C_3  and  C_24
REMARK    4  A    between atoms: C_11  and  C_14
REMARK    5  A    between atoms: C_16  and  O_22
REMARK    6  A    between atoms: C_17  and  O_21
REMARK    7  A    between atoms: O_22  and  C_23
REMARK    8  A    between atoms: C_24  and  C_25
REMARK                            x       y       z     vdW  Elec       q    Type
REMARK                         _______ _______ _______ _____ _____    ______ ____
ROOT
ATOM      1  C   UNL     1       0.158   5.455   0.083  0.00  0.00    +0.098 C 
ATOM      2  C   UNL     1       0.514   3.992   0.052  0.00  0.00    +0.005 A 
ATOM      3  C   UNL     1      -0.481   3.045  -0.104  0.00  0.00    +0.008 A 
ATOM      4  C   UNL     1      -0.160   1.701  -0.131  0.00  0.00    +0.000 A 
ATOM      5  C   UNL     1       1.154   1.295   0.009  0.00  0.00    +0.002 A 
ATOM      6  C   UNL     1       2.155   2.235   0.164  0.00  0.00    +0.023 A 
ATOM      7  C   UNL     1       1.835   3.585   0.185  0.00  0.00    +0.035 A 
ATOM      8  N   UNL     1       2.843   4.546   0.335  0.00  0.00    -0.315 N 
ATOM      9  C   UNL     1       2.439   5.926   0.644  0.00  0.00    +0.236 C 
ATOM     10  O   UNL     1       1.314   6.251  -0.183  0.00  0.00    -0.344 OA
ATOM     11  H   UNL     1       3.778   4.308   0.238  0.00  0.00    +0.149 HD
ENDROOT
BRANCH   9  12
ATOM     12  C   UNL     1       3.577   6.869   0.349  0.00  0.00    +0.004 A 
ATOM     13  C   UNL     1       4.879   6.478   0.600  0.00  0.00    +0.057 A 
ATOM     14  C   UNL     1       5.927   7.343   0.329  0.00  0.00    +0.163 A 
ATOM     15  C   UNL     1       5.666   8.605  -0.196  0.00  0.00    +0.177 A 
ATOM     16  C   UNL     1       4.358   8.991  -0.445  0.00  0.00    +0.086 A 
ATOM     17  C   UNL     1       3.317   8.120  -0.177  0.00  0.00    +0.031 A 
ATOM     18 CL   UNL     1       4.028  10.565  -1.099  0.00  0.00    -0.080 Cl
BRANCH  15  19
ATOM     19  O   UNL     1       6.691   9.458  -0.462  0.00  0.00    -0.502 OA
ATOM     20  H   UNL     1       7.048   9.377  -1.358  0.00  0.00    +0.292 HD
ENDBRANCH  15  19
BRANCH  14  21
ATOM     21  O   UNL     1       7.208   6.960   0.577  0.00  0.00    -0.491 OA
ATOM     22  C   UNL     1       7.401   5.650   1.116  0.00  0.00    +0.277 C 
ENDBRANCH  14  21
ENDBRANCH   9  12
BRANCH   1  24
ATOM     23  C   UNL     1      -0.377   5.338  -2.355  0.00  0.00    +0.007 C 
ATOM     24  C   UNL     1      -0.908   5.740  -0.977  0.00  0.00    +0.036 C 
ENDBRANCH   1  24
BRANCH   1  25
ATOM     25  C   UNL     1      -0.397   5.813   1.463  0.00  0.00    +0.036 C 
ATOM     26  C   UNL     1      -0.728   7.306   1.509  0.00  0.00    +0.007 C 
ENDBRANCH   1  25
TORSDOF 5
