REMARK  Name = ZINC21870311
REMARK  10 active torsions:
REMARK  status: ('A' for Active; 'I' for Inactive)
REMARK    1  A    between atoms: C_1  and  C_2
REMARK    2  A    between atoms: C_2  and  C_3
REMARK    3  A    between atoms: C_3  and  N_4
REMARK    4  A    between atoms: C_5  and  C_7
REMARK    5  A    between atoms: C_7  and  C_9
REMARK    6  A    between atoms: C_7  and  N_13
REMARK    7  A    between atoms: C_9  and  C_10
REMARK    8  A    between atoms: C_10  and  C_11
REMARK    9  A    between atoms: C_10  and  C_12
REMARK   10  A    between atoms: C_14  and  C_16
REMARK                            x       y       z     vdW  Elec       q    Type
REMARK                         _______ _______ _______ _____ _____    ______ ____
ROOT
ATOM      1  C   UNL     1      -4.119  -0.850   0.027  0.00  0.00    +0.159 C 
ENDROOT
BRANCH   1   3
ATOM      2  N   UNL     1      -5.168  -2.921  -0.826  0.00  0.00    -0.314 N 
ATOM      3  C   UNL     1      -4.061  -2.159  -0.716  0.00  0.00    +0.233 C 
ATOM      4  O   UNL     1      -3.019  -2.528  -1.215  0.00  0.00    -0.274 OA
ATOM      5  H   UNL     1      -6.113  -2.587  -0.374  0.00  0.00    +0.149 HD
BRANCH   2   6
ATOM      6  C   UNL     1      -5.112  -4.194  -1.549  0.00  0.00    +0.104 C 
BRANCH   6   8
ATOM      7  C   UNL     1      -6.433  -6.185  -2.280  0.00  0.00    +0.005 C 
ATOM      8  C   UNL     1      -6.491  -4.855  -1.526  0.00  0.00    +0.015 C 
ENDBRANCH   6   8
ENDBRANCH   2   6
ENDBRANCH   1   3
BRANCH   1   9
ATOM      9  N   UNL     1      -2.795  -0.222   0.014  0.00  0.00    -0.300 N 
ATOM     10  C   UNL     1      -2.677   1.105   0.214  0.00  0.00    +0.246 C 
ATOM     11  O   UNL     1      -3.672   1.796   0.314  0.00  0.00    -0.270 OA
ATOM     12  H   UNL     1      -1.898  -0.835  -0.158  0.00  0.00    +0.150 HD
BRANCH  10  13
ATOM     13  C   UNL     1      -1.337   1.721   0.310  0.00  0.00    +0.055 A 
ATOM     14  C   UNL     1      -0.192   0.930   0.196  0.00  0.00    +0.016 A 
ATOM     15  C   UNL     1       1.055   1.511   0.281  0.00  0.00    +0.021 A 
ATOM     16  C   UNL     1       1.175   2.877   0.486  0.00  0.00    +0.042 A 
ATOM     17  C   UNL     1       0.044   3.666   0.607  0.00  0.00    +0.040 A 
ATOM     18  C   UNL     1      -1.211   3.096   0.523  0.00  0.00    +0.054 A 
ATOM     19 CL   UNL     1      -2.628   4.088   0.673  0.00  0.00    -0.083 Cl
ATOM     20 CL   UNL     1       2.749   3.600   0.594  0.00  0.00    -0.083 Cl
ENDBRANCH  10  13
ENDBRANCH   1   9
BRANCH   1  21
ATOM     21  C   UNL     1      -4.550  -1.102   1.473  0.00  0.00    +0.034 C 
BRANCH  21  22
ATOM     22  C   UNL     1      -3.461  -1.894   2.199  0.00  0.00    -0.015 C 
ATOM     23  C   UNL     1      -3.800  -1.980   3.688  0.00  0.00    +0.007 C 
ATOM     24  C   UNL     1      -3.378  -3.304   1.612  0.00  0.00    +0.007 C 
ENDBRANCH  21  22
ENDBRANCH   1  21
TORSDOF 7
