REMARK  Name = ZINC00668936
REMARK  9 active torsions:
REMARK  status: ('A' for Active; 'I' for Inactive)
REMARK    1  A    between atoms: C_1  and  C_2
REMARK    2  A    between atoms: C_2  and  C_3
REMARK    3  A    between atoms: C_3  and  C_4
REMARK    4  A    between atoms: C_3  and  C_5
REMARK    5  A    between atoms: C_3  and  C_6
REMARK    6  A    between atoms: C_13  and  N_18
REMARK    7  A    between atoms: C_14  and  C_15
REMARK    8  A    between atoms: C_19  and  C_21
REMARK    9  A    between atoms: C_24  and  C_26
REMARK                            x       y       z     vdW  Elec       q    Type
REMARK                         _______ _______ _______ _____ _____    ______ ____
ROOT
ATOM      1  C   UNL     1      -7.232   3.958   3.819  0.00  0.00    -0.000 C 
ATOM      2  C   UNL     1      -7.520   2.466   4.010  0.00  0.00    +0.009 C 
ATOM      3  C   UNL     1      -7.033   1.683   2.790  0.00  0.00    +0.037 C 
ATOM      4  C   UNL     1      -5.579   2.049   2.520  0.00  0.00    -0.023 A 
ATOM      5  C   UNL     1      -5.037   3.172   3.038  0.00  0.00    -0.004 A 
ATOM      6  S   UNL     1      -3.362   3.172   2.465  0.00  0.00    -0.077 S 
ATOM      7  C   UNL     1      -3.380   1.702   1.548  0.00  0.00    +0.084 A 
ATOM      8  C   UNL     1      -4.682   1.249   1.703  0.00  0.00    +0.068 A 
ATOM      9  C   UNL     1      -5.716   4.185   3.906  0.00  0.00    +0.046 C 
ENDROOT
BRANCH   8  10
ATOM     10  C   UNL     1      -5.136   0.007   1.069  0.00  0.00    +0.244 C 
ATOM     11  O   UNL     1      -5.034  -1.051   1.662  0.00  0.00    -0.270 OA
ATOM     12  N   UNL     1      -5.665   0.037  -0.170  0.00  0.00    -0.325 N 
ATOM     13  H   UNL     1      -5.747   0.880  -0.642  0.00  0.00    +0.145 HD
ATOM     14  H   UNL     1      -5.965  -0.785  -0.589  0.00  0.00    +0.145 HD
ENDBRANCH   8  10
BRANCH   7  15
ATOM     15  N   UNL     1      -2.346   1.122   0.830  0.00  0.00    -0.279 N 
ATOM     16  C   UNL     1      -1.137   1.716   0.789  0.00  0.00    +0.221 C 
ATOM     17  O   UNL     1      -0.954   2.759   1.381  0.00  0.00    -0.275 OA
ATOM     18  H   UNL     1      -2.492   0.288   0.356  0.00  0.00    +0.155 HD
BRANCH  16  19
ATOM     19  C   UNL     1      -0.013   1.086   0.008  0.00  0.00    +0.083 C 
ATOM     20  C   UNL     1       0.460   1.806  -1.256  0.00  0.00    +0.022 C 
ATOM     21  C   UNL     1       1.335   1.811  -0.001  0.00  0.00    +0.032 C 
BRANCH  21  22
ATOM     22  C   UNL     1       2.581   0.963  -0.017  0.00  0.00    -0.044 A 
ATOM     23  C   UNL     1       2.803   0.081  -1.057  0.00  0.00    +0.004 A 
ATOM     24  C   UNL     1       3.948  -0.694  -1.074  0.00  0.00    +0.000 A 
ATOM     25  C   UNL     1       4.866  -0.592  -0.046  0.00  0.00    +0.000 A 
ATOM     26  C   UNL     1       4.641   0.287   0.997  0.00  0.00    +0.000 A 
ATOM     27  C   UNL     1       3.498   1.064   1.012  0.00  0.00    +0.004 A 
ENDBRANCH  21  22
ENDBRANCH  16  19
ENDBRANCH   7  15
BRANCH   1  28
ATOM     28  C   UNL     1      -7.935   4.761   4.916  0.00  0.00    -0.032 C 
ATOM     29  C   UNL     1      -9.446   4.533   4.826  0.00  0.00    +0.011 C 
ATOM     30  C   UNL     1      -7.431   4.302   6.286  0.00  0.00    +0.011 C 
BRANCH  28  32
ATOM     31  C   UNL     1      -8.335   7.051   5.830  0.00  0.00    +0.004 C 
ATOM     32  C   UNL     1      -7.633   6.249   4.733  0.00  0.00    +0.003 C 
ENDBRANCH  28  32
ENDBRANCH   1  28
TORSDOF 6
