REMARK  Name = ZINC00861380
REMARK  12 active torsions:
REMARK  status: ('A' for Active; 'I' for Inactive)
REMARK    1  A    between atoms: C_1  and  C_2
REMARK    2  A    between atoms: C_3  and  C_33
REMARK    3  A    between atoms: C_4  and  C_23
REMARK    4  A    between atoms: C_10  and  C_15
REMARK    5  A    between atoms: C_18  and  O_21
REMARK    6  A    between atoms: O_21  and  C_22
REMARK    7  A    between atoms: C_27  and  O_31
REMARK    8  A    between atoms: C_28  and  O_29
REMARK    9  A    between atoms: O_29  and  C_30
REMARK   10  A    between atoms: O_31  and  C_32
REMARK   11  A    between atoms: C_33  and  O_35
REMARK   12  A    between atoms: O_35  and  C_36
REMARK                            x       y       z     vdW  Elec       q    Type
REMARK                         _______ _______ _______ _____ _____    ______ ____
ROOT
ATOM      1  C   UNL     1       6.814  -0.084  -4.356  0.00  0.00    +0.061 C 
ATOM      2  C   UNL     1       6.476   0.081  -2.897  0.00  0.00    +0.016 C 
ATOM      3  C   UNL     1       7.269  -0.469  -1.962  0.00  0.00    +0.065 C 
ATOM      4  C   UNL     1       6.968  -0.320  -0.499  0.00  0.00    +0.096 C 
ATOM      5  C   UNL     1       5.536   0.100  -0.282  0.00  0.00    +0.024 C 
ATOM      6  C   UNL     1       4.815   0.636  -1.289  0.00  0.00    +0.016 C 
ATOM      7  N   UNL     1       5.366   0.791  -2.533  0.00  0.00    -0.321 N 
ATOM      8  C   UNL     1       3.387   1.075  -1.075  0.00  0.00    +0.059 C 
ATOM      9  C   UNL     1       2.735   0.194  -0.006  0.00  0.00    +0.032 C 
ATOM     10  C   UNL     1       3.553   0.308   1.284  0.00  0.00    +0.088 C 
ATOM     11  C   UNL     1       4.978  -0.078   0.996  0.00  0.00    +0.162 C 
ATOM     12  O   UNL     1       5.659  -0.553   1.883  0.00  0.00    -0.292 OA
ATOM     13  H   UNL     1       4.906   1.494  -3.243  0.00  0.00    +0.152 HD
ENDROOT
BRANCH   9  14
ATOM     14  C   UNL     1       1.325   0.664   0.245  0.00  0.00    -0.043 A 
ATOM     15  C   UNL     1       0.264  -0.200   0.048  0.00  0.00    +0.007 A 
ATOM     16  C   UNL     1      -1.030   0.231   0.273  0.00  0.00    +0.046 A 
ATOM     17  C   UNL     1      -1.263   1.528   0.706  0.00  0.00    +0.120 A 
ATOM     18  C   UNL     1      -0.196   2.393   0.903  0.00  0.00    +0.046 A 
ATOM     19  C   UNL     1       1.095   1.959   0.672  0.00  0.00    +0.007 A 
BRANCH  17  20
ATOM     20  O   UNL     1      -2.534   1.952   0.932  0.00  0.00    -0.495 OA
ATOM     21  C   UNL     1      -3.582   1.007   0.709  0.00  0.00    +0.277 C 
ENDBRANCH  17  20
ENDBRANCH   9  14
BRANCH   4  22
ATOM     22  C   UNL     1       7.885   0.722   0.090  0.00  0.00    +0.010 A 
ATOM     23  C   UNL     1       8.931   0.338   0.908  0.00  0.00    +0.008 A 
ATOM     24  C   UNL     1       9.774   1.291   1.450  0.00  0.00    +0.004 A 
ATOM     25  C   UNL     1       9.573   2.631   1.176  0.00  0.00    +0.049 A 
ATOM     26  C   UNL     1       8.526   3.022   0.358  0.00  0.00    +0.162 A 
ATOM     27  C   UNL     1       7.681   2.063  -0.192  0.00  0.00    +0.166 A 
BRANCH  27  28
ATOM     28  O   UNL     1       6.655   2.441  -1.000  0.00  0.00    -0.491 OA
ATOM     29  C   UNL     1       5.539   3.079  -0.377  0.00  0.00    +0.277 C 
ENDBRANCH  27  28
BRANCH  26  30
ATOM     30  O   UNL     1       8.328   4.340   0.088  0.00  0.00    -0.491 OA
ATOM     31  C   UNL     1       9.238   5.269   0.681  0.00  0.00    +0.277 C 
ENDBRANCH  26  30
ENDBRANCH   4  22
BRANCH   3  32
ATOM     32  C   UNL     1       8.409  -1.204  -2.364  0.00  0.00    +0.338 C 
ATOM     33  O   UNL     1       8.604  -1.427  -3.544  0.00  0.00    -0.245 OA
BRANCH  32  34
ATOM     34  O   UNL     1       9.280  -1.659  -1.439  0.00  0.00    -0.458 OA
BRANCH  34  35
ATOM     35  C   UNL     1      10.465  -2.296  -1.921  0.00  0.00    +0.177 C 
ATOM     36  C   UNL     1      10.177  -3.775  -2.187  0.00  0.00    +0.044 C 
ATOM     37  C   UNL     1      11.446  -4.456  -2.703  0.00  0.00    +0.004 C 
ATOM     38  C   UNL     1      12.554  -4.333  -1.655  0.00  0.00    +0.000 C 
ATOM     39  C   UNL     1      12.841  -2.854  -1.389  0.00  0.00    +0.004 C 
ATOM     40  C   UNL     1      11.573  -2.172  -0.873  0.00  0.00    +0.044 C 
ENDBRANCH  34  35
ENDBRANCH  32  34
ENDBRANCH   3  32
TORSDOF 8
