REMARK  Name = ZINC63395287
REMARK  7 active torsions:
REMARK  status: ('A' for Active; 'I' for Inactive)
REMARK    1  A    between atoms: C_7  and  C_10
REMARK    2  A    between atoms: C_10  and  C_11
REMARK    3  A    between atoms: C_11  and  N_12
REMARK    4  A    between atoms: C_13  and  C_15
REMARK    5  A    between atoms: C_15  and  N_22
REMARK    6  A    between atoms: C_16  and  C_17
REMARK    7  A    between atoms: C_23  and  C_25
REMARK                            x       y       z     vdW  Elec       q    Type
REMARK                         _______ _______ _______ _____ _____    ______ ____
ROOT
ATOM      1  N   UNL     1      -0.490  -4.778  -1.473  0.00  0.00    -0.310 N 
ATOM      2  C   UNL     1      -0.821  -5.386  -2.631  0.00  0.00    +0.258 C 
ATOM      3  O   UNL     1      -0.437  -4.925  -3.690  0.00  0.00    -0.269 OA
ATOM      4  H   UNL     1      -0.855  -5.102  -0.635  0.00  0.00    +0.149 HD
ENDROOT
BRANCH   2   5
ATOM      5  C   UNL     1      -1.641  -6.599  -2.613  0.00  0.00    +0.100 C 
ATOM      6  C   UNL     1      -1.053  -7.815  -2.453  0.00  0.00    +0.074 C 
BRANCH   6   7
ATOM      7  C   UNL     1       0.337  -7.901  -2.198  0.00  0.00    +0.130 A 
ATOM      8  C   UNL     1       1.078  -9.061  -2.119  0.00  0.00    +0.049 A 
ATOM      9  C   UNL     1       2.401  -8.673  -1.852  0.00  0.00    +0.042 A 
ATOM     10  C   UNL     1       2.415  -7.324  -1.781  0.00  0.00    +0.195 A 
ATOM     11  O   UNL     1       1.174  -6.862  -1.995  0.00  0.00    -0.463 OA
ENDBRANCH   6   7
BRANCH   5  12
ATOM     12  N   UNL     1      -3.030  -6.508  -2.760  0.00  0.00    -0.277 N 
ATOM     13  C   UNL     1      -3.625  -5.299  -2.804  0.00  0.00    +0.255 C 
ATOM     14  O   UNL     1      -2.947  -4.287  -2.813  0.00  0.00    -0.269 OA
ATOM     15  H   UNL     1      -3.565  -7.314  -2.830  0.00  0.00    +0.155 HD
BRANCH  13  16
ATOM     16  C   UNL     1      -5.087  -5.202  -2.842  0.00  0.00    +0.074 A 
ATOM     17  C   UNL     1      -5.887  -4.071  -2.895  0.00  0.00    +0.021 A 
ATOM     18  C   UNL     1      -7.242  -4.299  -2.921  0.00  0.00    +0.008 A 
ATOM     19  C   UNL     1      -7.696  -5.576  -2.895  0.00  0.00    +0.046 A 
ATOM     20  S   UNL     1      -6.300  -6.509  -2.840  0.00  0.00    -0.092 S 
ENDBRANCH  13  16
ENDBRANCH   5  12
ENDBRANCH   2   5
BRANCH   1  21
ATOM     21  C   UNL     1       0.419  -3.630  -1.482  0.00  0.00    +0.109 C 
BRANCH  21  22
ATOM     22  C   UNL     1       0.626  -3.132  -0.050  0.00  0.00    +0.052 C 
BRANCH  22  29
ATOM     23  C   UNL     1      -0.103   1.397  -0.118  0.00  0.00    +0.001 A 
ATOM     24  C   UNL     1       1.076   2.156  -0.120  0.00  0.00    +0.002 A 
ATOM     25  C   UNL     1       2.304   1.596  -0.104  0.00  0.00    +0.026 A 
ATOM     26  C   UNL     1       2.448   0.182  -0.083  0.00  0.00    +0.043 A 
ATOM     27  N   UNL     1       3.510  -0.587  -0.065  0.00  0.00    -0.380 N 
ATOM     28  C   UNL     1       3.074  -1.988  -0.049  0.00  0.00    +0.144 C 
ATOM     29  C   UNL     1       1.562  -1.951  -0.060  0.00  0.00    -0.040 C 
ATOM     30  C   UNL     1       1.219  -0.643  -0.080  0.00  0.00    -0.001 A 
ATOM     31  C   UNL     1      -0.078   0.045  -0.098  0.00  0.00    +0.010 A 
ATOM     32  H   UNL     1       4.431  -0.281  -0.064  0.00  0.00    +0.160 HD
ENDBRANCH  22  29
ENDBRANCH  21  22
ENDBRANCH   1  21
TORSDOF 7
