REMARK  Name = ZINC56077800
REMARK  8 active torsions:
REMARK  status: ('A' for Active; 'I' for Inactive)
REMARK    1  A    between atoms: C_1  and  C_2
REMARK    2  A    between atoms: C_2  and  C_4
REMARK    3  A    between atoms: C_2  and  N_22
REMARK    4  A    between atoms: C_10  and  C_12
REMARK    5  A    between atoms: C_15  and  C_18
REMARK    6  A    between atoms: C_18  and  C_19
REMARK    7  A    between atoms: C_18  and  C_20
REMARK    8  A    between atoms: C_18  and  C_21
REMARK                            x       y       z     vdW  Elec       q    Type
REMARK                         _______ _______ _______ _____ _____    ______ ____
ROOT
ATOM      1  C   UNL     1      -1.412  -0.526   0.013  0.00  0.00    +0.236 C 
ATOM      2  O   UNL     1      -1.808  -1.223  -0.897  0.00  0.00    -0.274 OA
ATOM      3  N   UNL     1      -2.236  -0.217   1.033  0.00  0.00    -0.293 N 
ATOM      4  C   UNL     1      -1.889   0.623   2.194  0.00  0.00    +0.108 C 
ATOM      5  C   UNL     1      -2.867   0.179   3.311  0.00  0.00    +0.021 C 
ATOM      6  C   UNL     1      -4.164  -0.086   2.501  0.00  0.00    +0.029 C 
ATOM      7  C   UNL     1      -3.633  -0.656   1.169  0.00  0.00    +0.106 C 
ENDROOT
BRANCH   7   8
ATOM      8  C   UNL     1      -4.451  -0.127   0.020  0.00  0.00    -0.027 A 
ATOM      9  C   UNL     1      -4.236   1.155  -0.450  0.00  0.00    +0.006 A 
ATOM     10  C   UNL     1      -4.986   1.640  -1.504  0.00  0.00    +0.004 A 
ATOM     11  C   UNL     1      -5.951   0.842  -2.090  0.00  0.00    -0.042 A 
ATOM     12  C   UNL     1      -6.166  -0.440  -1.622  0.00  0.00    +0.004 A 
ATOM     13  C   UNL     1      -5.412  -0.927  -0.570  0.00  0.00    +0.006 A 
BRANCH  11  14
ATOM     14  C   UNL     1      -6.770   1.371  -3.240  0.00  0.00    -0.013 C 
ATOM     15  C   UNL     1      -5.843   1.741  -4.399  0.00  0.00    +0.015 C 
ATOM     16  C   UNL     1      -7.758   0.297  -3.699  0.00  0.00    +0.015 C 
ATOM     17  C   UNL     1      -7.541   2.613  -2.787  0.00  0.00    +0.015 C 
ENDBRANCH  11  14
ENDBRANCH   7   8
BRANCH   1  19
ATOM     18  C   UNL     1      -0.019   1.526   0.010  0.00  0.00    +0.038 C 
ATOM     19  C   UNL     1       0.002  -0.004   0.002  0.00  0.00    +0.157 C 
BRANCH  19  20
ATOM     20  N   UNL     1       0.688  -0.476  -1.203  0.00  0.00    -0.289 N 
ATOM     21  C   UNL     1       2.031  -0.587  -1.215  0.00  0.00    +0.298 C 
ATOM     22  O   UNL     1       2.674  -0.294  -0.225  0.00  0.00    -0.253 OA
ATOM     23  N   UNL     1       2.662  -1.022  -2.324  0.00  0.00    -0.313 N 
ATOM     24  H   UNL     1       0.175  -0.710  -1.993  0.00  0.00    +0.151 HD
ATOM     25  H   UNL     1       2.149  -1.255  -3.114  0.00  0.00    +0.146 HD
ATOM     26  H   UNL     1       3.628  -1.101  -2.332  0.00  0.00    +0.146 HD
ENDBRANCH  19  20
ENDBRANCH   1  19
TORSDOF 4
