REMARK  Name = ZINC33119330
REMARK  5 active torsions:
REMARK  status: ('A' for Active; 'I' for Inactive)
REMARK    1  A    between atoms: C_1  and  C_2
REMARK    2  A    between atoms: C_2  and  C_4
REMARK    3  A    between atoms: C_2  and  N_15
REMARK    4  A    between atoms: C_16  and  C_18
REMARK    5  A    between atoms: C_18  and  C_23
REMARK                            x       y       z     vdW  Elec       q    Type
REMARK                         _______ _______ _______ _____ _____    ______ ____
ROOT
ATOM      1  N   UNL     1       1.059  -0.429  -0.946  0.00  0.00    -0.308 N 
ATOM      2  C   UNL     1       0.974  -1.668  -1.470  0.00  0.00    +0.224 C 
ATOM      3  O   UNL     1       0.074  -2.409  -1.133  0.00  0.00    -0.275 OA
ATOM      4  H   UNL     1       1.919   0.212  -1.187  0.00  0.00    +0.149 HD
ENDROOT
BRANCH   2   5
ATOM      5  C   UNL     1       1.996  -2.132  -2.476  0.00  0.00    +0.072 C 
ATOM      6  C   UNL     1       2.036  -1.164  -3.672  0.00  0.00    +0.021 C 
ATOM      7  C   UNL     1       1.658  -1.988  -4.920  0.00  0.00    +0.001 C 
ATOM      8  C   UNL     1       0.847  -3.181  -4.355  0.00  0.00    +0.001 C 
ATOM      9  C   UNL     1       1.594  -3.511  -3.039  0.00  0.00    +0.021 C 
BRANCH   5  10
ATOM     10  C   UNL     1       3.355  -2.213  -1.831  0.00  0.00    -0.032 A 
ATOM     11  C   UNL     1       3.488  -1.999  -0.471  0.00  0.00    +0.006 A 
ATOM     12  C   UNL     1       4.734  -2.079   0.122  0.00  0.00    +0.020 A 
ATOM     13  C   UNL     1       5.849  -2.362  -0.646  0.00  0.00    +0.041 A 
ATOM     14  C   UNL     1       5.716  -2.571  -2.007  0.00  0.00    +0.020 A 
ATOM     15  C   UNL     1       4.469  -2.496  -2.599  0.00  0.00    +0.006 A 
ATOM     16 CL   UNL     1       7.415  -2.457   0.098  0.00  0.00    -0.084 Cl
ENDBRANCH   5  10
ENDBRANCH   2   5
BRANCH   1  18
ATOM     17  C   UNL     1       0.289  -0.404   1.376  0.00  0.00    +0.033 C 
ATOM     18  C   UNL     1       0.006   0.062  -0.054  0.00  0.00    +0.100 C 
BRANCH  18  19
ATOM     19  C   UNL     1      -0.024   1.569  -0.094  0.00  0.00    -0.026 A 
ATOM     20  C   UNL     1       1.161   2.281  -0.132  0.00  0.00    +0.009 A 
ATOM     21  C   UNL     1       1.142   3.663  -0.170  0.00  0.00    +0.048 A 
ATOM     22  C   UNL     1      -0.067   4.337  -0.170  0.00  0.00    +0.142 A 
ATOM     23  C   UNL     1      -1.261   3.619  -0.131  0.00  0.00    +0.076 A 
ATOM     24  C   UNL     1      -1.236   2.234  -0.098  0.00  0.00    +0.032 A 
ATOM     25  N   UNL     1      -2.479   4.314  -0.129  0.00  0.00    -0.280 N 
ATOM     26  C   UNL     1      -2.489   5.618  -0.481  0.00  0.00    +0.255 C 
ATOM     27  O   UNL     1      -3.526   6.247  -0.458  0.00  0.00    -0.272 OA
ATOM     28  C   UNL     1      -1.206   6.288  -0.902  0.00  0.00    +0.325 C 
ATOM     29  O   UNL     1      -0.104   5.695  -0.210  0.00  0.00    -0.481 OA
ATOM     30  H   UNL     1      -3.407   3.796   0.155  0.00  0.00    +0.155 HD
ENDBRANCH  18  19
ENDBRANCH   1  18
TORSDOF 4
