REMARK  Name = ZINC21690199
REMARK  5 active torsions:
REMARK  status: ('A' for Active; 'I' for Inactive)
REMARK    1  A    between atoms: C_3  and  N_8
REMARK    2  A    between atoms: C_9  and  C_11
REMARK    3  A    between atoms: C_11  and  C_12
REMARK    4  A    between atoms: C_12  and  C_13
REMARK    5  A    between atoms: C_19  and  C_21
REMARK                            x       y       z     vdW  Elec       q    Type
REMARK                         _______ _______ _______ _____ _____    ______ ____
ROOT
ATOM      1  C   UNL     1       4.637   0.913  -0.044  0.00  0.00    +0.051 A 
ATOM      2  C   UNL     1       4.443  -0.428  -0.046  0.00  0.00    +0.071 A 
ATOM      3  S   UNL     1       2.658  -0.506  -0.039  0.00  0.00    -0.060 S 
ATOM      4  C   UNL     1       2.357   1.205  -0.033  0.00  0.00    +0.165 A 
ATOM      5  N   UNL     1       3.579   1.701  -0.043  0.00  0.00    -0.230 NA
ATOM      6  N   UNL     1       1.142   1.877  -0.026  0.00  0.00    -0.261 N 
ATOM      7  C   UNL     1      -0.013   1.182  -0.022  0.00  0.00    +0.251 C 
ATOM      8  O   UNL     1       0.009  -0.034  -0.025  0.00  0.00    -0.270 OA
ATOM      9  H   UNL     1       1.122   2.977  -0.024  0.00  0.00    +0.157 HD
ENDROOT
BRANCH   7  10
ATOM     10  C   UNL     1      -1.303   1.896  -0.021  0.00  0.00    +0.053 A 
ATOM     11  C   UNL     1      -1.335   3.312  -0.018  0.00  0.00    +0.020 A 
ATOM     12  C   UNL     1      -2.538   3.944  -0.016  0.00  0.00    +0.071 A 
ATOM     13  C   UNL     1      -3.722   3.182  -0.018  0.00  0.00    +0.249 A 
ATOM     14  O   UNL     1      -4.804   3.744  -0.018  0.00  0.00    -0.268 OA
ATOM     15  N   UNL     1      -3.668   1.837  -0.021  0.00  0.00    -0.328 N 
ATOM     16  H   UNL     1      -4.598   1.250  -0.018  0.00  0.00    +0.168 HD
ATOM     17  C   UNL     1      -2.488   1.190  -0.028  0.00  0.00    +0.099 A 
ENDBRANCH   7  10
BRANCH   1  18
ATOM     18  C   UNL     1       6.029   1.491  -0.048  0.00  0.00    +0.065 C 
BRANCH  18  19
ATOM     19  C   UNL     1       6.177   2.454  -1.228  0.00  0.00    +0.102 C 
BRANCH  19  21
ATOM     20  N   UNL     1       7.930   3.911  -2.188  0.00  0.00    -0.285 N 
ATOM     21  C   UNL     1       7.569   3.032  -1.233  0.00  0.00    +0.218 C 
ATOM     22  O   UNL     1       8.364   2.706  -0.377  0.00  0.00    -0.275 OA
ATOM     23  H   UNL     1       7.236   4.149  -3.008  0.00  0.00    +0.155 HD
BRANCH  20  26
ATOM     24  C   UNL     1      10.586   6.434  -2.513  0.00  0.00    +0.003 A 
ATOM     25  C   UNL     1       9.344   5.832  -2.569  0.00  0.00    +0.023 A 
ATOM     26  C   UNL     1       9.189   4.521  -2.138  0.00  0.00    +0.034 A 
ATOM     27  C   UNL     1      10.286   3.815  -1.662  0.00  0.00    +0.038 A 
ATOM     28  C   UNL     1      11.527   4.421  -1.613  0.00  0.00    +0.020 A 
ATOM     29  C   UNL     1      11.677   5.729  -2.039  0.00  0.00    +0.015 A 
ATOM     30 BR   UNL     1      13.022   3.461  -0.965  0.00  0.00    -0.050 Br
ENDBRANCH  20  26
ENDBRANCH  19  21
ENDBRANCH  18  19
ENDBRANCH   1  18
TORSDOF 5
