REMARK  Name = ZINC14184348
REMARK  10 active torsions:
REMARK  status: ('A' for Active; 'I' for Inactive)
REMARK    1  A    between atoms: C_1  and  N_2
REMARK    2  A    between atoms: N_2  and  C_22
REMARK    3  A    between atoms: C_3  and  C_5
REMARK    4  A    between atoms: C_5  and  O_6
REMARK    5  A    between atoms: O_6  and  C_7
REMARK    6  A    between atoms: C_7  and  C_9
REMARK    7  A    between atoms: C_9  and  C_11
REMARK    8  A    between atoms: C_9  and  N_18
REMARK    9  A    between atoms: C_11  and  C_12
REMARK   10  A    between atoms: C_22  and  C_28
REMARK                            x       y       z     vdW  Elec       q    Type
REMARK                         _______ _______ _______ _____ _____    ______ ____
ROOT
ATOM      1  C   UNL     1       5.597   2.073   2.309  0.00  0.00    +0.328 C 
ATOM      2  O   UNL     1       6.114   2.782   1.478  0.00  0.00    -0.249 OA
ENDROOT
BRANCH   1   3
ATOM      3  O   UNL     1       4.316   1.696   2.167  0.00  0.00    -0.454 OA
BRANCH   3   4
ATOM      4  C   UNL     1       3.614   2.177   0.990  0.00  0.00    +0.327 C 
BRANCH   4   7
ATOM      5  C   UNL     1       1.814   2.829  -1.099  0.00  0.00    +0.133 C 
ATOM      6  N   UNL     1       1.357   1.975  -0.000  0.00  0.00    -0.283 N 
ATOM      7  C   UNL     1       2.200   1.655   1.001  0.00  0.00    +0.254 C 
ATOM      8  O   UNL     1       1.822   0.948   1.910  0.00  0.00    -0.272 OA
BRANCH   6   9
ATOM      9  C   UNL     1      -0.018   1.468   0.010  0.00  0.00    +0.124 C 
ATOM     10  C   UNL     1      -0.734   1.961   1.269  0.00  0.00    +0.041 C 
ATOM     11  C   UNL     1      -2.169   1.432   1.280  0.00  0.00    +0.003 C 
ATOM     12  C   UNL     1      -2.909   1.938   0.040  0.00  0.00    +0.000 C 
ATOM     13  C   UNL     1      -2.193   1.445  -1.219  0.00  0.00    +0.003 C 
ATOM     14  C   UNL     1      -0.758   1.975  -1.229  0.00  0.00    +0.041 C 
BRANCH   9  15
ATOM     15  C   UNL     1       0.002  -0.004   0.002  0.00  0.00    +0.089 C 
ATOM     16  N   UNL     1       0.018  -1.140  -0.004  0.00  0.00    -0.194 NA
ENDBRANCH   9  15
ENDBRANCH   6   9
ENDBRANCH   4   7
ENDBRANCH   3   4
ENDBRANCH   1   3
BRANCH   1  17
ATOM     17  C   UNL     1       6.390   1.613   3.505  0.00  0.00    +0.187 C 
BRANCH  17  18
ATOM     18  N   UNL     1       7.542   2.496   3.696  0.00  0.00    -0.286 N 
ATOM     19  C   UNL     1       8.465   2.620   2.721  0.00  0.00    +0.298 C 
ATOM     20  O   UNL     1       8.341   1.999   1.684  0.00  0.00    -0.253 OA
ATOM     21  N   UNL     1       9.526   3.433   2.897  0.00  0.00    -0.313 N 
ATOM     22  H   UNL     1       7.641   2.992   4.524  0.00  0.00    +0.151 HD
ATOM     23  H   UNL     1       9.625   3.929   3.725  0.00  0.00    +0.146 HD
ATOM     24  H   UNL     1      10.190   3.522   2.196  0.00  0.00    +0.146 HD
ENDBRANCH  17  18
BRANCH  17  25
ATOM     25  C   UNL     1       6.877   0.181   3.273  0.00  0.00    +0.069 C 
BRANCH  25  26
ATOM     26  C   UNL     1       7.564  -0.323   4.516  0.00  0.00    -0.045 A 
ATOM     27  C   UNL     1       8.924  -0.138   4.677  0.00  0.00    +0.004 A 
ATOM     28  C   UNL     1       9.553  -0.596   5.820  0.00  0.00    +0.000 A 
ATOM     29  C   UNL     1       8.824  -1.248   6.796  0.00  0.00    +0.000 A 
ATOM     30  C   UNL     1       7.465  -1.438   6.633  0.00  0.00    +0.000 A 
ATOM     31  C   UNL     1       6.835  -0.976   5.492  0.00  0.00    +0.004 A 
ENDBRANCH  25  26
ENDBRANCH  17  25
ENDBRANCH   1  17
TORSDOF 9
