REMARK  Name = ZINC22739360
REMARK  10 active torsions:
REMARK  status: ('A' for Active; 'I' for Inactive)
REMARK    1  A    between atoms: C_1  and  C_2
REMARK    2  A    between atoms: C_2  and  C_3
REMARK    3  A    between atoms: C_2  and  C_4
REMARK    4  A    between atoms: C_2  and  C_5
REMARK    5  A    between atoms: C_8  and  C_11
REMARK    6  A    between atoms: C_14  and  S_17
REMARK    7  A    between atoms: N_15  and  N_16
REMARK    8  A    between atoms: S_17  and  C_18
REMARK    9  A    between atoms: C_18  and  C_19
REMARK   10  A    between atoms: N_24  and  C_27
REMARK                            x       y       z     vdW  Elec       q    Type
REMARK                         _______ _______ _______ _____ _____    ______ ____
ROOT
ATOM      1  C   UNL     1       5.982   3.315   0.259  0.00  0.00    +0.182 A 
ATOM      2  N   UNL     1       5.020   4.207   0.295  0.00  0.00    -0.127 NA
ATOM      3  N   UNL     1       3.877   3.622   0.235  0.00  0.00    -0.121 NA
ATOM      4  C   UNL     1       4.040   2.320   0.157  0.00  0.00    +0.209 A 
ATOM      5  N   UNL     1       5.384   2.079   0.175  0.00  0.00    -0.224 N 
ENDROOT
BRANCH   1   9
ATOM      6  C   UNL     1      10.155   4.096   0.393  0.00  0.00    -0.042 A 
ATOM      7  C   UNL     1       9.257   5.087   0.747  0.00  0.00    +0.005 A 
ATOM      8  C   UNL     1       7.901   4.840   0.706  0.00  0.00    +0.012 A 
ATOM      9  C   UNL     1       7.434   3.587   0.305  0.00  0.00    +0.021 A 
ATOM     10  C   UNL     1       8.346   2.590  -0.046  0.00  0.00    +0.012 A 
ATOM     11  C   UNL     1       9.700   2.852  -0.005  0.00  0.00    +0.005 A 
BRANCH   6  13
ATOM     12  C   UNL     1      12.039   4.746   1.869  0.00  0.00    +0.015 C 
ATOM     13  C   UNL     1      11.636   4.373   0.441  0.00  0.00    -0.013 C 
ATOM     14  C   UNL     1      12.403   3.123   0.005  0.00  0.00    +0.015 C 
ATOM     15  C   UNL     1      11.969   5.531  -0.502  0.00  0.00    +0.015 C 
ENDBRANCH   6  13
ENDBRANCH   1   9
BRANCH   5  16
ATOM     16  N   UNL     1       6.005   0.864   0.119  0.00  0.00    -0.295 N 
ATOM     17  H   UNL     1       5.407  -0.057   0.053  0.00  0.00    +0.163 HD
ATOM     18  H   UNL     1       7.103   0.805   0.139  0.00  0.00    +0.163 HD
ENDBRANCH   5  16
BRANCH   4  19
ATOM     19  S   UNL     1       2.762   1.112   0.055  0.00  0.00    -0.075 S 
BRANCH  19  20
ATOM     20  C   UNL     1       1.307   2.188   0.092  0.00  0.00    +0.173 C 
BRANCH  20  21
ATOM     21  C   UNL     1       0.059   1.348   0.014  0.00  0.00    +0.226 C 
ATOM     22  O   UNL     1       0.144   0.140  -0.060  0.00  0.00    -0.275 OA
ATOM     23  N   UNL     1      -1.153   1.939   0.021  0.00  0.00    -0.298 N 
ATOM     24  C   UNL     1      -1.279   3.401   0.116  0.00  0.00    +0.123 C 
ATOM     25  C   UNL     1      -2.199   3.881  -1.018  0.00  0.00    +0.103 C 
ATOM     26  N   UNL     1      -3.468   3.143  -0.957  0.00  0.00    -0.295 NA
ATOM     27  C   UNL     1      -3.260   1.706  -1.182  0.00  0.00    +0.103 C 
ATOM     28  C   UNL     1      -2.384   1.138  -0.061  0.00  0.00    +0.123 C 
BRANCH  26  29
ATOM     29  C   UNL     1      -4.441   3.690  -1.912  0.00  0.00    +0.079 C 
ATOM     30  C   UNL     1      -5.789   2.968  -1.750  0.00  0.00    +0.043 C 
ATOM     31  C   UNL     1      -6.895   3.739  -2.510  0.00  0.00    +0.167 C 
ATOM     32  S   UNL     1      -6.278   5.471  -2.473  0.00  0.00    -0.029 S 
ATOM     33  O   UNL     1      -6.035   5.904  -3.804  0.00  0.00    -0.174 OA
ATOM     34  O   UNL     1      -7.121   6.244  -1.629  0.00  0.00    -0.174 OA
ATOM     35  C   UNL     1      -4.665   5.203  -1.625  0.00  0.00    +0.184 C 
ENDBRANCH  26  29
ENDBRANCH  20  21
ENDBRANCH  19  20
ENDBRANCH   4  19
TORSDOF 7
