REMARK  Name = ZINC22832948
REMARK  10 active torsions:
REMARK  status: ('A' for Active; 'I' for Inactive)
REMARK    1  A    between atoms: C_1  and  C_2
REMARK    2  A    between atoms: C_2  and  C_3
REMARK    3  A    between atoms: C_2  and  C_4
REMARK    4  A    between atoms: C_4  and  N_5
REMARK    5  A    between atoms: C_6  and  C_27
REMARK    6  A    between atoms: C_9  and  S_10
REMARK    7  A    between atoms: S_10  and  C_11
REMARK    8  A    between atoms: C_11  and  C_12
REMARK    9  A    between atoms: C_14  and  O_15
REMARK   10  A    between atoms: C_24  and  C_26
REMARK                            x       y       z     vdW  Elec       q    Type
REMARK                         _______ _______ _______ _____ _____    ______ ____
ROOT
ATOM      1  C   UNL     1      -0.848  -6.301   0.341  0.00  0.00    -0.020 A 
ATOM      2  C   UNL     1      -2.014  -6.998   0.339  0.00  0.00    +0.092 A 
ATOM      3  C   UNL     1      -3.242  -6.309   0.254  0.00  0.00    +0.285 A 
ATOM      4  O   UNL     1      -3.295  -4.970   0.176  0.00  0.00    -0.425 OA
ATOM      5  C   UNL     1      -2.173  -4.219   0.173  0.00  0.00    +0.141 A 
ATOM      6  C   UNL     1      -0.913  -4.841   0.254  0.00  0.00    +0.022 A 
ATOM      7  C   UNL     1       0.252  -4.067   0.252  0.00  0.00    +0.013 A 
ATOM      8  C   UNL     1       0.164  -2.708   0.166  0.00  0.00    +0.024 A 
ATOM      9  C   UNL     1      -1.081  -2.085   0.091  0.00  0.00    +0.037 A 
ATOM     10  C   UNL     1      -2.247  -2.837   0.092  0.00  0.00    +0.070 A 
ATOM     11  N   UNL     1      -1.156  -0.694   0.009  0.00  0.00    -0.286 N 
ATOM     12  C   UNL     1      -2.168  -0.037   0.609  0.00  0.00    +0.214 C 
ATOM     13  O   UNL     1      -3.058  -0.658   1.150  0.00  0.00    -0.276 OA
ATOM     14  C   UNL     1      -2.193   1.470   0.609  0.00  0.00    +0.109 C 
ATOM     15  H   UNL     1      -0.388  -0.134  -0.545  0.00  0.00    +0.155 HD
ENDROOT
BRANCH   3  16
ATOM     16  O   UNL     1      -4.280  -6.946   0.253  0.00  0.00    -0.480 OA
ATOM     17  H   UNL     1      -5.246  -6.423   0.188  0.00  0.00    +0.295 HD
ENDBRANCH   3  16
BRANCH   1  18
ATOM     18  C   UNL     1       0.478  -7.013   0.429  0.00  0.00    +0.113 C 
BRANCH  18  19
ATOM     19  S   UNL     1       1.070  -7.395  -1.238  0.00  0.00    -0.081 S 
BRANCH  19  24
ATOM     20  N   UNL     1       3.483  -8.720  -1.739  0.00  0.00    -0.299 N 
ATOM     21  C   UNL     1       4.508  -9.238  -0.977  0.00  0.00    +0.200 A 
ATOM     22  N   UNL     1       4.197  -9.024   0.282  0.00  0.00    -0.125 NA
ATOM     23  N   UNL     1       3.069  -8.412   0.358  0.00  0.00    -0.122 NA
ATOM     24  C   UNL     1       2.589  -8.198  -0.846  0.00  0.00    +0.192 A 
BRANCH  21  25
ATOM     25  C   UNL     1       5.717  -9.909  -1.478  0.00  0.00    +0.172 A 
ATOM     26  C   UNL     1       6.578 -10.664  -0.739  0.00  0.00    +0.053 A 
ATOM     27  C   UNL     1       7.584 -11.109  -1.618  0.00  0.00    +0.042 A 
ATOM     28  C   UNL     1       7.298 -10.604  -2.835  0.00  0.00    +0.196 A 
ATOM     29  O   UNL     1       6.170  -9.880  -2.747  0.00  0.00    -0.460 OA
ENDBRANCH  21  25
BRANCH  20  30
ATOM     30  C   UNL     1       3.376  -8.725  -3.200  0.00  0.00    +0.129 C 
BRANCH  30  32
ATOM     31  C   UNL     1       4.024  -7.523  -5.292  0.00  0.00    +0.009 C 
ATOM     32  C   UNL     1       4.024  -7.459  -3.763  0.00  0.00    +0.003 C 
ATOM     33  C   UNL     1       3.233  -6.233  -3.303  0.00  0.00    +0.009 C 
ENDBRANCH  30  32
ENDBRANCH  20  30
ENDBRANCH  19  24
ENDBRANCH  18  19
ENDBRANCH   1  18
TORSDOF 7
