REMARK  Name = ZINC25045948
REMARK  5 active torsions:
REMARK  status: ('A' for Active; 'I' for Inactive)
REMARK    1  A    between atoms: C_6  and  C_7
REMARK    2  A    between atoms: C_10  and  S_13
REMARK    3  A    between atoms: S_13  and  C_14
REMARK    4  A    between atoms: C_14  and  C_15
REMARK    5  A    between atoms: N_17  and  C_18
REMARK                            x       y       z     vdW  Elec       q    Type
REMARK                         _______ _______ _______ _____ _____    ______ ____
ROOT
ATOM      1  C   UNL     1      -3.601   1.693   0.129  0.00  0.00    +0.227 C 
ATOM      2  O   UNL     1      -3.621   2.905   0.137  0.00  0.00    -0.275 OA
ATOM      3  N   UNL     1      -2.428   1.038   0.018  0.00  0.00    -0.285 N 
ATOM      4  H   UNL     1      -2.416  -0.057  -0.077  0.00  0.00    +0.155 HD
ENDROOT
BRANCH   3   5
ATOM      5  C   UNL     1      -1.224   1.754   0.023  0.00  0.00    +0.037 A 
ATOM      6  C   UNL     1      -0.148   1.309  -0.734  0.00  0.00    +0.027 A 
ATOM      7  C   UNL     1       1.043   2.009  -0.725  0.00  0.00    +0.051 A 
ATOM      8  C   UNL     1       1.165   3.160   0.034  0.00  0.00    +0.167 A 
ATOM      9  C   UNL     1       0.084   3.614   0.790  0.00  0.00    +0.169 A 
ATOM     10  C   UNL     1      -1.108   2.912   0.781  0.00  0.00    +0.072 A 
ATOM     11  O   UNL     1       0.465   4.759   1.440  0.00  0.00    -0.447 OA
ATOM     12  C   UNL     1       1.581   5.232   0.672  0.00  0.00    +0.254 C 
ATOM     13  O   UNL     1       2.212   4.027   0.216  0.00  0.00    -0.448 OA
ATOM     14  C   UNL     1       2.533   6.069   1.533  0.00  0.00    +0.093 C 
ATOM     15  C   UNL     1       3.061   7.155   0.559  0.00  0.00    +0.008 C 
ATOM     16  C   UNL     1       1.818   7.473  -0.310  0.00  0.00    +0.008 C 
ATOM     17  C   UNL     1       1.126   6.104  -0.498  0.00  0.00    +0.093 C 
ENDBRANCH   3   5
BRANCH   1  18
ATOM     18  C   UNL     1      -4.888   0.917   0.243  0.00  0.00    +0.173 C 
BRANCH  18  19
ATOM     19  S   UNL     1      -6.277   2.070   0.376  0.00  0.00    -0.077 S 
BRANCH  19  23
ATOM     20  C   UNL     1      -9.599   0.034   0.670  0.00  0.00    +0.182 A 
ATOM     21  N   UNL     1      -8.937   1.239   0.621  0.00  0.00    -0.201 NA
ATOM     22  H   UNL     1      -6.635  -1.028   0.387  0.00  0.00    +0.191 HD
ATOM     23  C   UNL     1      -7.613   0.928   0.493  0.00  0.00    +0.185 A 
ATOM     24  N   UNL     1      -7.522  -0.383   0.473  0.00  0.00    -0.253 N 
ATOM     25  N   UNL     1      -8.691  -0.909   0.574  0.00  0.00    -0.152 NA
BRANCH  20  31
ATOM     26  C   UNL     1     -11.908   0.941   0.895  0.00  0.00    +0.013 A 
ATOM     27  C   UNL     1     -13.269   0.752   1.017  0.00  0.00    +0.021 A 
ATOM     28  C   UNL     1     -13.791  -0.530   1.062  0.00  0.00    +0.041 A 
ATOM     29  C   UNL     1     -12.952  -1.629   0.979  0.00  0.00    +0.021 A 
ATOM     30  C   UNL     1     -11.590  -1.452   0.852  0.00  0.00    +0.013 A 
ATOM     31  C   UNL     1     -11.058  -0.162   0.806  0.00  0.00    +0.021 A 
ATOM     32 CL   UNL     1     -15.504  -0.761   1.223  0.00  0.00    -0.084 Cl
ENDBRANCH  20  31
ENDBRANCH  19  23
ENDBRANCH  18  19
ENDBRANCH   1  18
TORSDOF 5
