REMARK  Name = ZINC18516755
REMARK  7 active torsions:
REMARK  status: ('A' for Active; 'I' for Inactive)
REMARK    1  A    between atoms: C_1  and  C_2
REMARK    2  A    between atoms: C_2  and  C_4
REMARK    3  A    between atoms: C_2  and  S_17
REMARK    4  A    between atoms: S_17  and  C_18
REMARK    5  A    between atoms: N_23  and  C_24
REMARK    6  A    between atoms: C_27  and  O_30
REMARK    7  A    between atoms: O_30  and  C_31
REMARK                            x       y       z     vdW  Elec       q    Type
REMARK                         _______ _______ _______ _____ _____    ______ ____
ROOT
ATOM      1  C   UNL     1      -2.232  -0.795   2.010  0.00  0.00    +0.161 A 
ATOM      2  N   UNL     1      -1.131  -1.510   1.885  0.00  0.00    -0.133 NA
ATOM      3  N   UNL     1      -1.212  -2.880   1.781  0.00  0.00    -0.125 NA
ATOM      4  C   UNL     1      -2.390  -3.471   1.806  0.00  0.00    +0.187 A 
ATOM      5  S   UNL     1      -3.483  -2.070   1.993  0.00  0.00    -0.024 S 
ATOM      6  N   UNL     1      -2.699  -4.824   1.718  0.00  0.00    -0.292 N 
ATOM      7  H   UNL     1      -3.625  -5.107   1.664  0.00  0.00    +0.154 HD
ENDROOT
BRANCH   6   8
ATOM      8  C   UNL     1      -1.674  -5.776   1.707  0.00  0.00    +0.033 A 
ATOM      9  C   UNL     1      -1.879  -7.010   1.104  0.00  0.00    +0.027 A 
ATOM     10  C   UNL     1      -0.865  -7.947   1.088  0.00  0.00    +0.048 A 
ATOM     11  C   UNL     1       0.354  -7.661   1.685  0.00  0.00    +0.130 A 
ATOM     12  C   UNL     1       0.558  -6.431   2.292  0.00  0.00    +0.048 A 
ATOM     13  C   UNL     1      -0.453  -5.490   2.304  0.00  0.00    +0.027 A 
BRANCH  11  14
ATOM     14  O   UNL     1       1.350  -8.587   1.674  0.00  0.00    -0.406 OA
BRANCH  14  15
ATOM     15  C   UNL     1       1.072  -9.832   1.031  0.00  0.00    +0.575 C 
ATOM     16  F   UNL     1       0.757  -9.603  -0.313  0.00  0.00    -0.133 F 
ATOM     17  F   UNL     1       2.196 -10.660   1.111  0.00  0.00    -0.133 F 
ATOM     18  F   UNL     1      -0.011 -10.452   1.664  0.00  0.00    -0.133 F 
ENDBRANCH  14  15
ENDBRANCH  11  14
ENDBRANCH   6   8
BRANCH   1  19
ATOM     19  S   UNL     1      -2.419   0.951   2.161  0.00  0.00    -0.084 S 
BRANCH  19  21
ATOM     20  C   UNL     1      -0.113   1.292   0.731  0.00  0.00    +0.029 C 
ATOM     21  C   UNL     1      -0.719   1.580   2.106  0.00  0.00    +0.136 C 
BRANCH  21  22
ATOM     22  C   UNL     1      -0.726   3.067   2.350  0.00  0.00    +0.233 C 
ATOM     23  O   UNL     1      -1.745   3.704   2.183  0.00  0.00    -0.274 OA
ATOM     24  N   UNL     1       0.399   3.690   2.753  0.00  0.00    -0.260 N 
ATOM     25  C   UNL     1       1.647   2.940   2.962  0.00  0.00    +0.209 C 
ATOM     26  C   UNL     1       2.313   3.437   4.220  0.00  0.00    +0.235 C 
ATOM     27  O   UNL     1       3.010   2.683   4.866  0.00  0.00    -0.274 OA
ATOM     28  N   UNL     1       2.144   4.706   4.636  0.00  0.00    -0.283 N 
ATOM     29  C   UNL     1       1.305   5.581   3.938  0.00  0.00    +0.055 A 
ATOM     30  C   UNL     1       0.419   5.075   2.981  0.00  0.00    +0.058 A 
ATOM     31  C   UNL     1      -0.417   5.926   2.283  0.00  0.00    +0.025 A 
ATOM     32  C   UNL     1      -0.370   7.287   2.527  0.00  0.00    +0.002 A 
ATOM     33  C   UNL     1       0.509   7.795   3.465  0.00  0.00    +0.002 A 
ATOM     34  C   UNL     1       1.344   6.945   4.180  0.00  0.00    +0.025 A 
ATOM     35  H   UNL     1       2.608   5.017   5.429  0.00  0.00    +0.155 HD
ENDBRANCH  21  22
ENDBRANCH  19  21
ENDBRANCH   1  19
TORSDOF 6
