REMARK  Name = ZINC39660343
REMARK  9 active torsions:
REMARK  status: ('A' for Active; 'I' for Inactive)
REMARK    1  A    between atoms: C_1  and  C_2
REMARK    2  A    between atoms: C_2  and  C_3
REMARK    3  A    between atoms: C_3  and  C_4
REMARK    4  A    between atoms: C_4  and  C_5
REMARK    5  A    between atoms: C_5  and  C_6
REMARK    6  A    between atoms: C_6  and  N_7
REMARK    7  A    between atoms: C_8  and  C_10
REMARK    8  A    between atoms: C_21  and  C_23
REMARK    9  A    between atoms: C_27  and  C_29
REMARK                            x       y       z     vdW  Elec       q    Type
REMARK                         _______ _______ _______ _____ _____    ______ ____
ROOT
ATOM      1  C   UNL     1       2.308  -6.356  -5.165  0.00  0.00    +0.100 C 
ATOM      2  C   UNL     1       1.800  -5.962  -6.570  0.00  0.00    +0.121 C 
ATOM      3  N   UNL     1       2.073  -7.149  -7.414  0.00  0.00    -0.296 N 
ATOM      4  C   UNL     1       1.752  -8.303  -6.541  0.00  0.00    +0.115 C 
ATOM      5  C   UNL     1       2.275  -7.893  -5.150  0.00  0.00    -0.004 C 
ATOM      6  C   UNL     1       1.327  -8.390  -4.063  0.00  0.00    -0.010 C 
ATOM      7  C   UNL     1       1.355  -9.921  -4.028  0.00  0.00    -0.082 C 
ATOM      8  N   UNL     1       2.723 -10.381  -3.760  0.00  0.00    +0.379 N 
ATOM      9  C   UNL     1       3.610  -9.978  -4.857  0.00  0.00    -0.082 C 
ATOM     10  C   UNL     1       3.678  -8.450  -4.927  0.00  0.00    -0.010 C 
ATOM     11  C   UNL     1       2.514  -7.173  -8.687  0.00  0.00    +0.247 C 
ATOM     12  O   UNL     1       2.858  -6.142  -9.231  0.00  0.00    -0.270 OA
ATOM     13  H   UNL     1       3.050  -9.973  -2.897  0.00  0.00    -0.086 HD
ATOM     14  H   UNL     1       2.727 -11.386  -3.677  0.00  0.00    -0.086 HD
ENDROOT
BRANCH  11  15
ATOM     15  C   UNL     1       2.581  -8.454  -9.421  0.00  0.00    +0.037 A 
ATOM     16  C   UNL     1       1.814  -9.543  -9.001  0.00  0.00    +0.016 A 
ATOM     17  C   UNL     1       1.880 -10.735  -9.689  0.00  0.00    +0.039 A 
ATOM     18  C   UNL     1       2.706 -10.854 -10.797  0.00  0.00    +0.126 A 
ATOM     19  C   UNL     1       3.469  -9.776 -11.219  0.00  0.00    -0.015 A 
ATOM     20  C   UNL     1       3.406  -8.577 -10.541  0.00  0.00    +0.019 A 
ATOM     21  C   UNL     1       4.364  -9.913 -12.423  0.00  0.00    +0.047 C 
ATOM     22  F   UNL     1       2.767 -12.025 -11.468  0.00  0.00    -0.205 F 
ENDBRANCH  11  15
BRANCH   1  24
ATOM     23  N   UNL     1       1.891  -5.478  -2.890  0.00  0.00    -0.315 N 
ATOM     24  C   UNL     1       1.396  -5.800  -4.102  0.00  0.00    +0.218 C 
ATOM     25  O   UNL     1       0.217  -5.643  -4.336  0.00  0.00    -0.275 OA
ATOM     26  H   UNL     1       2.835  -5.603  -2.703  0.00  0.00    +0.149 HD
BRANCH  23  27
ATOM     27  C   UNL     1       1.005  -4.937  -1.857  0.00  0.00    +0.104 C 
BRANCH  27  28
ATOM     28  C   UNL     1       1.812  -4.658  -0.588  0.00  0.00    +0.019 C 
BRANCH  28  29
ATOM     29  C   UNL     1       0.886  -4.094   0.492  0.00  0.00    +0.002 C 
BRANCH  29  30
ATOM     30  C   UNL     1       1.693  -3.814   1.761  0.00  0.00    -0.000 C 
BRANCH  30  32
ATOM     31  C   UNL     1       1.575  -2.971   4.110  0.00  0.00    +0.004 C 
ATOM     32  C   UNL     1       0.767  -3.250   2.841  0.00  0.00    -0.003 C 
ENDBRANCH  30  32
ENDBRANCH  29  30
ENDBRANCH  28  29
ENDBRANCH  27  28
ENDBRANCH  23  27
ENDBRANCH   1  24
TORSDOF 7
