REMARK  Name = ZINC38971177
REMARK  8 active torsions:
REMARK  status: ('A' for Active; 'I' for Inactive)
REMARK    1  A    between atoms: C_1  and  C_2
REMARK    2  A    between atoms: C_5  and  C_8
REMARK    3  A    between atoms: C_8  and  N_9
REMARK    4  A    between atoms: N_9  and  C_10
REMARK    5  A    between atoms: N_13  and  S_14
REMARK    6  A    between atoms: S_14  and  C_17
REMARK    7  A    between atoms: C_20  and  O_23
REMARK    8  A    between atoms: O_23  and  C_24
REMARK                            x       y       z     vdW  Elec       q    Type
REMARK                         _______ _______ _______ _____ _____    ______ ____
ROOT
ATOM      1  C   UNL     1       1.509  -6.215  -0.040  0.00  0.00    +0.218 C 
ATOM      2  C   UNL     1       2.464  -6.633  -1.135  0.00  0.00    +0.167 C 
ATOM      3  N   UNL     1       2.257  -6.267  -2.366  0.00  0.00    -0.112 NA
ATOM      4  N   UNL     1       3.529  -7.386  -0.818  0.00  0.00    -0.338 N 
ATOM      5  C   UNL     1       3.760  -7.769   0.420  0.00  0.00    +0.064 A 
ATOM      6  C   UNL     1       4.895  -8.565   0.719  0.00  0.00    +0.028 A 
ATOM      7  C   UNL     1       5.137  -8.960   1.988  0.00  0.00    +0.002 A 
ATOM      8  C   UNL     1       4.301  -8.617   3.063  0.00  0.00    +0.002 A 
ATOM      9  C   UNL     1       3.193  -7.863   2.889  0.00  0.00    +0.027 A 
ATOM     10  C   UNL     1       2.860  -7.391   1.537  0.00  0.00    +0.060 A 
ATOM     11  N   UNL     1       1.800  -6.660   1.331  0.00  0.00    -0.362 N 
ATOM     12  H   UNL     1       1.216  -6.417   2.067  0.00  0.00    +0.162 HD
ATOM     13  H   UNL     1       4.143  -7.655  -1.519  0.00  0.00    +0.167 HD
ENDROOT
BRANCH   3  14
ATOM     14  S   UNL     1       3.311  -6.732  -3.556  0.00  0.00    +0.100 S 
ATOM     15  O   UNL     1       4.545  -6.083  -3.281  0.00  0.00    -0.146 OA
ATOM     16  O   UNL     1       3.201  -8.144  -3.667  0.00  0.00    -0.146 OA
BRANCH  14  17
ATOM     17  C   UNL     1       2.715  -6.059  -5.071  0.00  0.00    +0.113 A 
ATOM     18  C   UNL     1       1.830  -6.785  -5.848  0.00  0.00    +0.032 A 
ATOM     19  C   UNL     1       1.362  -6.260  -7.037  0.00  0.00    +0.047 A 
ATOM     20  C   UNL     1       1.779  -5.004  -7.451  0.00  0.00    +0.120 A 
ATOM     21  C   UNL     1       2.666  -4.277  -6.670  0.00  0.00    +0.047 A 
ATOM     22  C   UNL     1       3.128  -4.804  -5.479  0.00  0.00    +0.032 A 
BRANCH  20  23
ATOM     23  O   UNL     1       1.320  -4.485  -8.620  0.00  0.00    -0.495 OA
ATOM     24  C   UNL     1       1.792  -3.187  -8.984  0.00  0.00    +0.277 C 
ENDBRANCH  20  23
ENDBRANCH  14  17
ENDBRANCH   3  14
BRANCH   1  25
ATOM     25  N   UNL     1       1.451  -4.747  -0.032  0.00  0.00    -0.287 NA
ATOM     26  H   UNL     1       1.958  -4.361  -0.814  0.00  0.00    +0.125 HD
BRANCH  25  27
ATOM     27  C   UNL     1       0.059  -4.275  -0.021  0.00  0.00    +0.118 C 
BRANCH  27  32
ATOM     28  C   UNL     1      -0.018   1.503   0.010  0.00  0.00    +0.044 C 
ATOM     29  C   UNL     1       0.002  -0.004   0.002  0.00  0.00    -0.050 A 
ATOM     30  C   UNL     1       0.006  -0.689  -1.199  0.00  0.00    +0.003 A 
ATOM     31  C   UNL     1       0.025  -2.071  -1.206  0.00  0.00    +0.005 A 
ATOM     32  C   UNL     1       0.040  -2.768  -0.013  0.00  0.00    -0.033 A 
ATOM     33  C   UNL     1       0.037  -2.084   1.188  0.00  0.00    +0.005 A 
ATOM     34  C   UNL     1       0.023  -0.702   1.195  0.00  0.00    +0.003 A 
ENDBRANCH  27  32
ENDBRANCH  25  27
ENDBRANCH   1  25
TORSDOF 6
