REMARK  Name = ZINC29385808
REMARK  5 active torsions:
REMARK  status: ('A' for Active; 'I' for Inactive)
REMARK    1  A    between atoms: C_1  and  C_2
REMARK    2  A    between atoms: C_5  and  C_8
REMARK    3  A    between atoms: C_8  and  N_9
REMARK    4  A    between atoms: C_16  and  C_18
REMARK    5  A    between atoms: C_18  and  C_19
REMARK                            x       y       z     vdW  Elec       q    Type
REMARK                         _______ _______ _______ _____ _____    ______ ____
ROOT
ATOM      1  N   UNL     1       3.491   8.941   0.215  0.00  0.00    -0.331 N 
ATOM      2  C   UNL     1       4.784   9.337   0.313  0.00  0.00    +0.088 A 
ATOM      3  C   UNL     1       5.788   8.426   0.301  0.00  0.00    +0.018 A 
ATOM      4  C   UNL     1       5.497   7.062   0.193  0.00  0.00    +0.005 A 
ATOM      5  C   UNL     1       4.195   6.658   0.100  0.00  0.00    +0.042 A 
ATOM      6  C   UNL     1       3.176   7.619   0.114  0.00  0.00    +0.105 A 
ATOM      7  N   UNL     1       1.892   7.239   0.023  0.00  0.00    -0.271 N 
ATOM      8  C   UNL     1       1.581   5.952   0.027  0.00  0.00    +0.224 C 
ATOM      9  O   UNL     1       1.949   5.240   0.943  0.00  0.00    -0.275 OA
ATOM     10  H   UNL     1       1.099   7.997  -0.055  0.00  0.00    +0.156 HD
ENDROOT
BRANCH   1  11
ATOM     11  C   UNL     1       2.423   9.944   0.224  0.00  0.00    +0.158 C 
BRANCH  11  16
ATOM     12  C   UNL     1       4.097  14.515   3.338  0.00  0.00    +0.044 C 
ATOM     13  C   UNL     1       3.660  13.323   2.526  0.00  0.00    -0.050 A 
ATOM     14  C   UNL     1       3.922  13.277   1.169  0.00  0.00    +0.004 A 
ATOM     15  C   UNL     1       3.521  12.184   0.424  0.00  0.00    +0.005 A 
ATOM     16  C   UNL     1       2.859  11.136   1.036  0.00  0.00    -0.028 A 
ATOM     17  C   UNL     1       2.592  11.184   2.392  0.00  0.00    +0.005 A 
ATOM     18  C   UNL     1       2.996  12.276   3.137  0.00  0.00    +0.004 A 
ENDBRANCH  11  16
ENDBRANCH   1  11
BRANCH   8  19
ATOM     19  C   UNL     1       0.771   5.369  -1.102  0.00  0.00    +0.154 C 
BRANCH  19  20
ATOM     20  C   UNL     1       0.556   3.897  -0.859  0.00  0.00    +0.078 A 
ATOM     21  C   UNL     1      -0.206   3.101  -1.820  0.00  0.00    +0.011 A 
ATOM     22  C   UNL     1      -0.751   3.664  -2.976  0.00  0.00    +0.010 A 
ATOM     23  C   UNL     1      -1.456   2.877  -3.844  0.00  0.00    +0.001 A 
ATOM     24  C   UNL     1      -1.638   1.523  -3.594  0.00  0.00    +0.001 A 
ATOM     25  C   UNL     1      -1.111   0.940  -2.462  0.00  0.00    +0.014 A 
ATOM     26  C   UNL     1      -0.384   1.722  -1.565  0.00  0.00    +0.050 A 
ATOM     27  C   UNL     1       0.197   1.162  -0.338  0.00  0.00    +0.272 A 
ATOM     28  O   UNL     1       0.066  -0.020  -0.073  0.00  0.00    -0.266 OA
ATOM     29  N   UNL     1       0.884   1.980   0.486  0.00  0.00    -0.242 N 
ATOM     30  H   UNL     1       1.332   1.581   1.409  0.00  0.00    +0.192 HD
ATOM     31  N   UNL     1       1.048   3.336   0.205  0.00  0.00    -0.175 NA
ENDBRANCH  19  20
ENDBRANCH   8  19
TORSDOF 4
