REMARK  Name = ZINC00029447
REMARK  8 active torsions:
REMARK  status: ('A' for Active; 'I' for Inactive)
REMARK    1  A    between atoms: C_1  and  C_2
REMARK    2  A    between atoms: C_2  and  N_3
REMARK    3  A    between atoms: N_3  and  C_4
REMARK    4  A    between atoms: N_3  and  S_10
REMARK    5  A    between atoms: S_10  and  C_13
REMARK    6  A    between atoms: C_14  and  C_21
REMARK    7  A    between atoms: C_16  and  C_20
REMARK    8  A    between atoms: C_18  and  C_19
REMARK                            x       y       z     vdW  Elec       q    Type
REMARK                         _______ _______ _______ _____ _____    ______ ____
ROOT
ATOM      1  S   UNL     1      -2.612   1.047  -0.008  0.00  0.00    +0.062 S 
ATOM      2  O   UNL     1      -3.706   1.949   0.086  0.00  0.00    -0.153 OA
ATOM      3  O   UNL     1      -1.851   0.894  -1.198  0.00  0.00    -0.153 OA
ENDROOT
BRANCH   1   4
ATOM      4  C   UNL     1      -1.477   1.499   1.262  0.00  0.00    +0.111 A 
ATOM      5  C   UNL     1      -0.129   1.229   1.112  0.00  0.00    -0.024 A 
ATOM      6  C   UNL     1       0.761   1.580   2.110  0.00  0.00    +0.008 A 
ATOM      7  C   UNL     1       0.303   2.202   3.257  0.00  0.00    -0.050 A 
ATOM      8  C   UNL     1      -1.044   2.475   3.405  0.00  0.00    +0.008 A 
ATOM      9  C   UNL     1      -1.933   2.126   2.406  0.00  0.00    -0.024 A 
ATOM     10  C   UNL     1      -3.402   2.423   2.568  0.00  0.00    +0.046 C 
ATOM     11  C   UNL     1       1.274   2.583   4.345  0.00  0.00    +0.044 C 
ATOM     12  C   UNL     1       0.369   0.551  -0.138  0.00  0.00    +0.046 C 
ENDBRANCH   1   4
BRANCH   1  13
ATOM     13  N   UNL     1      -3.202  -0.453   0.373  0.00  0.00    -0.174 NA
BRANCH  13  14
ATOM     14  C   UNL     1      -4.489  -0.581   1.061  0.00  0.00    +0.080 C 
ATOM     15  C   UNL     1      -4.269  -1.201   2.442  0.00  0.00    +0.020 C 
ATOM     16  C   UNL     1      -5.613  -1.335   3.160  0.00  0.00    +0.002 C 
ATOM     17  C   UNL     1      -6.543  -2.232   2.340  0.00  0.00    +0.000 C 
ATOM     18  C   UNL     1      -6.762  -1.612   0.959  0.00  0.00    +0.002 C 
ATOM     19  C   UNL     1      -5.418  -1.478   0.241  0.00  0.00    +0.020 C 
ENDBRANCH  13  14
BRANCH  13  21
ATOM     20  C   UNL     1      -1.561  -2.063   1.208  0.00  0.00    +0.022 C 
ATOM     21  C   UNL     1      -2.436  -1.651   0.022  0.00  0.00    +0.106 C 
ENDBRANCH  13  21
ENDBRANCH   1  13
TORSDOF 4
