REMARK  Name = ZINC39444683
REMARK  6 active torsions:
REMARK  status: ('A' for Active; 'I' for Inactive)
REMARK    1  A    between atoms: C_4  and  C_7
REMARK    2  A    between atoms: C_8  and  C_30
REMARK    3  A    between atoms: N_9  and  C_24
REMARK    4  A    between atoms: C_10  and  S_12
REMARK    5  A    between atoms: S_12  and  C_13
REMARK    6  A    between atoms: C_13  and  C_14
REMARK                            x       y       z     vdW  Elec       q    Type
REMARK                         _______ _______ _______ _____ _____    ______ ____
ROOT
ATOM      1  C   UNL     1       3.820  -0.682  -0.139  0.00  0.00    +0.111 C 
ATOM      2  C   UNL     1       4.305  -1.288  -1.474  0.00  0.00    +0.127 C 
ATOM      3  N   UNL     1       4.705  -2.672  -1.163  0.00  0.00    -0.297 N 
ATOM      4  C   UNL     1       4.493  -2.869   0.284  0.00  0.00    +0.203 C 
ATOM      5  N   UNL     1       3.455  -1.878   0.669  0.00  0.00    -0.281 NA
ATOM      6  H   UNL     1       3.498  -1.675   1.656  0.00  0.00    +0.125 HD
ENDROOT
BRANCH   1  10
ATOM      7  C   UNL     1       0.405   1.806  -0.771  0.00  0.00    +0.000 A 
ATOM      8  C   UNL     1       1.642   2.376  -0.533  0.00  0.00    +0.000 A 
ATOM      9  C   UNL     1       2.747   1.571  -0.328  0.00  0.00    +0.005 A 
ATOM     10  C   UNL     1       2.615   0.196  -0.361  0.00  0.00    -0.028 A 
ATOM     11  C   UNL     1       1.378  -0.375  -0.598  0.00  0.00    +0.005 A 
ATOM     12  C   UNL     1       0.274   0.430  -0.804  0.00  0.00    +0.000 A 
ENDBRANCH   1  10
BRANCH   3  13
ATOM     13  C   UNL     1       5.193  -3.619  -2.067  0.00  0.00    +0.032 A 
ATOM     14  C   UNL     1       5.222  -3.332  -3.426  0.00  0.00    +0.023 A 
ATOM     15  C   UNL     1       5.705  -4.270  -4.317  0.00  0.00    +0.002 A 
ATOM     16  C   UNL     1       6.159  -5.493  -3.858  0.00  0.00    +0.000 A 
ATOM     17  C   UNL     1       6.131  -5.781  -2.506  0.00  0.00    +0.002 A 
ATOM     18  C   UNL     1       5.655  -4.846  -1.609  0.00  0.00    +0.023 A 
ENDBRANCH   3  13
BRANCH   2  19
ATOM     19  C   UNL     1       3.188  -1.284  -2.484  0.00  0.00    -0.025 A 
ATOM     20  C   UNL     1       2.281  -2.327  -2.517  0.00  0.00    +0.005 A 
ATOM     21  C   UNL     1       1.256  -2.323  -3.444  0.00  0.00    +0.000 A 
ATOM     22  C   UNL     1       1.137  -1.276  -4.338  0.00  0.00    +0.000 A 
ATOM     23  C   UNL     1       2.042  -0.232  -4.305  0.00  0.00    +0.000 A 
ATOM     24  C   UNL     1       3.065  -0.234  -3.375  0.00  0.00    +0.005 A 
ENDBRANCH   2  19
BRANCH   4  25
ATOM     25  S   UNL     1       3.905  -4.554   0.609  0.00  0.00    -0.115 S 
BRANCH  25  26
ATOM     26  C   UNL     1       4.121  -4.756   2.399  0.00  0.00    +0.146 C 
BRANCH  26  27
ATOM     27  C   UNL     1       3.552  -6.084   2.826  0.00  0.00    +0.118 A 
ATOM     28  N   UNL     1       2.265  -6.291   3.217  0.00  0.00    -0.341 N 
ATOM     29  H   UNL     1       1.565  -5.622   3.267  0.00  0.00    +0.167 HD
ATOM     30  C   UNL     1       2.140  -7.631   3.527  0.00  0.00    +0.066 A 
ATOM     31  C   UNL     1       1.094  -8.427   3.973  0.00  0.00    +0.028 A 
ATOM     32  C   UNL     1       1.305  -9.771   4.194  0.00  0.00    +0.002 A 
ATOM     33  C   UNL     1       2.555 -10.333   3.973  0.00  0.00    +0.002 A 
ATOM     34  C   UNL     1       3.596  -9.565   3.533  0.00  0.00    +0.030 A 
ATOM     35  C   UNL     1       3.405  -8.200   3.303  0.00  0.00    +0.089 A 
ATOM     36  N   UNL     1       4.218  -7.201   2.871  0.00  0.00    -0.232 NA
ENDBRANCH  26  27
ENDBRANCH  25  26
ENDBRANCH   4  25
TORSDOF 6
