REMARK  Name = ZINC08817064
REMARK  8 active torsions:
REMARK  status: ('A' for Active; 'I' for Inactive)
REMARK    1  A    between atoms: C_1  and  N_55
REMARK    2  A    between atoms: C_9  and  O_32
REMARK    3  A    between atoms: C_11  and  C_14
REMARK    4  A    between atoms: C_17  and  O_22
REMARK    5  A    between atoms: C_18  and  O_20
REMARK    6  A    between atoms: O_20  and  C_21
REMARK    7  A    between atoms: O_22  and  C_23
REMARK    8  A    between atoms: C_23  and  C_25
REMARK                            x       y       z     vdW  Elec       q    Type
REMARK                         _______ _______ _______ _____ _____    ______ ____
ROOT
ATOM      1  C   UNL     1      -6.540   0.177  -0.937  0.00  0.00    -0.096 C 
ATOM      2  C   UNL     1      -4.301  -0.321  -0.162  0.00  0.00    -0.074 C 
ATOM      3  C   UNL     1      -2.822  -0.042  -0.445  0.00  0.00    +0.018 C 
ATOM      4  C   UNL     1      -2.558   1.437  -0.188  0.00  0.00    -0.027 A 
ATOM      5  C   UNL     1      -3.594   2.309  -0.135  0.00  0.00    -0.021 A 
ATOM      6  S   UNL     1      -2.846   3.885   0.179  0.00  0.00    -0.080 S 
ATOM      7  C   UNL     1      -1.208   3.394   0.239  0.00  0.00    +0.080 A 
ATOM      8  C   UNL     1      -1.242   2.012   0.004  0.00  0.00    +0.067 A 
ATOM      9  C   UNL     1       0.058   1.293  -0.005  0.00  0.00    +0.220 C 
ATOM     10  N   UNL     1       1.148   2.008  -0.007  0.00  0.00    -0.223 NA
ATOM     11  C   UNL     1       1.188   3.462  -0.097  0.00  0.00    +0.224 C 
ATOM     12  N   UNL     1      -0.035   4.076   0.452  0.00  0.00    -0.313 N 
ATOM     13  C   UNL     1      -5.043   1.981  -0.309  0.00  0.00    -0.036 C 
ATOM     14  H   UNL     1      -0.012   4.916   0.937  0.00  0.00    +0.149 HD
ATOM     15  N   UNL     1      -5.134   0.633  -0.922  0.00  0.00    +0.381 N 
ATOM     16  H   UNL     1      -4.789   0.682  -1.888  0.00  0.00    -0.082 HD
ENDROOT
BRANCH  11  17
ATOM     17  C   UNL     1       1.333   3.862  -1.542  0.00  0.00    -0.002 A 
ATOM     18  C   UNL     1       0.794   5.056  -1.985  0.00  0.00    +0.011 A 
ATOM     19  C   UNL     1       0.928   5.429  -3.309  0.00  0.00    +0.050 A 
ATOM     20  C   UNL     1       1.595   4.601  -4.199  0.00  0.00    +0.173 A 
ATOM     21  C   UNL     1       2.133   3.397  -3.754  0.00  0.00    +0.163 A 
ATOM     22  C   UNL     1       2.000   3.032  -2.424  0.00  0.00    +0.056 A 
BRANCH  21  23
ATOM     23  O   UNL     1       2.788   2.582  -4.622  0.00  0.00    -0.491 OA
ATOM     24  C   UNL     1       3.314   1.362  -4.096  0.00  0.00    +0.277 C 
ENDBRANCH  21  23
BRANCH  20  25
ATOM     25  O   UNL     1       1.723   4.964  -5.503  0.00  0.00    -0.419 OA
BRANCH  25  26
ATOM     26  C   UNL     1       0.853   4.422  -6.377  0.00  0.00    +0.346 C 
ATOM     27  O   UNL     1      -0.057   3.724  -5.975  0.00  0.00    -0.244 OA
BRANCH  26  28
ATOM     28  C   UNL     1       1.005   4.675  -7.823  0.00  0.00    +0.078 A 
ATOM     29  C   UNL     1       2.046   5.481  -8.289  0.00  0.00    +0.016 A 
ATOM     30  C   UNL     1       2.186   5.710  -9.642  0.00  0.00    +0.001 A 
ATOM     31  C   UNL     1       1.291   5.151 -10.538  0.00  0.00    +0.001 A 
ATOM     32  C   UNL     1       0.255   4.356 -10.085  0.00  0.00    +0.021 A 
ATOM     33  C   UNL     1       0.105   4.114  -8.733  0.00  0.00    +0.055 A 
ATOM     34 CL   UNL     1      -1.197   3.116  -8.166  0.00  0.00    -0.083 Cl
ENDBRANCH  26  28
ENDBRANCH  25  26
ENDBRANCH  20  25
ENDBRANCH  11  17
BRANCH   9  35
ATOM     35  O   UNL     1       0.108  -0.059  -0.016  0.00  0.00    -0.492 OA
ATOM     36  H   UNL     1       1.006  -0.419  -0.025  0.00  0.00    +0.294 HD
ENDBRANCH   9  35
TORSDOF 6
