REMARK  Name = ZINC45322775
REMARK  7 active torsions:
REMARK  status: ('A' for Active; 'I' for Inactive)
REMARK    1  A    between atoms: C_1  and  O_2
REMARK    2  A    between atoms: O_2  and  C_3
REMARK    3  A    between atoms: C_8  and  O_9
REMARK    4  A    between atoms: O_9  and  C_10
REMARK    5  A    between atoms: N_15  and  C_16
REMARK    6  A    between atoms: C_16  and  C_17
REMARK    7  A    between atoms: C_28  and  C_31
REMARK                            x       y       z     vdW  Elec       q    Type
REMARK                         _______ _______ _______ _____ _____    ______ ____
ROOT
ATOM      1  C   UNL     1      -1.201  -0.638   0.025  0.00  0.00    +0.162 A 
ATOM      2  C   UNL     1      -2.352   0.098   0.019  0.00  0.00    +0.062 A 
ATOM      3  C   UNL     1      -3.592  -0.553   0.027  0.00  0.00    +0.042 A 
ATOM      4  C   UNL     1      -3.646  -1.969   0.041  0.00  0.00    +0.056 A 
ATOM      5  C   UNL     1      -2.454  -2.703   0.047  0.00  0.00    +0.075 A 
ATOM      6  C   UNL     1      -1.247  -2.038   0.034  0.00  0.00    +0.163 A 
ATOM      7  N   UNL     1      -4.846  -2.570   0.048  0.00  0.00    -0.327 N 
ATOM      8  C   UNL     1      -5.952  -1.852   0.041  0.00  0.00    +0.198 A 
ATOM      9  N   UNL     1      -5.946  -0.522   0.028  0.00  0.00    -0.201 NA
ATOM     10  C   UNL     1      -4.813   0.164   0.021  0.00  0.00    +0.132 A 
ATOM     11  N   UNL     1      -4.822   1.544   0.007  0.00  0.00    -0.324 N 
ATOM     12  N   UNL     1      -7.170  -2.510   0.048  0.00  0.00    -0.301 N 
ATOM     13  C   UNL     1      -7.231  -3.974  -0.057  0.00  0.00    +0.108 C 
ATOM     14  C   UNL     1      -8.164  -4.346  -1.214  0.00  0.00    +0.027 C 
ATOM     15  C   UNL     1      -9.523  -3.675  -1.004  0.00  0.00    +0.022 C 
ATOM     16  C   UNL     1      -9.346  -2.154  -0.996  0.00  0.00    +0.027 C 
ATOM     17  C   UNL     1      -8.426  -1.757   0.168  0.00  0.00    +0.108 C 
ATOM     18  H   UNL     1      -3.985   2.034   0.003  0.00  0.00    +0.148 HD
ATOM     19  H   UNL     1      -4.900  -3.539   0.057  0.00  0.00    +0.169 HD
ENDROOT
BRANCH  15  20
ATOM     20  C   UNL     1     -10.454  -4.066  -2.122  0.00  0.00    -0.044 A 
ATOM     21  C   UNL     1     -10.127  -3.767  -3.431  0.00  0.00    +0.004 A 
ATOM     22  C   UNL     1     -10.981  -4.126  -4.457  0.00  0.00    +0.000 A 
ATOM     23  C   UNL     1     -12.163  -4.785  -4.173  0.00  0.00    +0.000 A 
ATOM     24  C   UNL     1     -12.490  -5.085  -2.864  0.00  0.00    +0.000 A 
ATOM     25  C   UNL     1     -11.633  -4.730  -1.839  0.00  0.00    +0.004 A 
ENDBRANCH  15  20
BRANCH   1  27
ATOM     26  C   UNL     1      -0.017   1.425   0.009  0.00  0.00    +0.277 C 
ATOM     27  O   UNL     1       0.002  -0.004   0.018  0.00  0.00    -0.491 OA
ENDBRANCH   1  27
BRANCH   6  28
ATOM     28  O   UNL     1      -0.088  -2.748   0.034  0.00  0.00    -0.491 OA
ATOM     29  C   UNL     1      -0.201  -4.173   0.043  0.00  0.00    +0.277 C 
ENDBRANCH   6  28
BRANCH  11  30
ATOM     30  C   UNL     1      -6.095   2.268   0.001  0.00  0.00    +0.139 C 
BRANCH  30  31
ATOM     31  C   UNL     1      -5.829   3.751  -0.013  0.00  0.00    -0.014 A 
ATOM     32  C   UNL     1      -5.595   4.433   1.189  0.00  0.00    +0.012 A 
ATOM     33  C   UNL     1      -5.356   5.776   1.158  0.00  0.00    +0.070 A 
ATOM     34  C   UNL     1      -5.350   6.445  -0.077  0.00  0.00    +0.249 A 
ATOM     35  O   UNL     1      -5.137   7.646  -0.120  0.00  0.00    -0.268 OA
ATOM     36  N   UNL     1      -5.578   5.762  -1.215  0.00  0.00    -0.329 N 
ATOM     37  H   UNL     1      -5.572   6.230  -2.065  0.00  0.00    +0.168 HD
ATOM     38  C   UNL     1      -5.811   4.425  -1.187  0.00  0.00    +0.091 A 
ENDBRANCH  30  31
ENDBRANCH  11  30
TORSDOF 5
