REMARK  Name = ZINC01632165
REMARK  4 active torsions:
REMARK  status: ('A' for Active; 'I' for Inactive)
REMARK    1  A    between atoms: C_1  and  C_2
REMARK    2  A    between atoms: C_2  and  C_3
REMARK    3  A    between atoms: C_3  and  C_4
REMARK    4  A    between atoms: C_4  and  N_5
REMARK                            x       y       z     vdW  Elec       q    Type
REMARK                         _______ _______ _______ _____ _____    ______ ____
ROOT
ATOM      1  N   UNL     1      -1.413  -1.998   0.005  0.00  0.00    -0.339 N 
ATOM      2  C   UNL     1      -1.293  -2.793   1.133  0.00  0.00    +0.050 A 
ATOM      3  C   UNL     1      -1.166  -2.487   2.484  0.00  0.00    +0.026 A 
ATOM      4  C   UNL     1      -1.063  -3.500   3.414  0.00  0.00    +0.002 A 
ATOM      5  C   UNL     1      -1.083  -4.828   3.017  0.00  0.00    +0.001 A 
ATOM      6  C   UNL     1      -1.208  -5.151   1.683  0.00  0.00    +0.010 A 
ATOM      7  C   UNL     1      -1.313  -4.138   0.733  0.00  0.00    +0.008 A 
ATOM      8  C   UNL     1      -1.455  -4.134  -0.734  0.00  0.00    +0.008 A 
ATOM      9  C   UNL     1      -1.517  -2.777  -1.123  0.00  0.00    +0.062 A 
ATOM     10  C   UNL     1      -1.661  -2.466  -2.479  0.00  0.00    +0.056 A 
ATOM     11  C   UNL     1      -1.741  -3.500  -3.430  0.00  0.00    +0.034 A 
ATOM     12  C   UNL     1      -1.680  -4.830  -3.027  0.00  0.00    +0.013 A 
ATOM     13  C   UNL     1      -1.532  -5.143  -1.687  0.00  0.00    +0.011 A 
ATOM     14  C   UNL     1      -1.891  -3.145  -4.858  0.00  0.00    +0.187 C 
ATOM     15  O   UNL     1      -1.719  -3.983  -5.721  0.00  0.00    -0.287 OA
ATOM     16  C   UNL     1      -2.254  -1.761  -5.223  0.00  0.00    +0.055 C 
ATOM     17  C   UNL     1      -2.178  -0.777  -4.314  0.00  0.00    +0.055 C 
ATOM     18  C   UNL     1      -1.730  -1.066  -2.936  0.00  0.00    +0.189 C 
ATOM     19  O   UNL     1      -1.422  -0.159  -2.187  0.00  0.00    -0.287 OA
ENDROOT
BRANCH   1  20
ATOM     20  C   UNL     1      -1.433  -0.534   0.013  0.00  0.00    +0.122 C 
BRANCH  20  21
ATOM     21  C   UNL     1      -0.037  -0.003  -0.318  0.00  0.00    +0.021 C 
BRANCH  21  23
ATOM     22  C   UNL     1       1.339   2.058  -0.641  0.00  0.00    +0.004 C 
ATOM     23  C   UNL     1      -0.058   1.527  -0.310  0.00  0.00    -0.002 C 
ENDBRANCH  21  23
ENDBRANCH  20  21
ENDBRANCH   1  20
TORSDOF 3
