REMARK  Name = ZINC40112298
REMARK  8 active torsions:
REMARK  status: ('A' for Active; 'I' for Inactive)
REMARK    1  A    between atoms: C_1  and  C_2
REMARK    2  A    between atoms: N_7  and  C_9
REMARK    3  A    between atoms: C_9  and  C_10
REMARK    4  A    between atoms: C_15  and  C_16
REMARK    5  A    between atoms: C_16  and  N_17
REMARK    6  A    between atoms: C_18  and  C_20
REMARK    7  A    between atoms: C_20  and  C_22
REMARK    8  A    between atoms: C_20  and  N_23
REMARK                            x       y       z     vdW  Elec       q    Type
REMARK                         _______ _______ _______ _____ _____    ______ ____
ROOT
ATOM      1  C   UNL     1       3.424  -3.893   0.957  0.00  0.00    +0.139 C 
ENDROOT
BRANCH   1   7
ATOM      2  C   UNL     1       1.397  -3.535   2.382  0.00  0.00    -0.059 A 
ATOM      3  C   UNL     1       0.318  -4.015   3.099  0.00  0.00    +0.002 A 
ATOM      4  C   UNL     1       0.094  -5.376   3.183  0.00  0.00    +0.000 A 
ATOM      5  C   UNL     1       0.950  -6.258   2.550  0.00  0.00    +0.000 A 
ATOM      6  C   UNL     1       2.029  -5.778   1.832  0.00  0.00    +0.005 A 
ATOM      7  C   UNL     1       2.250  -4.416   1.744  0.00  0.00    -0.029 A 
BRANCH   2   8
ATOM      8  C   UNL     1       1.641  -2.051   2.290  0.00  0.00    -0.043 C 
BRANCH   8  14
ATOM      9  C   UNL     1       4.472   1.623   3.860  0.00  0.00    +0.005 C 
ATOM     10  C   UNL     1       4.120   0.146   4.055  0.00  0.00    -0.031 C 
ATOM     11  C   UNL     1       3.644  -0.080   5.493  0.00  0.00    -0.001 C 
ATOM     12  C   UNL     1       3.220  -1.542   5.656  0.00  0.00    -0.018 C 
ATOM     13  C   UNL     1       2.135  -1.871   4.628  0.00  0.00    -0.078 C 
ATOM     14  N   UNL     1       2.660  -1.660   3.274  0.00  0.00    +0.383 N 
ATOM     15  C   UNL     1       3.002  -0.245   3.086  0.00  0.00    -0.075 C 
ATOM     16  H   UNL     1       3.486  -2.224   3.142  0.00  0.00    -0.081 HD
ENDBRANCH   8  14
ENDBRANCH   2   8
ENDBRANCH   1   7
BRANCH   1  17
ATOM     17  N   UNL     1       4.527  -3.586   1.870  0.00  0.00    -0.309 N 
ATOM     18  C   UNL     1       5.645  -2.996   1.403  0.00  0.00    +0.236 C 
ATOM     19  O   UNL     1       5.738  -2.719   0.226  0.00  0.00    -0.274 OA
ATOM     20  H   UNL     1       4.453  -3.807   2.812  0.00  0.00    +0.149 HD
BRANCH  18  21
ATOM     21  C   UNL     1       6.780  -2.680   2.343  0.00  0.00    +0.171 C 
ATOM     22  C   UNL     1       7.285  -3.974   2.985  0.00  0.00    +0.041 C 
BRANCH  21  23
ATOM     23  N   UNL     1       7.870  -2.047   1.597  0.00  0.00    -0.318 N 
ATOM     24  C   UNL     1       8.551  -2.587   0.551  0.00  0.00    +0.201 A 
ATOM     25  N   UNL     1       9.454  -1.752   0.125  0.00  0.00    -0.236 NA
ATOM     26  C   UNL     1       9.413  -0.617   0.870  0.00  0.00    +0.089 A 
ATOM     27  C   UNL     1       8.392  -0.789   1.821  0.00  0.00    +0.069 A 
ATOM     28  C   UNL     1       8.116   0.225   2.728  0.00  0.00    +0.028 A 
ATOM     29  C   UNL     1       8.844   1.395   2.686  0.00  0.00    +0.002 A 
ATOM     30  C   UNL     1       9.849   1.566   1.745  0.00  0.00    +0.002 A 
ATOM     31  C   UNL     1      10.139   0.576   0.849  0.00  0.00    +0.030 A 
ENDBRANCH  21  23
ENDBRANCH  18  21
ENDBRANCH   1  17
TORSDOF 6
