REMARK  Name = ZINC11121511
REMARK  3 active torsions:
REMARK  status: ('A' for Active; 'I' for Inactive)
REMARK    1  A    between atoms: C_6  and  S_7
REMARK    2  A    between atoms: S_7  and  N_10
REMARK    3  A    between atoms: C_13  and  C_16
REMARK                            x       y       z     vdW  Elec       q    Type
REMARK                         _______ _______ _______ _____ _____    ______ ____
ROOT
ATOM      1  N   UNL     1       1.154   4.329   1.596  0.00  0.00    -0.177 NA
ATOM      2  C   UNL     1      -0.107   4.535   2.322  0.00  0.00    +0.110 C 
ATOM      3  C   UNL     1      -0.106   5.935   2.932  0.00  0.00    +0.030 C 
ATOM      4  C   UNL     1       1.149   6.116   3.788  0.00  0.00    +0.078 C 
ATOM      5  C   UNL     1       2.394   5.970   2.909  0.00  0.00    +0.030 C 
ATOM      6  C   UNL     1       2.422   4.565   2.300  0.00  0.00    +0.110 C 
ENDROOT
BRANCH   4   7
ATOM      7  C   UNL     1       1.136   7.486   4.416  0.00  0.00    +0.222 C 
ATOM      8  O   UNL     1       2.033   8.268   4.184  0.00  0.00    -0.275 OA
ATOM      9  N   UNL     1       0.128   7.841   5.236  0.00  0.00    -0.264 N 
ATOM     10  C   UNL     1       0.115   9.101   5.813  0.00  0.00    +0.165 A 
ATOM     11  N   UNL     1       0.989  10.072   5.689  0.00  0.00    -0.225 NA
ATOM     12  C   UNL     1       0.847  11.261   6.313  0.00  0.00    +0.080 A 
ATOM     13  C   UNL     1       1.706  12.383   6.260  0.00  0.00    +0.030 A 
ATOM     14  C   UNL     1       1.416  13.522   6.965  0.00  0.00    +0.017 A 
ATOM     15  C   UNL     1       0.277  13.616   7.753  0.00  0.00    +0.019 A 
ATOM     16  C   UNL     1      -0.586  12.538   7.828  0.00  0.00    +0.032 A 
ATOM     17  C   UNL     1      -0.303  11.393   7.124  0.00  0.00    +0.042 A 
ATOM     18  S   UNL     1      -1.091   9.813   6.924  0.00  0.00    -0.052 S 
ATOM     19 BR   UNL     1      -0.092  15.204   8.712  0.00  0.00    -0.050 Br
ATOM     20  H   UNL     1      -0.590   7.216   5.422  0.00  0.00    +0.157 HD
ENDBRANCH   4   7
BRANCH   1  21
ATOM     21  S   UNL     1       1.146   3.847   0.011  0.00  0.00    +0.061 S 
ATOM     22  O   UNL     1       2.380   4.274  -0.549  0.00  0.00    -0.153 OA
ATOM     23  O   UNL     1      -0.110   4.239  -0.526  0.00  0.00    -0.153 OA
BRANCH  21  29
ATOM     24  C   UNL     1      -0.017   1.378   0.010  0.00  0.00    +0.030 A 
ATOM     25  C   UNL     1       0.002  -0.004   0.002  0.00  0.00    +0.022 A 
ATOM     26  C   UNL     1       1.210  -0.679  -0.013  0.00  0.00    +0.041 A 
ATOM     27  C   UNL     1       2.398   0.030  -0.021  0.00  0.00    +0.022 A 
ATOM     28  C   UNL     1       2.378   1.412  -0.013  0.00  0.00    +0.030 A 
ATOM     29  C   UNL     1       1.171   2.086   0.002  0.00  0.00    +0.106 A 
ATOM     30 CL   UNL     1       1.234  -2.415  -0.022  0.00  0.00    -0.084 Cl
ENDBRANCH  21  29
ENDBRANCH   1  21
TORSDOF 3
