REMARK  Name = ZINC55473307
REMARK  11 active torsions:
REMARK  status: ('A' for Active; 'I' for Inactive)
REMARK    1  A    between atoms: C_1  and  C_2
REMARK    2  A    between atoms: C_2  and  C_4
REMARK    3  A    between atoms: C_2  and  N_13
REMARK    4  A    between atoms: C_14  and  C_16
REMARK    5  A    between atoms: C_16  and  C_17
REMARK    6  A    between atoms: C_17  and  C_18
REMARK    7  A    between atoms: C_18  and  N_19
REMARK    8  A    between atoms: C_20  and  C_22
REMARK    9  A    between atoms: C_22  and  C_23
REMARK   10  A    between atoms: C_22  and  C_24
REMARK   11  A    between atoms: C_22  and  C_25
REMARK                            x       y       z     vdW  Elec       q    Type
REMARK                         _______ _______ _______ _____ _____    ______ ____
ROOT
ATOM      1  N   UNL     1      -1.372  -0.511   0.012  0.00  0.00    -0.309 N 
ATOM      2  C   UNL     1      -2.029  -0.655   1.181  0.00  0.00    +0.214 C 
ATOM      3  O   UNL     1      -1.481  -0.365   2.224  0.00  0.00    -0.276 OA
ATOM      4  H   UNL     1      -1.810  -0.743  -0.822  0.00  0.00    +0.149 HD
ENDROOT
BRANCH   1   6
ATOM      5  C   UNL     1      -0.019   1.526   0.010  0.00  0.00    +0.033 C 
ATOM      6  C   UNL     1       0.002  -0.004   0.002  0.00  0.00    +0.102 C 
BRANCH   6   7
ATOM      7  C   UNL     1       0.707  -0.490  -1.238  0.00  0.00    -0.006 A 
ATOM      8  C   UNL     1      -0.023  -0.817  -2.365  0.00  0.00    +0.046 A 
ATOM      9  C   UNL     1       0.624  -1.263  -3.504  0.00  0.00    +0.142 A 
ATOM     10  C   UNL     1       2.005  -1.382  -3.514  0.00  0.00    +0.077 A 
ATOM     11  C   UNL     1       2.734  -1.054  -2.386  0.00  0.00    +0.043 A 
ATOM     12  C   UNL     1       2.086  -0.603  -1.249  0.00  0.00    +0.047 A 
ATOM     13 CL   UNL     1       3.003  -0.186   0.165  0.00  0.00    -0.083 Cl
ATOM     14 CL   UNL     1       2.818  -1.942  -4.941  0.00  0.00    -0.081 Cl
ATOM     15  F   UNL     1      -0.089  -1.584  -4.605  0.00  0.00    -0.204 F 
ENDBRANCH   6   7
ENDBRANCH   1   6
BRANCH   2  16
ATOM     16  C   UNL     1      -3.442  -1.177   1.191  0.00  0.00    +0.097 C 
BRANCH  16  17
ATOM     17  C   UNL     1      -3.951  -1.243   2.633  0.00  0.00    +0.028 C 
BRANCH  17  18
ATOM     18  C   UNL     1      -5.386  -1.773   2.644  0.00  0.00    +0.104 C 
BRANCH  18  19
ATOM     19  N   UNL     1      -5.873  -1.836   4.024  0.00  0.00    -0.315 N 
ATOM     20  C   UNL     1      -7.121  -2.276   4.279  0.00  0.00    +0.218 C 
ATOM     21  O   UNL     1      -7.841  -2.619   3.366  0.00  0.00    -0.275 OA
ATOM     22  H   UNL     1      -5.297  -1.562   4.755  0.00  0.00    +0.149 HD
BRANCH  20  23
ATOM     23  C   UNL     1      -7.622  -2.341   5.699  0.00  0.00    +0.039 C 
ATOM     24  C   UNL     1      -9.057  -2.871   5.710  0.00  0.00    +0.020 C 
ATOM     25  C   UNL     1      -6.726  -3.278   6.513  0.00  0.00    +0.020 C 
ATOM     26  C   UNL     1      -7.590  -0.942   6.316  0.00  0.00    +0.020 C 
ENDBRANCH  20  23
ENDBRANCH  18  19
ENDBRANCH  17  18
ENDBRANCH  16  17
ENDBRANCH   2  16
TORSDOF 7
