REMARK  Name = ZINC20873145
REMARK  13 active torsions:
REMARK  status: ('A' for Active; 'I' for Inactive)
REMARK    1  A    between atoms: C_1  and  C_2
REMARK    2  A    between atoms: C_2  and  C_3
REMARK    3  A    between atoms: C_2  and  C_4
REMARK    4  A    between atoms: C_2  and  N_5
REMARK    5  A    between atoms: N_5  and  C_6
REMARK    6  A    between atoms: C_6  and  C_7
REMARK    7  A    between atoms: C_12  and  O_13
REMARK    8  A    between atoms: O_13  and  C_14
REMARK    9  A    between atoms: C_14  and  C_15
REMARK   10  A    between atoms: N_17  and  C_18
REMARK   11  A    between atoms: C_18  and  C_19
REMARK   12  A    between atoms: C_18  and  C_20
REMARK   13  A    between atoms: C_18  and  C_21
REMARK                            x       y       z     vdW  Elec       q    Type
REMARK                         _______ _______ _______ _____ _____    ______ ____
ROOT
ATOM      1  C   UNL     1       0.706  -2.034   1.137  0.00  0.00    -0.022 A 
ATOM      2  C   UNL     1      -0.203  -2.747   1.895  0.00  0.00    +0.020 A 
ATOM      3  C   UNL     1      -0.203  -4.130   1.856  0.00  0.00    +0.018 A 
ATOM      4  C   UNL     1       0.706  -4.801   1.058  0.00  0.00    +0.019 A 
ATOM      5  C   UNL     1       1.617  -4.092   0.300  0.00  0.00    +0.047 A 
ATOM      6  C   UNL     1       1.615  -2.705   0.333  0.00  0.00    +0.123 A 
ATOM      7 BR   UNL     1      -1.449  -5.103   2.894  0.00  0.00    -0.050 Br
ENDROOT
BRANCH   1   8
ATOM      8  C   UNL     1       0.706  -0.527   1.180  0.00  0.00    -0.042 C 
BRANCH   8   9
ATOM      9  N   UNL     1       0.002  -0.004   0.002  0.00  0.00    +0.385 N 
ATOM     10  H   UNL     1      -1.030  -0.385   0.010  0.00  0.00    -0.085 HD
ATOM     11  H   UNL     1       0.517  -0.359  -0.903  0.00  0.00    -0.085 HD
BRANCH   9  13
ATOM     12  C   UNL     1       1.417   1.994  -0.001  0.00  0.00    -0.011 C 
ATOM     13  C   UNL     1      -0.018   1.465   0.010  0.00  0.00    -0.077 C 
ATOM     14  C   UNL     1      -0.758   1.972  -1.229  0.00  0.00    -0.011 C 
ATOM     15  C   UNL     1      -0.734   1.958   1.269  0.00  0.00    -0.011 C 
ENDBRANCH   9  13
ENDBRANCH   8   9
ENDBRANCH   1   8
BRANCH   6  16
ATOM     16  O   UNL     1       2.506  -2.005  -0.418  0.00  0.00    -0.483 OA
BRANCH  16  17
ATOM     17  C   UNL     1       3.412  -2.763  -1.223  0.00  0.00    +0.324 C 
BRANCH  17  18
ATOM     18  C   UNL     1       4.317  -1.824  -1.979  0.00  0.00    +0.251 C 
ATOM     19  O   UNL     1       4.197  -0.625  -1.842  0.00  0.00    -0.272 OA
ATOM     20  N   UNL     1       5.258  -2.317  -2.807  0.00  0.00    -0.308 N 
ATOM     21  H   UNL     1       5.367  -3.405  -2.932  0.00  0.00    +0.149 HD
BRANCH  20  22
ATOM     22  C   UNL     1       6.138  -1.405  -3.542  0.00  0.00    +0.026 C 
ATOM     23  C   UNL     1       6.929  -0.550  -2.551  0.00  0.00    +0.031 C 
ATOM     24  C   UNL     1       7.108  -2.216  -4.404  0.00  0.00    +0.031 C 
ATOM     25  C   UNL     1       5.295  -0.497  -4.440  0.00  0.00    +0.031 C 
ENDBRANCH  20  22
ENDBRANCH  17  18
ENDBRANCH  16  17
ENDBRANCH   6  16
TORSDOF 7
