REMARK  Name = ZINC65191081
REMARK  7 active torsions:
REMARK  status: ('A' for Active; 'I' for Inactive)
REMARK    1  A    between atoms: C_1  and  C_2
REMARK    2  A    between atoms: C_2  and  N_3
REMARK    3  A    between atoms: N_6  and  N_7
REMARK    4  A    between atoms: C_8  and  C_10
REMARK    5  A    between atoms: C_10  and  S_11
REMARK    6  A    between atoms: S_11  and  C_12
REMARK    7  A    between atoms: C_12  and  C_13
REMARK                            x       y       z     vdW  Elec       q    Type
REMARK                         _______ _______ _______ _____ _____    ______ ____
ROOT
ATOM      1  C   UNL     1      -9.201  -0.554   0.087  0.00  0.00    +0.143 C 
ENDROOT
BRANCH   1   2
ATOM      2  C   UNL     1     -10.563  -1.198   0.097  0.00  0.00    +0.121 A 
ATOM      3  N   UNL     1     -11.672  -0.414   0.106  0.00  0.00    -0.310 N 
ATOM      4  H   UNL     1     -11.571   0.551   0.106  0.00  0.00    +0.170 HD
ATOM      5  C   UNL     1     -12.908  -0.948   0.114  0.00  0.00    +0.260 A 
ATOM      6  O   UNL     1     -13.893  -0.230   0.121  0.00  0.00    -0.267 OA
ATOM      7  C   UNL     1     -13.046  -2.374   0.114  0.00  0.00    +0.075 A 
ATOM      8  C   UNL     1     -14.274  -3.168   0.123  0.00  0.00    -0.023 A 
ATOM      9  C   UNL     1     -14.134  -4.511   0.120  0.00  0.00    -0.004 A 
ATOM     10  S   UNL     1     -12.384  -4.792   0.105  0.00  0.00    -0.073 S 
ATOM     11  C   UNL     1     -11.844  -3.101   0.104  0.00  0.00    +0.116 A 
ATOM     12  N   UNL     1     -10.657  -2.501   0.090  0.00  0.00    -0.226 NA
ATOM     13  C   UNL     1     -15.226  -5.537   0.129  0.00  0.00    +0.043 C 
ATOM     14  C   UNL     1     -16.540  -4.843   0.518  0.00  0.00    +0.005 C 
ATOM     15  C   UNL     1     -16.686  -3.567  -0.317  0.00  0.00    +0.005 C 
ATOM     16  C   UNL     1     -15.659  -2.529   0.136  0.00  0.00    +0.037 C 
ENDBRANCH   1   2
BRANCH   1  17
ATOM     17  S   UNL     1      -7.923  -1.841   0.068  0.00  0.00    -0.144 S 
BRANCH  17  18
ATOM     18  C   UNL     1      -6.365  -0.913   0.058  0.00  0.00    +0.166 C 
BRANCH  18  20
ATOM     19  N   UNL     1      -3.942  -1.410   0.032  0.00  0.00    -0.233 N 
ATOM     20  C   UNL     1      -5.207  -1.877   0.042  0.00  0.00    +0.239 C 
ATOM     21  O   UNL     1      -5.412  -3.072   0.037  0.00  0.00    -0.273 OA
ATOM     22  H   UNL     1      -3.778  -0.454   0.036  0.00  0.00    +0.173 HD
BRANCH  19  26
ATOM     23  N   UNL     1      -1.372  -0.511   0.012  0.00  0.00    -0.298 N 
ATOM     24  C   UNL     1      -1.601  -1.839   0.007  0.00  0.00    +0.316 C 
ATOM     25  O   UNL     1      -0.666  -2.617  -0.006  0.00  0.00    -0.251 OA
ATOM     26  N   UNL     1      -2.865  -2.306   0.017  0.00  0.00    -0.218 N 
ATOM     27  H   UNL     1      -2.118   0.109   0.023  0.00  0.00    +0.150 HD
ATOM     28  H   UNL     1      -3.029  -3.262   0.013  0.00  0.00    +0.174 HD
BRANCH  23  30
ATOM     29  C   UNL     1      -0.019   1.526   0.010  0.00  0.00    +0.024 C 
ATOM     30  C   UNL     1       0.002  -0.004   0.002  0.00  0.00    +0.102 C 
ENDBRANCH  23  30
ENDBRANCH  19  26
ENDBRANCH  18  20
ENDBRANCH  17  18
ENDBRANCH   1  17
TORSDOF 6
