REMARK  Name = ZINC12745038
REMARK  9 active torsions:
REMARK  status: ('A' for Active; 'I' for Inactive)
REMARK    1  A    between atoms: C_1  and  N_2
REMARK    2  A    between atoms: N_2  and  C_3
REMARK    3  A    between atoms: C_3  and  C_4
REMARK    4  A    between atoms: C_8  and  O_10
REMARK    5  A    between atoms: O_10  and  C_11
REMARK    6  A    between atoms: C_12  and  C_14
REMARK    7  A    between atoms: C_14  and  C_15
REMARK    8  A    between atoms: C_22  and  C_23
REMARK    9  A    between atoms: C_22  and  N_61
REMARK                            x       y       z     vdW  Elec       q    Type
REMARK                         _______ _______ _______ _____ _____    ______ ____
ROOT
ATOM      1  C   UNL     1      -1.945  -2.398   8.664  0.00  0.00    +0.028 C 
ATOM      2  C   UNL     1      -3.044  -3.328   9.094  0.00  0.00    +0.200 C 
ATOM      3  O   UNL     1      -4.134  -2.861   9.350  0.00  0.00    -0.278 OA
ATOM      4  N   UNL     1      -2.871  -4.650   9.205  0.00  0.00    -0.318 N 
ATOM      5  C   UNL     1      -1.611  -5.315   8.887  0.00  0.00    +0.085 C 
ATOM      6  C   UNL     1      -0.470  -4.295   8.867  0.00  0.00    -0.058 C 
ATOM      7  H   UNL     1      -3.616  -5.190   9.511  0.00  0.00    +0.149 HD
ATOM      8  N   UNL     1      -0.878  -3.170   8.002  0.00  0.00    +0.391 N 
ATOM      9  H   UNL     1      -1.234  -3.542   7.113  0.00  0.00    -0.080 HD
ENDROOT
BRANCH   1  10
ATOM     10  C   UNL     1      -2.505  -1.373   7.676  0.00  0.00    +0.090 C 
BRANCH  10  13
ATOM     11  C   UNL     1      -3.867   0.051   5.639  0.00  0.00    +0.132 C 
ATOM     12  N   UNL     1      -3.678  -1.394   5.498  0.00  0.00    -0.300 N 
ATOM     13  C   UNL     1      -3.032  -2.087   6.457  0.00  0.00    +0.215 C 
ATOM     14  O   UNL     1      -2.876  -3.284   6.340  0.00  0.00    -0.276 OA
BRANCH  12  15
ATOM     15  C   UNL     1      -4.191  -2.088   4.313  0.00  0.00    +0.142 C 
BRANCH  15  16
ATOM     16  C   UNL     1      -5.600  -2.552   4.574  0.00  0.00    -0.027 A 
ATOM     17  C   UNL     1      -5.826  -3.803   5.120  0.00  0.00    +0.005 A 
ATOM     18  C   UNL     1      -7.118  -4.231   5.360  0.00  0.00    +0.004 A 
ATOM     19  C   UNL     1      -8.187  -3.409   5.061  0.00  0.00    +0.045 A 
ATOM     20  C   UNL     1      -7.964  -2.156   4.509  0.00  0.00    +0.120 A 
ATOM     21  C   UNL     1      -6.666  -1.728   4.268  0.00  0.00    +0.050 A 
BRANCH  20  22
ATOM     22  O   UNL     1      -9.014  -1.347   4.209  0.00  0.00    -0.495 OA
ATOM     23  C   UNL     1     -10.322  -1.854   4.483  0.00  0.00    +0.277 C 
ENDBRANCH  20  22
ENDBRANCH  15  16
ENDBRANCH  12  15
ENDBRANCH  10  13
ENDBRANCH   1  10
BRANCH   8  24
ATOM     24  C   UNL     1       0.284  -2.295   7.726  0.00  0.00    -0.041 C 
BRANCH  24  25
ATOM     25  C   UNL     1       1.406  -3.127   7.161  0.00  0.00    -0.056 A 
ATOM     26  C   UNL     1       2.441  -3.511   7.957  0.00  0.00    +0.002 A 
ATOM     27  C   UNL     1       3.484  -4.287   7.454  0.00  0.00    +0.001 A 
ATOM     28  C   UNL     1       3.504  -4.672   6.149  0.00  0.00    +0.008 A 
ATOM     29  C   UNL     1       2.456  -4.290   5.295  0.00  0.00    -0.018 A 
ATOM     30  C   UNL     1       1.392  -3.506   5.808  0.00  0.00    -0.017 A 
ATOM     31  C   UNL     1       0.344  -3.123   4.953  0.00  0.00    +0.009 A 
ATOM     32  C   UNL     1       0.365  -3.509   3.648  0.00  0.00    +0.001 A 
ATOM     33  C   UNL     1       1.411  -4.278   3.143  0.00  0.00    +0.001 A 
ATOM     34  C   UNL     1       2.443  -4.668   3.941  0.00  0.00    +0.008 A 
ENDBRANCH  24  25
ENDBRANCH   8  24
TORSDOF 7
