REMARK  Name = ZINC50170607
REMARK  7 active torsions:
REMARK  status: ('A' for Active; 'I' for Inactive)
REMARK    1  A    between atoms: C_1  and  N_2
REMARK    2  A    between atoms: N_2  and  C_3
REMARK    3  A    between atoms: C_3  and  C_4
REMARK    4  A    between atoms: N_6  and  N_7
REMARK    5  A    between atoms: C_8  and  C_10
REMARK    6  A    between atoms: C_19  and  O_20
REMARK    7  A    between atoms: C_21  and  C_23
REMARK                            x       y       z     vdW  Elec       q    Type
REMARK                         _______ _______ _______ _____ _____    ______ ____
ROOT
ATOM      1  N   UNL     1      -2.609  -2.011   3.513  0.00  0.00    -0.230 N 
ATOM      2  C   UNL     1      -2.720  -2.687   4.674  0.00  0.00    +0.264 C 
ATOM      3  O   UNL     1      -1.720  -3.046   5.266  0.00  0.00    -0.269 OA
ATOM      4  H   UNL     1      -3.407  -1.725   3.040  0.00  0.00    +0.173 HD
ENDROOT
BRANCH   2   5
ATOM      5  C   UNL     1      -4.054  -2.990   5.227  0.00  0.00    +0.080 A 
ATOM      6  C   UNL     1      -5.190  -2.584   4.546  0.00  0.00    +0.025 A 
ATOM      7  C   UNL     1      -6.455  -2.875   5.076  0.00  0.00    -0.017 A 
ATOM      8  C   UNL     1      -7.630  -2.478   4.411  0.00  0.00    +0.008 A 
ATOM      9  C   UNL     1      -8.842  -2.775   4.951  0.00  0.00    +0.001 A 
ATOM     10  C   UNL     1      -8.941  -3.469   6.156  0.00  0.00    +0.001 A 
ATOM     11  C   UNL     1      -7.827  -3.869   6.828  0.00  0.00    +0.008 A 
ATOM     12  C   UNL     1      -6.555  -3.581   6.303  0.00  0.00    -0.014 A 
ATOM     13  C   UNL     1      -5.388  -3.982   6.974  0.00  0.00    +0.054 A 
ATOM     14  C   UNL     1      -4.164  -3.697   6.443  0.00  0.00    +0.130 A 
BRANCH  14  15
ATOM     15  O   UNL     1      -3.041  -4.093   7.094  0.00  0.00    -0.506 OA
ATOM     16  H   UNL     1      -2.705  -3.444   7.727  0.00  0.00    +0.292 HD
ENDBRANCH  14  15
ENDBRANCH   2   5
BRANCH   1  19
ATOM     17  C   UNL     1      -1.232  -1.048   1.826  0.00  0.00    +0.246 C 
ATOM     18  O   UNL     1      -2.229  -0.690   1.236  0.00  0.00    -0.273 OA
ATOM     19  N   UNL     1      -1.343  -1.723   2.987  0.00  0.00    -0.233 N 
ATOM     20  H   UNL     1      -0.545  -2.010   3.459  0.00  0.00    +0.173 HD
BRANCH  17  21
ATOM     21  C   UNL     1       0.130  -0.738   1.261  0.00  0.00    +0.205 C 
BRANCH  21  23
ATOM     22  C   UNL     1      -0.078   1.461   0.013  0.00  0.00    +0.133 C 
ATOM     23  N   UNL     1      -0.019  -0.003   0.003  0.00  0.00    -0.291 N 
ATOM     24  C   UNL     1      -0.102  -0.673  -1.163  0.00  0.00    +0.253 C 
ATOM     25  O   UNL     1      -0.158  -1.889  -1.164  0.00  0.00    -0.269 OA
BRANCH  24  26
ATOM     26  C   UNL     1      -0.124   0.062  -2.431  0.00  0.00    +0.074 A 
ATOM     27  C   UNL     1      -0.322  -0.418  -3.717  0.00  0.00    +0.021 A 
ATOM     28  C   UNL     1      -0.288   0.524  -4.717  0.00  0.00    +0.008 A 
ATOM     29  C   UNL     1      -0.069   1.822  -4.394  0.00  0.00    +0.046 A 
ATOM     30  S   UNL     1       0.089   1.808  -2.721  0.00  0.00    -0.092 S 
ENDBRANCH  24  26
ENDBRANCH  21  23
ENDBRANCH  17  21
ENDBRANCH   1  19
TORSDOF 6
