REMARK  Name = ZINC20899120
REMARK  10 active torsions:
REMARK  status: ('A' for Active; 'I' for Inactive)
REMARK    1  A    between atoms: C_1  and  C_2
REMARK    2  A    between atoms: C_2  and  C_3
REMARK    3  A    between atoms: C_3  and  C_4
REMARK    4  A    between atoms: C_4  and  N_5
REMARK    5  A    between atoms: C_24  and  C_27
REMARK    6  A    between atoms: C_29  and  O_36
REMARK    7  A    between atoms: C_30  and  O_35
REMARK    8  A    between atoms: C_31  and  O_33
REMARK    9  A    between atoms: O_33  and  C_34
REMARK   10  A    between atoms: O_36  and  C_37
REMARK                            x       y       z     vdW  Elec       q    Type
REMARK                         _______ _______ _______ _____ _____    ______ ____
ROOT
ATOM      1  N   UNL     1       1.393  -3.007   2.376  0.00  0.00    -0.222 N 
ATOM      2  C   UNL     1       2.721  -3.234   2.310  0.00  0.00    +0.261 C 
ATOM      3  O   UNL     1       3.265  -3.451   1.244  0.00  0.00    -0.269 OA
ATOM      4  C   UNL     1       3.494  -3.211   3.564  0.00  0.00    +0.116 C 
ATOM      5  C   UNL     1       2.750  -2.938   4.807  0.00  0.00    +0.258 C 
ATOM      6  N   UNL     1       1.420  -2.729   4.721  0.00  0.00    -0.235 N 
ATOM      7  H   UNL     1       0.916  -2.548   5.529  0.00  0.00    +0.159 HD
ATOM      8  C   UNL     1       0.781  -2.760   3.543  0.00  0.00    +0.315 C 
ATOM      9  O   UNL     1      -0.417  -2.558   3.533  0.00  0.00    -0.252 OA
ATOM     10  O   UNL     1       3.320  -2.904   5.881  0.00  0.00    -0.270 OA
ATOM     11  C   UNL     1       4.859  -3.435   3.575  0.00  0.00    +0.027 C 
ATOM     12  N   UNL     1       5.449  -3.279   2.442  0.00  0.00    -0.316 N 
ATOM     13  C   UNL     1       6.632  -3.542   1.807  0.00  0.00    +0.045 A 
ATOM     14  C   UNL     1       6.601  -3.357   0.414  0.00  0.00    +0.024 A 
ATOM     15  C   UNL     1       7.706  -3.576  -0.371  0.00  0.00    +0.002 A 
ATOM     16  C   UNL     1       8.889  -3.991   0.214  0.00  0.00    +0.001 A 
ATOM     17  C   UNL     1       8.939  -4.177   1.575  0.00  0.00    +0.016 A 
ATOM     18  C   UNL     1       7.820  -3.956   2.391  0.00  0.00    +0.030 A 
ATOM     19  S   UNL     1       8.039  -4.232   4.102  0.00  0.00    -0.115 S 
ATOM     20  C   UNL     1       6.506  -4.859   4.772  0.00  0.00    +0.087 C 
ATOM     21  C   UNL     1       5.429  -3.815   4.896  0.00  0.00    +0.071 C 
ATOM     22  H   UNL     1       4.852  -2.821   1.831  0.00  0.00    +0.152 HD
ENDROOT
BRANCH  20  23
ATOM     23  C   UNL     1       6.777  -5.431   6.139  0.00  0.00    -0.027 A 
ATOM     24  C   UNL     1       7.281  -4.619   7.138  0.00  0.00    +0.054 A 
ATOM     25  C   UNL     1       7.532  -5.142   8.398  0.00  0.00    +0.165 A 
ATOM     26  C   UNL     1       7.276  -6.483   8.656  0.00  0.00    +0.201 A 
ATOM     27  C   UNL     1       6.768  -7.296   7.649  0.00  0.00    +0.165 A 
ATOM     28  C   UNL     1       6.515  -6.764   6.393  0.00  0.00    +0.054 A 
BRANCH  27  29
ATOM     29  O   UNL     1       6.515  -8.609   7.896  0.00  0.00    -0.491 OA
ATOM     30  C   UNL     1       5.995  -9.384   6.814  0.00  0.00    +0.277 C 
ENDBRANCH  27  29
BRANCH  26  31
ATOM     31  O   UNL     1       7.521  -7.000   9.890  0.00  0.00    -0.501 OA
ATOM     32  H   UNL     1       6.770  -6.944  10.497  0.00  0.00    +0.292 HD
ENDBRANCH  26  31
BRANCH  25  33
ATOM     33  O   UNL     1       8.029  -4.343   9.380  0.00  0.00    -0.491 OA
ATOM     34  C   UNL     1       8.269  -2.975   9.044  0.00  0.00    +0.277 C 
ENDBRANCH  25  33
ENDBRANCH  20  23
BRANCH   1  35
ATOM     35  C   UNL     1       0.602  -3.024   1.143  0.00  0.00    +0.118 C 
BRANCH  35  36
ATOM     36  C   UNL     1       0.565  -1.619   0.540  0.00  0.00    +0.019 C 
BRANCH  36  38
ATOM     37  C   UNL     1      -0.297  -0.231  -1.350  0.00  0.00    +0.004 C 
ATOM     38  C   UNL     1      -0.261  -1.637  -0.747  0.00  0.00    -0.002 C 
ENDBRANCH  36  38
ENDBRANCH  35  36
ENDBRANCH   1  35
TORSDOF 7
