REMARK  Name = ZINC04913997
REMARK  10 active torsions:
REMARK  status: ('A' for Active; 'I' for Inactive)
REMARK    1  A    between atoms: C_1  and  C_2
REMARK    2  A    between atoms: C_2  and  N_3
REMARK    3  A    between atoms: C_5  and  C_12
REMARK    4  A    between atoms: C_12  and  N_13
REMARK    5  A    between atoms: N_13  and  C_14
REMARK    6  A    between atoms: N_13  and  C_20
REMARK    7  A    between atoms: C_20  and  N_22
REMARK    8  A    between atoms: N_22  and  C_23
REMARK    9  A    between atoms: C_25  and  C_30
REMARK   10  A    between atoms: C_27  and  C_29
REMARK                            x       y       z     vdW  Elec       q    Type
REMARK                         _______ _______ _______ _____ _____    ______ ____
ROOT
ATOM      1  N   UNL     1      -4.418  -3.156   1.652  0.00  0.00    -0.305 N 
ENDROOT
BRANCH   1   2
ATOM      2  C   UNL     1      -3.696  -3.968   2.635  0.00  0.00    +0.075 C 
ATOM      3  C   UNL     1      -2.671  -4.847   1.917  0.00  0.00    +0.022 C 
ATOM      4  C   UNL     1      -1.917  -5.695   2.943  0.00  0.00    +0.002 C 
ATOM      5  C   UNL     1      -2.909  -6.582   3.699  0.00  0.00    +0.000 C 
ATOM      6  C   UNL     1      -3.934  -5.702   4.418  0.00  0.00    +0.002 C 
ATOM      7  C   UNL     1      -4.688  -4.854   3.391  0.00  0.00    +0.022 C 
ENDBRANCH   1   2
BRANCH   1   8
ATOM      8  C   UNL     1      -5.190  -3.752   0.722  0.00  0.00    +0.138 C 
ATOM      9  S   UNL     1      -5.215  -5.460   0.597  0.00  0.00    -0.018 S 
BRANCH   8  10
ATOM     10  N   UNL     1      -5.942  -3.005  -0.109  0.00  0.00    -0.297 N 
ATOM     11  H   UNL     1      -5.694  -2.919  -1.043  0.00  0.00    +0.154 HD
BRANCH  10  12
ATOM     12  C   UNL     1      -7.081  -2.352   0.375  0.00  0.00    +0.033 A 
ATOM     13  C   UNL     1      -7.383  -2.391   1.730  0.00  0.00    +0.026 A 
ATOM     14  C   UNL     1      -8.508  -1.746   2.204  0.00  0.00    -0.048 A 
ATOM     15  C   UNL     1      -9.333  -1.061   1.332  0.00  0.00    +0.006 A 
ATOM     16  C   UNL     1      -9.036  -1.020  -0.018  0.00  0.00    -0.048 A 
ATOM     17  C   UNL     1      -7.909  -1.658  -0.498  0.00  0.00    +0.026 A 
ATOM     18  C   UNL     1      -9.938  -0.272  -0.965  0.00  0.00    +0.044 C 
ATOM     19  C   UNL     1      -8.836  -1.788   3.675  0.00  0.00    +0.044 C 
ENDBRANCH  10  12
ENDBRANCH   8  10
ENDBRANCH   1   8
BRANCH   1  20
ATOM     20  C   UNL     1      -4.300  -1.696   1.680  0.00  0.00    +0.144 C 
BRANCH  20  23
ATOM     21  N   UNL     1      -1.071  -0.662   0.243  0.00  0.00    -0.347 N 
ATOM     22  C   UNL     1      -1.876  -1.023   1.289  0.00  0.00    +0.092 A 
ATOM     23  C   UNL     1      -3.119  -1.272   0.846  0.00  0.00    -0.005 A 
ATOM     24  C   UNL     1      -3.109  -1.053  -0.603  0.00  0.00    +0.005 A 
ATOM     25  C   UNL     1      -1.796  -0.665  -0.928  0.00  0.00    +0.049 A 
ATOM     26  C   UNL     1      -1.478  -0.380  -2.252  0.00  0.00    +0.026 A 
ATOM     27  C   UNL     1      -2.449  -0.476  -3.225  0.00  0.00    +0.002 A 
ATOM     28  C   UNL     1      -3.744  -0.855  -2.898  0.00  0.00    +0.001 A 
ATOM     29  C   UNL     1      -4.076  -1.148  -1.605  0.00  0.00    +0.010 A 
BRANCH  21  31
ATOM     30  C   UNL     1       0.498   1.198   0.481  0.00  0.00    +0.027 C 
ATOM     31  C   UNL     1       0.348  -0.319   0.353  0.00  0.00    +0.118 C 
ENDBRANCH  21  31
ENDBRANCH  20  23
ENDBRANCH   1  20
TORSDOF 7
