REMARK  Name = ZINC45548402
REMARK  5 active torsions:
REMARK  status: ('A' for Active; 'I' for Inactive)
REMARK    1  A    between atoms: C_1  and  C_2
REMARK    2  A    between atoms: C_15  and  C_17
REMARK    3  A    between atoms: C_17  and  C_19
REMARK    4  A    between atoms: C_17  and  N_20
REMARK    5  A    between atoms: C_23  and  C_26
REMARK                            x       y       z     vdW  Elec       q    Type
REMARK                         _______ _______ _______ _____ _____    ______ ____
ROOT
ATOM      1  C   UNL     1      -0.350   1.605   0.375  0.00  0.00    +0.008 C 
ATOM      2  C   UNL     1      -0.314   0.077   0.305  0.00  0.00    -0.009 C 
ATOM      3  C   UNL     1      -1.734  -0.478   0.447  0.00  0.00    +0.008 C 
ATOM      4  C   UNL     1      -1.741  -1.974   0.132  0.00  0.00    +0.037 C 
ATOM      5  C   UNL     1      -0.681  -2.664   0.988  0.00  0.00    -0.023 A 
ATOM      6  C   UNL     1       0.317  -1.947   1.555  0.00  0.00    -0.004 A 
ATOM      7  S   UNL     1       1.295  -3.135   2.441  0.00  0.00    -0.073 S 
ATOM      8  C   UNL     1       0.366  -4.583   2.050  0.00  0.00    +0.116 A 
ATOM      9  C   UNL     1      -0.681  -4.094   1.238  0.00  0.00    +0.075 A 
ATOM     10  C   UNL     1      -1.630  -5.053   0.749  0.00  0.00    +0.260 A 
ATOM     11  O   UNL     1      -2.570  -4.734   0.042  0.00  0.00    -0.267 OA
ATOM     12  N   UNL     1      -1.414  -6.337   1.124  0.00  0.00    -0.312 N 
ATOM     13  H   UNL     1      -2.031  -7.018   0.815  0.00  0.00    +0.170 HD
ATOM     14  C   UNL     1      -0.376  -6.713   1.909  0.00  0.00    +0.097 A 
ATOM     15  N   UNL     1       0.513  -5.864   2.376  0.00  0.00    -0.228 NA
ATOM     16  C   UNL     1       0.548  -0.470   1.452  0.00  0.00    +0.046 C 
ENDROOT
BRANCH  14  17
ATOM     17  C   UNL     1      -0.234  -8.170   2.263  0.00  0.00    -0.004 C 
ATOM     18  C   UNL     1      -1.542  -8.677   2.873  0.00  0.00    -0.005 C 
BRANCH  17  19
ATOM     19  N   UNL     1       0.855  -8.334   3.236  0.00  0.00    +0.386 N 
ATOM     20  C   UNL     1       1.101  -9.764   3.457  0.00  0.00    -0.077 C 
ATOM     21  C   UNL     1       2.287  -9.941   4.407  0.00  0.00    -0.011 C 
ATOM     22  C   UNL     1       1.970  -9.263   5.743  0.00  0.00    +0.016 C 
ATOM     23  C   UNL     1       1.642  -7.789   5.491  0.00  0.00    -0.011 C 
ATOM     24  C   UNL     1       0.480  -7.692   4.501  0.00  0.00    -0.077 C 
ATOM     25  H   UNL     1       1.693  -7.903   2.876  0.00  0.00    -0.081 HD
BRANCH  22  26
ATOM     26  C   UNL     1       3.164  -9.366   6.656  0.00  0.00    -0.044 A 
ATOM     27  C   UNL     1       4.370  -8.805   6.282  0.00  0.00    +0.004 A 
ATOM     28  C   UNL     1       5.466  -8.898   7.120  0.00  0.00    +0.000 A 
ATOM     29  C   UNL     1       5.355  -9.553   8.332  0.00  0.00    +0.000 A 
ATOM     30  C   UNL     1       4.148 -10.114   8.707  0.00  0.00    +0.000 A 
ATOM     31  C   UNL     1       3.051 -10.016   7.871  0.00  0.00    +0.004 A 
ENDBRANCH  22  26
ENDBRANCH  17  19
ENDBRANCH  14  17
TORSDOF 3
