REMARK  Name = ZINC08621466
REMARK  7 active torsions:
REMARK  status: ('A' for Active; 'I' for Inactive)
REMARK    1  A    between atoms: C_1  and  C_2
REMARK    2  A    between atoms: C_2  and  C_3
REMARK    3  A    between atoms: C_3  and  N_4
REMARK    4  A    between atoms: C_8  and  C_10
REMARK    5  A    between atoms: C_10  and  N_11
REMARK    6  A    between atoms: C_14  and  C_18
REMARK    7  A    between atoms: C_14  and  C_24
REMARK                            x       y       z     vdW  Elec       q    Type
REMARK                         _______ _______ _______ _____ _____    ______ ____
ROOT
ATOM      1  N   UNL     1       0.946   1.869  -0.620  0.00  0.00    -0.215 N 
ATOM      2  C   UNL     1      -0.243   1.246  -0.738  0.00  0.00    +0.256 C 
ATOM      3  O   UNL     1      -0.473   0.213  -1.331  0.00  0.00    -0.272 OA
ATOM      4  C   UNL     1      -1.235   2.107   0.018  0.00  0.00    +0.164 C 
ATOM      5  N   UNL     1      -0.411   3.216   0.530  0.00  0.00    -0.278 N 
ATOM      6  C   UNL     1       0.845   2.991   0.103  0.00  0.00    +0.310 C 
ATOM      7  O   UNL     1       1.783   3.724   0.347  0.00  0.00    -0.252 OA
ATOM      8  H   UNL     1      -0.715   3.965   1.066  0.00  0.00    +0.152 HD
ENDROOT
BRANCH   4   9
ATOM      9  C   UNL     1      -2.305   2.623  -0.909  0.00  0.00    -0.011 A 
ATOM     10  C   UNL     1      -2.957   1.753  -1.763  0.00  0.00    +0.006 A 
ATOM     11  C   UNL     1      -3.942   2.224  -2.610  0.00  0.00    +0.000 A 
ATOM     12  C   UNL     1      -4.268   3.568  -2.611  0.00  0.00    +0.000 A 
ATOM     13  C   UNL     1      -3.612   4.439  -1.760  0.00  0.00    +0.000 A 
ATOM     14  C   UNL     1      -2.631   3.966  -0.910  0.00  0.00    +0.006 A 
ENDBRANCH   4   9
BRANCH   4  15
ATOM     15  C   UNL     1      -1.846   1.335   1.159  0.00  0.00    -0.011 A 
ATOM     16  C   UNL     1      -2.405   0.091   0.930  0.00  0.00    +0.006 A 
ATOM     17  C   UNL     1      -2.962  -0.620   1.977  0.00  0.00    +0.000 A 
ATOM     18  C   UNL     1      -2.968  -0.082   3.251  0.00  0.00    +0.000 A 
ATOM     19  C   UNL     1      -2.415   1.164   3.478  0.00  0.00    +0.000 A 
ATOM     20  C   UNL     1      -1.854   1.872   2.432  0.00  0.00    +0.006 A 
ENDBRANCH   4  15
BRANCH   1  21
ATOM     21  C   UNL     1       2.194   1.380  -1.210  0.00  0.00    +0.214 C 
BRANCH  21  26
ATOM     22  N   UNL     1       4.658   1.834  -5.313  0.00  0.00    -0.299 N 
ATOM     23  C   UNL     1       3.576   2.148  -4.574  0.00  0.00    +0.306 C 
ATOM     24  O   UNL     1       2.728   2.893  -5.024  0.00  0.00    -0.252 OA
ATOM     25  N   UNL     1       3.435   1.637  -3.335  0.00  0.00    -0.239 N 
ATOM     26  C   UNL     1       2.352   1.952  -2.595  0.00  0.00    +0.238 C 
ATOM     27  O   UNL     1       1.506   2.694  -3.045  0.00  0.00    -0.274 OA
ATOM     28  H   UNL     1       5.335   1.240  -4.953  0.00  0.00    +0.150 HD
ATOM     29  H   UNL     1       4.112   1.043  -2.975  0.00  0.00    +0.159 HD
BRANCH  22  30
ATOM     30  C   UNL     1       4.812   2.390  -6.660  0.00  0.00    +0.105 C 
BRANCH  30  32
ATOM     31  C   UNL     1       6.276   2.459  -8.683  0.00  0.00    +0.005 C 
ATOM     32  C   UNL     1       6.116   1.879  -7.276  0.00  0.00    +0.015 C 
ENDBRANCH  30  32
ENDBRANCH  22  30
ENDBRANCH  21  26
ENDBRANCH   1  21
TORSDOF 6
