REMARK  Name = ZINC06888759
REMARK  5 active torsions:
REMARK  status: ('A' for Active; 'I' for Inactive)
REMARK    1  A    between atoms: C_4  and  C_10
REMARK    2  A    between atoms: C_6  and  N_7
REMARK    3  A    between atoms: N_11  and  N_12
REMARK    4  A    between atoms: C_13  and  C_15
REMARK    5  A    between atoms: C_20  and  O_21
REMARK                            x       y       z     vdW  Elec       q    Type
REMARK                         _______ _______ _______ _____ _____    ______ ____
ROOT
ATOM      1  N   UNL     1       6.030  -0.699  -0.061  0.00  0.00    -0.203 N 
ATOM      2  C   UNL     1       7.187  -0.007  -0.069  0.00  0.00    +0.267 C 
ATOM      3  O   UNL     1       7.167   1.209  -0.062  0.00  0.00    -0.268 OA
ATOM      4  H   UNL     1       6.045  -1.669  -0.066  0.00  0.00    +0.178 HD
ENDROOT
BRANCH   2   5
ATOM      5  C   UNL     1       8.475  -0.724  -0.085  0.00  0.00    +0.081 A 
ATOM      6  C   UNL     1       8.502  -2.121  -0.099  0.00  0.00    +0.032 A 
ATOM      7  C   UNL     1       9.710  -2.785  -0.115  0.00  0.00    +0.019 A 
ATOM      8  C   UNL     1      10.899  -2.073  -0.117  0.00  0.00    +0.019 A 
ATOM      9  C   UNL     1      10.886  -0.693  -0.104  0.00  0.00    +0.047 A 
ATOM     10  C   UNL     1       9.680  -0.008  -0.093  0.00  0.00    +0.129 A 
ATOM     11 BR   UNL     1       9.745  -4.676  -0.133  0.00  0.00    -0.050 Br
BRANCH  10  12
ATOM     12  O   UNL     1       9.667   1.349  -0.086  0.00  0.00    -0.506 OA
ATOM     13  H   UNL     1       9.671   1.737   0.800  0.00  0.00    +0.292 HD
ENDBRANCH  10  12
ENDBRANCH   2   5
BRANCH   1  15
ATOM     14  C   UNL     1       3.692  -0.684  -0.037  0.00  0.00    +0.139 C 
ATOM     15  N   UNL     1       4.806  -0.018  -0.045  0.00  0.00    -0.187 NA
BRANCH  14  19
ATOM     16  C   UNL     1      -0.017   1.379   0.010  0.00  0.00    +0.034 A 
ATOM     17  C   UNL     1       1.168   2.094   0.002  0.00  0.00    +0.023 A 
ATOM     18  C   UNL     1       2.378   1.431  -0.013  0.00  0.00    +0.050 A 
ATOM     19  C   UNL     1       2.404   0.033  -0.021  0.00  0.00    +0.015 A 
ATOM     20  C   UNL     1       1.204  -0.681  -0.013  0.00  0.00    +0.043 A 
ATOM     21  C   UNL     1       0.002  -0.004   0.002  0.00  0.00    +0.127 A 
ATOM     22 CL   UNL     1       3.864   2.329  -0.023  0.00  0.00    -0.083 Cl
BRANCH  21  23
ATOM     23  N   UNL     1      -1.271  -0.759   0.011  0.00  0.00    +0.056 N 
ATOM     24  O   UNL     1      -2.325  -0.168   0.024  0.00  0.00    -0.126 OA
ATOM     25  O   UNL     1      -1.256  -1.968   0.004  0.00  0.00    -0.126 OA
ENDBRANCH  21  23
ENDBRANCH  14  19
ENDBRANCH   1  15
TORSDOF 5
