REMARK  Name = ZINC40985842
REMARK  14 active torsions:
REMARK  status: ('A' for Active; 'I' for Inactive)
REMARK    1  A    between atoms: C_1  and  C_2
REMARK    2  A    between atoms: C_5  and  C_8
REMARK    3  A    between atoms: C_8  and  S_9
REMARK    4  A    between atoms: S_9  and  C_10
REMARK    5  A    between atoms: C_13  and  C_17
REMARK    6  A    between atoms: N_19  and  C_20
REMARK    7  A    between atoms: C_20  and  C_21
REMARK    8  A    between atoms: C_21  and  C_23
REMARK    9  A    between atoms: C_21  and  N_32
REMARK   10  A    between atoms: C_26  and  N_29
REMARK   11  A    between atoms: N_29  and  C_30
REMARK   12  A    between atoms: N_29  and  C_31
REMARK   13  A    between atoms: N_32  and  C_33
REMARK   14  A    between atoms: N_32  and  C_34
REMARK                            x       y       z     vdW  Elec       q    Type
REMARK                         _______ _______ _______ _____ _____    ______ ____
ROOT
ATOM      1  C   UNL     1       0.577 -10.338  -0.452  0.00  0.00    +0.248 C 
ATOM      2  O   UNL     1       1.675 -10.826  -0.267  0.00  0.00    -0.270 OA
ATOM      3  N   UNL     1      -0.521 -11.120  -0.429  0.00  0.00    -0.312 N 
ATOM      4  H   UNL     1      -1.397 -10.730  -0.577  0.00  0.00    +0.149 HD
ENDROOT
BRANCH   1   8
ATOM      5  C   UNL     1       0.208  -6.257  -1.157  0.00  0.00    +0.190 A 
ATOM      6  N   UNL     1      -0.885  -7.011  -1.139  0.00  0.00    -0.229 NA
ATOM      7  C   UNL     1      -0.810  -8.309  -0.919  0.00  0.00    +0.129 A 
ATOM      8  C   UNL     1       0.446  -8.891  -0.703  0.00  0.00    +0.092 A 
ATOM      9  C   UNL     1       1.577  -8.060  -0.731  0.00  0.00    +0.146 A 
ATOM     10  N   UNL     1       1.417  -6.770  -0.963  0.00  0.00    -0.209 NA
ATOM     11 CL   UNL     1       3.162  -8.719  -0.470  0.00  0.00    -0.061 Cl
BRANCH   5  12
ATOM     12  S   UNL     1       0.050  -4.528  -1.456  0.00  0.00    -0.081 S 
BRANCH  12  13
ATOM     13  C   UNL     1      -1.735  -4.279  -1.660  0.00  0.00    +0.112 C 
BRANCH  13  18
ATOM     14  C   UNL     1      -2.801   1.309  -2.676  0.00  0.00    +0.044 C 
ATOM     15  C   UNL     1      -2.523  -0.149  -2.411  0.00  0.00    -0.050 A 
ATOM     16  C   UNL     1      -2.287  -1.010  -3.466  0.00  0.00    +0.003 A 
ATOM     17  C   UNL     1      -2.032  -2.347  -3.223  0.00  0.00    +0.005 A 
ATOM     18  C   UNL     1      -2.012  -2.822  -1.925  0.00  0.00    -0.037 A 
ATOM     19  C   UNL     1      -2.247  -1.960  -0.870  0.00  0.00    +0.005 A 
ATOM     20  C   UNL     1      -2.498  -0.623  -1.113  0.00  0.00    +0.003 A 
ENDBRANCH  13  18
ENDBRANCH  12  13
ENDBRANCH   5  12
ENDBRANCH   1   8
BRANCH   3  21
ATOM     21  C   UNL     1      -0.391 -12.558  -0.180  0.00  0.00    +0.094 C 
BRANCH  21  22
ATOM     22  C   UNL     1      -1.782 -13.185  -0.078  0.00  0.00    -0.021 C 
BRANCH  22  23
ATOM     23  C   UNL     1      -2.493 -12.637   1.132  0.00  0.00    -0.059 A 
ATOM     24  C   UNL     1      -2.205 -13.141   2.388  0.00  0.00    +0.004 A 
ATOM     25  C   UNL     1      -2.855 -12.641   3.499  0.00  0.00    +0.023 A 
ATOM     26  C   UNL     1      -3.798 -11.631   3.355  0.00  0.00    +0.029 A 
ATOM     27  C   UNL     1      -4.085 -11.128   2.092  0.00  0.00    +0.023 A 
ATOM     28  C   UNL     1      -3.428 -11.629   0.986  0.00  0.00    +0.004 A 
BRANCH  26  29
ATOM     29  N   UNL     1      -4.457 -11.124   4.477  0.00  0.00    -0.336 N 
ATOM     30  C   UNL     1      -4.154 -11.656   5.808  0.00  0.00    +0.129 C 
ATOM     31  C   UNL     1      -5.452 -10.059   4.323  0.00  0.00    +0.129 C 
ENDBRANCH  26  29
ENDBRANCH  22  23
BRANCH  22  32
ATOM     32  N   UNL     1      -1.654 -14.643   0.048  0.00  0.00    +0.382 N 
ATOM     33  C   UNL     1      -2.987 -15.242   0.196  0.00  0.00    -0.096 C 
ATOM     34  C   UNL     1      -1.006 -15.184  -1.155  0.00  0.00    -0.096 C 
ATOM     35  H   UNL     1      -1.095 -14.863   0.858  0.00  0.00    -0.082 HD
ENDBRANCH  22  32
ENDBRANCH  21  22
ENDBRANCH   3  21
TORSDOF 9
