REMARK  Name = ZINC00890286
REMARK  6 active torsions:
REMARK  status: ('A' for Active; 'I' for Inactive)
REMARK    1  A    between atoms: C_1  and  O_2
REMARK    2  A    between atoms: O_2  and  C_3
REMARK    3  A    between atoms: C_8  and  C_15
REMARK    4  A    between atoms: C_15  and  C_17
REMARK    5  A    between atoms: C_15  and  N_28
REMARK    6  A    between atoms: N_21  and  C_22
REMARK                            x       y       z     vdW  Elec       q    Type
REMARK                         _______ _______ _______ _____ _____    ______ ____
ROOT
ATOM      1  C   UNL     1       1.688   3.140   0.002  0.00  0.00    +0.179 C 
ENDROOT
BRANCH   1   7
ATOM      2  C   UNL     1       3.380   6.418  -5.341  0.00  0.00    +0.122 A 
ATOM      3  C   UNL     1       4.523   5.845  -4.786  0.00  0.00    +0.046 A 
ATOM      4  C   UNL     1       4.440   5.097  -3.648  0.00  0.00    +0.013 A 
ATOM      5  C   UNL     1       3.198   4.904  -3.032  0.00  0.00    -0.001 A 
ATOM      6  C   UNL     1       3.078   4.112  -1.808  0.00  0.00    +0.021 A 
ATOM      7  C   UNL     1       1.848   3.954  -1.256  0.00  0.00    +0.045 A 
ATOM      8  C   UNL     1       0.719   4.553  -1.852  0.00  0.00    +0.255 A 
ATOM      9  O   UNL     1      -0.375   4.402  -1.337  0.00  0.00    -0.268 OA
ATOM     10  N   UNL     1       0.820   5.287  -2.974  0.00  0.00    -0.322 N 
ATOM     11  H   UNL     1       0.023   5.685  -3.358  0.00  0.00    +0.169 HD
ATOM     12  C   UNL     1       2.039   5.481  -3.588  0.00  0.00    +0.053 A 
ATOM     13  C   UNL     1       2.143   6.239  -4.747  0.00  0.00    +0.072 A 
BRANCH   2  15
ATOM     14  C   UNL     1       4.785   7.307  -7.039  0.00  0.00    +0.277 C 
ATOM     15  O   UNL     1       3.481   7.160  -6.474  0.00  0.00    -0.495 OA
ENDBRANCH   2  15
ENDBRANCH   1   7
BRANCH   1  16
ATOM     16  N   UNL     1       0.993   3.940   1.018  0.00  0.00    -0.315 N 
ATOM     17  C   UNL     1       1.653   5.251   1.205  0.00  0.00    +0.111 C 
ATOM     18  C   UNL     1       1.379   5.559   2.695  0.00  0.00    +0.056 C 
ATOM     19  C   UNL     1       1.199   4.179   3.296  0.00  0.00    -0.025 A 
ATOM     20  C   UNL     1       0.983   3.283   2.255  0.00  0.00    +0.034 A 
ATOM     21  C   UNL     1       0.797   1.934   2.550  0.00  0.00    +0.023 A 
ATOM     22  C   UNL     1       0.822   1.500   3.859  0.00  0.00    +0.002 A 
ATOM     23  C   UNL     1       1.032   2.400   4.888  0.00  0.00    +0.000 A 
ATOM     24  C   UNL     1       1.220   3.740   4.603  0.00  0.00    +0.005 A 
ENDBRANCH   1  16
BRANCH   1  25
ATOM     25  C   UNL     1       0.885   1.902  -0.299  0.00  0.00    +0.177 A 
ATOM     26  N   UNL     1      -0.409   1.838  -0.499  0.00  0.00    -0.111 NA
ATOM     27  N   UNL     1      -0.717   0.608  -0.727  0.00  0.00    -0.023 NA
ATOM     28  N   UNL     1       0.348  -0.115  -0.677  0.00  0.00    -0.044 NA
ATOM     29  N   UNL     1       1.356   0.646  -0.416  0.00  0.00    -0.224 N 
BRANCH  29  30
ATOM     30  C   UNL     1       2.751   0.224  -0.272  0.00  0.00    +0.111 C 
ATOM     31  C   UNL     1       3.224  -0.425  -1.575  0.00  0.00    +0.027 C 
ATOM     32  C   UNL     1       4.682  -0.866  -1.424  0.00  0.00    +0.002 C 
ATOM     33  C   UNL     1       4.793  -1.877  -0.281  0.00  0.00    +0.000 C 
ATOM     34  C   UNL     1       4.320  -1.228   1.021  0.00  0.00    +0.002 C 
ATOM     35  C   UNL     1       2.863  -0.787   0.871  0.00  0.00    +0.027 C 
ENDBRANCH  29  30
ENDBRANCH   1  25
TORSDOF 5
