REMARK  Name = ZINC39978405
REMARK  12 active torsions:
REMARK  status: ('A' for Active; 'I' for Inactive)
REMARK    1  A    between atoms: C_1  and  C_2
REMARK    2  A    between atoms: C_7  and  C_8
REMARK    3  A    between atoms: C_8  and  C_10
REMARK    4  A    between atoms: C_8  and  O_16
REMARK    5  A    between atoms: O_16  and  C_17
REMARK    6  A    between atoms: C_17  and  C_18
REMARK    7  A    between atoms: C_18  and  C_20
REMARK    8  A    between atoms: C_18  and  O_37
REMARK    9  A    between atoms: C_20  and  N_21
REMARK   10  A    between atoms: C_26  and  C_33
REMARK   11  A    between atoms: C_29  and  C_31
REMARK   12  A    between atoms: C_29  and  C_32
REMARK                            x       y       z     vdW  Elec       q    Type
REMARK                         _______ _______ _______ _____ _____    ______ ____
ROOT
ATOM      1  C   UNL     1       3.775  -1.318   7.079  0.00  0.00    +0.158 C 
ENDROOT
BRANCH   1   2
ATOM      2  O   UNL     1       4.896  -1.991   6.502  0.00  0.00    -0.388 OA
ATOM      3  H   UNL     1       5.351  -1.482   5.817  0.00  0.00    +0.210 HD
ENDBRANCH   1   2
BRANCH   1   4
ATOM      4  C   UNL     1       2.748  -1.012   5.988  0.00  0.00    +0.194 C 
BRANCH   4   5
ATOM      5  O   UNL     1       2.227  -2.236   5.467  0.00  0.00    -0.365 OA
BRANCH   5   6
ATOM      6  C   UNL     1       1.253  -2.062   4.436  0.00  0.00    +0.179 C 
BRANCH   6  13
ATOM      7  C   UNL     1       0.429  -1.736   1.686  0.00  0.00    +0.044 C 
ATOM      8  C   UNL     1       0.914  -3.077   2.173  0.00  0.00    -0.044 A 
ATOM      9  C   UNL     1       0.971  -4.150   1.303  0.00  0.00    +0.004 A 
ATOM     10  C   UNL     1       1.416  -5.380   1.750  0.00  0.00    +0.000 A 
ATOM     11  C   UNL     1       1.805  -5.537   3.067  0.00  0.00    +0.000 A 
ATOM     12  C   UNL     1       1.750  -4.464   3.937  0.00  0.00    +0.007 A 
ATOM     13  C   UNL     1       1.308  -3.233   3.489  0.00  0.00    -0.012 A 
ENDBRANCH   6  13
BRANCH   6  14
ATOM     14  C   UNL     1      -0.120  -1.977   5.050  0.00  0.00    -0.014 A 
ATOM     15  C   UNL     1      -0.485  -2.859   6.050  0.00  0.00    +0.006 A 
ATOM     16  C   UNL     1      -1.745  -2.782   6.614  0.00  0.00    +0.000 A 
ATOM     17  C   UNL     1      -2.639  -1.823   6.179  0.00  0.00    +0.000 A 
ATOM     18  C   UNL     1      -2.274  -0.940   5.179  0.00  0.00    +0.000 A 
ATOM     19  C   UNL     1      -1.013  -1.014   4.618  0.00  0.00    +0.006 A 
ENDBRANCH   6  14
ENDBRANCH   5   6
ENDBRANCH   4   5
ENDBRANCH   1   4
BRANCH   1  20
ATOM     20  C   UNL     1       4.241  -0.011   7.723  0.00  0.00    +0.151 C 
BRANCH  20  21
ATOM     21  N   UNL     1       5.225  -0.304   8.768  0.00  0.00    -0.222 N 
ATOM     22  C   UNL     1       4.913  -0.538  10.059  0.00  0.00    +0.247 C 
ATOM     23  O   UNL     1       3.808  -0.546  10.557  0.00  0.00    -0.273 OA
ATOM     24  C   UNL     1       6.231  -0.789  10.754  0.00  0.00    +0.113 C 
ATOM     25  C   UNL     1       6.262  -2.195  11.343  0.00  0.00    +0.038 C 
ATOM     26  C   UNL     1       7.616  -2.440  12.015  0.00  0.00    -0.011 C 
ATOM     27  C   UNL     1       7.832  -1.401  13.118  0.00  0.00    +0.009 C 
ATOM     28  C   UNL     1       7.821   0.002  12.508  0.00  0.00    -0.032 C 
ATOM     29  C   UNL     1       6.469   0.256  11.838  0.00  0.00    +0.041 C 
ATOM     30  C   UNL     1       8.936   0.113  11.466  0.00  0.00    +0.011 C 
ATOM     31  C   UNL     1       8.048   1.039  13.610  0.00  0.00    +0.011 C 
ATOM     32  C   UNL     1       7.637  -3.843  12.625  0.00  0.00    +0.007 C 
ATOM     33  N   UNL     1       7.229  -0.658   9.684  0.00  0.00    -0.285 N 
ATOM     34  C   UNL     1       6.545  -0.378   8.558  0.00  0.00    +0.309 C 
ATOM     35  O   UNL     1       7.068  -0.209   7.474  0.00  0.00    -0.252 OA
ATOM     36  H   UNL     1       8.190  -0.756   9.771  0.00  0.00    +0.151 HD
ENDBRANCH  20  21
ENDBRANCH   1  20
TORSDOF 8
