REMARK  Name = ZINC14457471
REMARK  8 active torsions:
REMARK  status: ('A' for Active; 'I' for Inactive)
REMARK    1  A    between atoms: C_1  and  C_2
REMARK    2  A    between atoms: C_2  and  N_3
REMARK    3  A    between atoms: N_3  and  C_4
REMARK    4  A    between atoms: C_10  and  C_12
REMARK    5  A    between atoms: C_19  and  C_28
REMARK    6  A    between atoms: C_31  and  O_35
REMARK    7  A    between atoms: C_32  and  O_34
REMARK    8  A    between atoms: O_35  and  C_36
REMARK                            x       y       z     vdW  Elec       q    Type
REMARK                         _______ _______ _______ _____ _____    ______ ____
ROOT
ATOM      1  C   UNL     1       0.031  -4.947  -2.348  0.00  0.00    +0.058 A 
ATOM      2  C   UNL     1      -0.558  -6.183  -2.080  0.00  0.00    +0.015 A 
ATOM      3  C   UNL     1       0.060  -7.059  -1.215  0.00  0.00    +0.001 A 
ATOM      4  C   UNL     1       1.258  -6.717  -0.615  0.00  0.00    +0.006 A 
ATOM      5  C   UNL     1       1.861  -5.493  -0.869  0.00  0.00    -0.019 A 
ATOM      6  C   UNL     1       1.251  -4.601  -1.734  0.00  0.00    +0.044 A 
ATOM      7  N   UNL     1       1.798  -3.362  -2.027  0.00  0.00    -0.336 N 
ATOM      8  C   UNL     1       3.253  -3.347  -1.869  0.00  0.00    +0.105 C 
ATOM      9  C   UNL     1       3.613  -3.740  -0.435  0.00  0.00    +0.029 C 
ATOM     10  C   UNL     1       3.165  -5.197  -0.189  0.00  0.00    +0.049 C 
ATOM     11  C   UNL     1       4.277  -6.031  -0.785  0.00  0.00    -0.023 C 
ATOM     12  C   UNL     1       5.375  -5.325  -0.886  0.00  0.00    -0.030 C 
ATOM     13  C   UNL     1       5.155  -3.920  -0.363  0.00  0.00    +0.033 C 
ATOM     14  H   UNL     1       1.367  -2.636  -1.474  0.00  0.00    +0.147 HD
ENDROOT
BRANCH   8  15
ATOM     15  C   UNL     1       3.776  -1.963  -2.157  0.00  0.00    -0.023 A 
ATOM     16  C   UNL     1       3.077  -0.856  -1.713  0.00  0.00    +0.009 A 
ATOM     17  C   UNL     1       3.553   0.416  -1.974  0.00  0.00    +0.050 A 
ATOM     18  C   UNL     1       4.731   0.583  -2.683  0.00  0.00    +0.161 A 
ATOM     19  C   UNL     1       5.435  -0.532  -3.130  0.00  0.00    +0.159 A 
ATOM     20  C   UNL     1       4.953  -1.804  -2.865  0.00  0.00    +0.054 A 
BRANCH  19  21
ATOM     21  O   UNL     1       6.592  -0.373  -3.826  0.00  0.00    -0.503 OA
ATOM     22  H   UNL     1       6.470  -0.312  -4.783  0.00  0.00    +0.292 HD
ENDBRANCH  19  21
BRANCH  18  23
ATOM     23  O   UNL     1       5.201   1.833  -2.941  0.00  0.00    -0.491 OA
ATOM     24  C   UNL     1       4.427   2.930  -2.450  0.00  0.00    +0.277 C 
ENDBRANCH  18  23
ENDBRANCH   8  15
BRANCH   1  26
ATOM     25  N   UNL     1      -1.301  -4.468  -4.341  0.00  0.00    -0.268 N 
ATOM     26  C   UNL     1      -0.623  -4.004  -3.273  0.00  0.00    +0.253 C 
ATOM     27  O   UNL     1      -0.550  -2.807  -3.072  0.00  0.00    -0.270 OA
BRANCH  25  28
ATOM     28  C   UNL     1      -1.802  -3.575  -5.293  0.00  0.00    +0.037 A 
ATOM     29  C   UNL     1      -2.368  -4.055  -6.468  0.00  0.00    +0.023 A 
ATOM     30  C   UNL     1      -2.867  -3.170  -7.403  0.00  0.00    +0.002 A 
ATOM     31  C   UNL     1      -2.794  -1.808  -7.177  0.00  0.00    +0.000 A 
ATOM     32  C   UNL     1      -2.226  -1.327  -6.012  0.00  0.00    +0.002 A 
ATOM     33  C   UNL     1      -1.730  -2.206  -5.069  0.00  0.00    +0.023 A 
ENDBRANCH  25  28
BRANCH  25  35
ATOM     34  C   UNL     1      -2.970  -6.249  -4.188  0.00  0.00    +0.025 C 
ATOM     35  C   UNL     1      -1.513  -5.909  -4.505  0.00  0.00    +0.110 C 
ENDBRANCH  25  35
ENDBRANCH   1  26
TORSDOF 6
