REMARK  Name = ZINC37259266
REMARK  4 active torsions:
REMARK  status: ('A' for Active; 'I' for Inactive)
REMARK    1  A    between atoms: C_2  and  C_12
REMARK    2  A    between atoms: C_12  and  N_13
REMARK    3  A    between atoms: N_13  and  C_14
REMARK    4  A    between atoms: C_14  and  C_15
REMARK                            x       y       z     vdW  Elec       q    Type
REMARK                         _______ _______ _______ _____ _____    ______ ____
ROOT
ATOM      1  C   UNL     1      -0.017   1.383   0.010  0.00  0.00    +0.051 A 
ATOM      2  C   UNL     1       1.170   2.092   0.002  0.00  0.00    -0.060 A 
ATOM      3  C   UNL     1       2.378   1.421  -0.013  0.00  0.00    +0.021 A 
ATOM      4  C   UNL     1       2.405   0.038  -0.023  0.00  0.00    +0.063 A 
ATOM      5  C   UNL     1       1.217  -0.679  -0.016  0.00  0.00    +0.176 A 
ATOM      6  C   UNL     1       0.002  -0.004   0.002  0.00  0.00    +0.163 A 
ATOM      7  O   UNL     1      -1.174  -0.688   0.017  0.00  0.00    -0.485 OA
ATOM      8  C   UNL     1      -1.122  -2.066  -0.368  0.00  0.00    +0.270 C 
ATOM      9  C   UNL     1       0.061  -2.723   0.356  0.00  0.00    +0.270 C 
ATOM     10  O   UNL     1       1.258  -2.039  -0.029  0.00  0.00    -0.484 OA
ATOM     11 BR   UNL     1       4.060  -0.875  -0.046  0.00  0.00    -0.046 Br
ENDROOT
BRANCH   2  12
ATOM     12  C   UNL     1       1.146   3.599   0.010  0.00  0.00    -0.047 C 
BRANCH  12  13
ATOM     13  N   UNL     1       1.151   4.081   1.398  0.00  0.00    +0.382 N 
ATOM     14  H   UNL     1       0.337   3.729   1.879  0.00  0.00    -0.085 HD
ATOM     15  H   UNL     1       1.984   3.755   1.864  0.00  0.00    -0.085 HD
BRANCH  13  16
ATOM     16  C   UNL     1       1.127   5.550   1.406  0.00  0.00    -0.079 C 
BRANCH  16  17
ATOM     17  C   UNL     1       1.133   6.052   2.851  0.00  0.00    -0.028 C 
ATOM     18  C   UNL     1      -0.161   5.622   3.545  0.00  0.00    +0.002 C 
ATOM     19  C   UNL     1      -0.156   6.125   4.990  0.00  0.00    +0.000 C 
ATOM     20  C   UNL     1      -0.055   7.651   4.999  0.00  0.00    +0.000 C 
ATOM     21  C   UNL     1       1.240   8.081   4.305  0.00  0.00    +0.000 C 
ATOM     22  C   UNL     1       1.234   7.579   2.860  0.00  0.00    +0.002 C 
ENDBRANCH  16  17
ENDBRANCH  13  16
ENDBRANCH  12  13
ENDBRANCH   2  12
TORSDOF 4
