REMARK  Name = ZINC12566072
REMARK  9 active torsions:
REMARK  status: ('A' for Active; 'I' for Inactive)
REMARK    1  A    between atoms: C_1  and  C_2
REMARK    2  A    between atoms: C_2  and  C_3
REMARK    3  A    between atoms: C_3  and  C_5
REMARK    4  A    between atoms: C_3  and  N_6
REMARK    5  A    between atoms: C_7  and  C_26
REMARK    6  A    between atoms: N_11  and  C_12
REMARK    7  A    between atoms: C_13  and  C_25
REMARK    8  A    between atoms: N_14  and  C_24
REMARK    9  A    between atoms: N_15  and  C_18
REMARK                            x       y       z     vdW  Elec       q    Type
REMARK                         _______ _______ _______ _____ _____    ______ ____
ROOT
ATOM      1  N   UNL     1      -6.645   3.526  -0.001  0.00  0.00    -0.316 N 
ATOM      2  C   UNL     1      -7.151   4.789   0.157  0.00  0.00    +0.058 A 
ATOM      3  C   UNL     1      -6.344   5.785   0.574  0.00  0.00    +0.075 A 
ATOM      4  S   UNL     1      -4.782   4.944   0.774  0.00  0.00    -0.057 S 
ATOM      5  C   UNL     1      -5.313   3.310   0.286  0.00  0.00    +0.175 A 
ATOM      6  N   UNL     1      -4.617   2.196   0.214  0.00  0.00    -0.216 NA
ENDROOT
BRANCH   2   7
ATOM      7  C   UNL     1      -8.576   5.060  -0.135  0.00  0.00    +0.001 A 
ATOM      8  C   UNL     1      -9.358   5.755   0.788  0.00  0.00    +0.013 A 
ATOM      9  C   UNL     1     -10.688   6.010   0.516  0.00  0.00    +0.048 A 
ATOM     10  C   UNL     1     -11.248   5.576  -0.673  0.00  0.00    +0.142 A 
ATOM     11  C   UNL     1     -10.472   4.879  -1.600  0.00  0.00    +0.076 A 
ATOM     12  C   UNL     1      -9.138   4.626  -1.337  0.00  0.00    +0.037 A 
ATOM     13  N   UNL     1     -11.058   4.446  -2.798  0.00  0.00    -0.280 N 
ATOM     14  C   UNL     1     -12.244   4.971  -3.174  0.00  0.00    +0.255 C 
ATOM     15  O   UNL     1     -12.784   4.590  -4.191  0.00  0.00    -0.272 OA
ATOM     16  C   UNL     1     -12.894   6.034  -2.325  0.00  0.00    +0.325 C 
ATOM     17  O   UNL     1     -12.557   5.823  -0.951  0.00  0.00    -0.481 OA
ATOM     18  H   UNL     1     -10.618   3.779  -3.349  0.00  0.00    +0.155 HD
ENDBRANCH   2   7
BRANCH   6  19
ATOM     19  C   UNL     1      -3.313   2.170   0.653  0.00  0.00    +0.153 A 
ATOM     20  C   UNL     1      -2.884   2.386   1.924  0.00  0.00    +0.064 A 
ATOM     21  N   UNL     1      -1.517   2.265   1.949  0.00  0.00    -0.282 N 
ATOM     22  N   UNL     1      -1.056   1.974   0.660  0.00  0.00    -0.215 N 
ATOM     23  C   UNL     1      -2.122   1.903  -0.164  0.00  0.00    +0.298 A 
ATOM     24  O   UNL     1      -2.100   1.662  -1.357  0.00  0.00    -0.264 OA
ATOM     25  C   UNL     1      -0.673   2.421   3.136  0.00  0.00    +0.171 C 
ATOM     26  C   UNL     1      -3.762   2.700   3.108  0.00  0.00    +0.067 C 
BRANCH  22  27
ATOM     27  C   UNL     1       0.279   1.783   0.291  0.00  0.00    +0.067 A 
ATOM     28  C   UNL     1       1.248   2.698   0.684  0.00  0.00    +0.028 A 
ATOM     29  C   UNL     1       2.564   2.510   0.312  0.00  0.00    +0.002 A 
ATOM     30  C   UNL     1       2.919   1.412  -0.450  0.00  0.00    +0.000 A 
ATOM     31  C   UNL     1       1.958   0.499  -0.843  0.00  0.00    +0.002 A 
ATOM     32  C   UNL     1       0.639   0.682  -0.475  0.00  0.00    +0.028 A 
ENDBRANCH  22  27
ENDBRANCH   6  19
BRANCH   1  33
ATOM     33  C   UNL     1      -7.499   2.428  -0.460  0.00  0.00    +0.086 C 
ATOM     34  C   UNL     1      -8.527   2.095   0.623  0.00  0.00    +0.031 C 
BRANCH  33  36
ATOM     35  C   UNL     1      -5.715   1.480  -1.929  0.00  0.00    +0.006 C 
ATOM     36  C   UNL     1      -6.638   1.196  -0.743  0.00  0.00    +0.021 C 
ENDBRANCH  33  36
ENDBRANCH   1  33
TORSDOF 5
