REMARK  Name = ZINC61594440
REMARK  9 active torsions:
REMARK  status: ('A' for Active; 'I' for Inactive)
REMARK    1  A    between atoms: C_1  and  C_2
REMARK    2  A    between atoms: C_2  and  C_3
REMARK    3  A    between atoms: C_3  and  C_5
REMARK    4  A    between atoms: C_3  and  N_24
REMARK    5  A    between atoms: C_5  and  C_7
REMARK    6  A    between atoms: C_5  and  S_14
REMARK    7  A    between atoms: S_14  and  C_15
REMARK    8  A    between atoms: N_21  and  C_22
REMARK    9  A    between atoms: C_22  and  C_23
REMARK                            x       y       z     vdW  Elec       q    Type
REMARK                         _______ _______ _______ _____ _____    ______ ____
ROOT
ATOM      1  C   UNL     1       0.798  -2.172  -1.185  0.00  0.00    +0.070 C 
ENDROOT
BRANCH   1   2
ATOM      2  C   UNL     1       1.510  -2.864  -0.051  0.00  0.00    -0.035 A 
ATOM      3  C   UNL     1       2.884  -2.765   0.065  0.00  0.00    +0.005 A 
ATOM      4  C   UNL     1       3.538  -3.400   1.105  0.00  0.00    +0.001 A 
ATOM      5  C   UNL     1       2.817  -4.133   2.029  0.00  0.00    +0.015 A 
ATOM      6  C   UNL     1       1.442  -4.231   1.914  0.00  0.00    +0.018 A 
ATOM      7  C   UNL     1       0.788  -3.592   0.876  0.00  0.00    +0.020 A 
ATOM      8 BR   UNL     1       0.456  -5.234   3.178  0.00  0.00    -0.050 Br
ENDBRANCH   1   2
BRANCH   1   9
ATOM      9  C   UNL     1       0.731  -0.669  -0.904  0.00  0.00    -0.057 C 
BRANCH   9  10
ATOM     10  N   UNL     1       0.111  -0.444   0.408  0.00  0.00    +0.381 N 
ATOM     11  H   UNL     1      -0.026   0.546   0.550  0.00  0.00    -0.090 HD
ATOM     12  H   UNL     1      -0.781  -0.915   0.444  0.00  0.00    -0.090 HD
ATOM     13  H   UNL     1       0.713  -0.807   1.132  0.00  0.00    -0.090 HD
ENDBRANCH   9  10
BRANCH   9  15
ATOM     14  C   UNL     1       2.071   1.435  -0.767  0.00  0.00    +0.002 C 
ATOM     15  C   UNL     1       2.146  -0.086  -0.906  0.00  0.00    -0.018 C 
ENDBRANCH   9  15
ENDBRANCH   1   9
BRANCH   1  16
ATOM     16  S   UNL     1       1.703  -2.458  -2.731  0.00  0.00    -0.080 S 
BRANCH  16  17
ATOM     17  C   UNL     1       0.640  -1.803  -3.974  0.00  0.00    +0.193 A 
ATOM     18  N   UNL     1      -0.485  -1.184  -3.762  0.00  0.00    -0.145 NA
ATOM     19  N   UNL     1      -1.023  -0.822  -5.005  0.00  0.00    -0.226 N 
ATOM     20  H   UNL     1      -1.856  -0.349  -5.155  0.00  0.00    +0.194 HD
ATOM     21  C   UNL     1      -0.168  -1.253  -5.956  0.00  0.00    +0.345 A 
ATOM     22  O   UNL     1      -0.302  -1.119  -7.159  0.00  0.00    -0.245 OA
ATOM     23  N   UNL     1       0.865  -1.855  -5.332  0.00  0.00    -0.271 N 
BRANCH  23  24
ATOM     24  C   UNL     1       2.026  -2.463  -5.986  0.00  0.00    +0.125 C 
ATOM     25  C   UNL     1       1.732  -3.935  -6.281  0.00  0.00    +0.027 C 
ENDBRANCH  23  24
ENDBRANCH  16  17
ENDBRANCH   1  16
TORSDOF 7
