REMARK  Name = ZINC59385576
REMARK  13 active torsions:
REMARK  status: ('A' for Active; 'I' for Inactive)
REMARK    1  A    between atoms: C_1  and  C_2
REMARK    2  A    between atoms: C_2  and  C_3
REMARK    3  A    between atoms: C_2  and  C_4
REMARK    4  A    between atoms: C_4  and  C_6
REMARK    5  A    between atoms: C_4  and  N_17
REMARK    6  A    between atoms: C_18  and  C_20
REMARK    7  A    between atoms: C_20  and  N_21
REMARK    8  A    between atoms: N_21  and  C_22
REMARK    9  A    between atoms: N_21  and  C_31
REMARK   10  A    between atoms: C_22  and  C_23
REMARK   11  A    between atoms: C_28  and  O_29
REMARK   12  A    between atoms: O_29  and  C_30
REMARK   13  A    between atoms: C_31  and  C_32
REMARK                            x       y       z     vdW  Elec       q    Type
REMARK                         _______ _______ _______ _____ _____    ______ ____
ROOT
ATOM      1  N   UNL     1      -1.923   0.387  -0.775  0.00  0.00    -0.310 N 
ATOM      2  C   UNL     1      -2.695   1.489  -0.843  0.00  0.00    +0.197 C 
ATOM      3  O   UNL     1      -2.733   2.262   0.091  0.00  0.00    -0.278 OA
ATOM      4  H   UNL     1      -1.893  -0.231  -1.522  0.00  0.00    +0.149 HD
ENDROOT
BRANCH   1   5
ATOM      5  C   UNL     1      -1.128   0.122   0.427  0.00  0.00    +0.106 C 
BRANCH   5   6
ATOM      6  C   UNL     1      -0.866  -1.357   0.540  0.00  0.00    -0.023 A 
ATOM      7  C   UNL     1      -0.564  -2.092  -0.591  0.00  0.00    +0.009 A 
ATOM      8  C   UNL     1      -0.321  -3.451  -0.495  0.00  0.00    +0.050 A 
ATOM      9  C   UNL     1      -0.381  -4.073   0.740  0.00  0.00    +0.162 A 
ATOM     10  C   UNL     1      -0.684  -3.335   1.876  0.00  0.00    +0.162 A 
ATOM     11  C   UNL     1      -0.921  -1.975   1.777  0.00  0.00    +0.055 A 
ATOM     12  O   UNL     1      -0.739  -3.958   3.089  0.00  0.00    -0.488 OA
ATOM     13  C   UNL     1      -1.818  -4.878   3.271  0.00  0.00    +0.232 C 
ATOM     14  C   UNL     1      -1.461  -6.245   2.710  0.00  0.00    +0.082 C 
ATOM     15  C   UNL     1      -1.267  -6.220   1.202  0.00  0.00    +0.232 C 
ATOM     16  O   UNL     1      -0.142  -5.412   0.849  0.00  0.00    -0.488 OA
ENDBRANCH   5   6
BRANCH   5  18
ATOM     17  C   UNL     1      -0.064   2.373   0.220  0.00  0.00    +0.009 C 
ATOM     18  C   UNL     1       0.203   0.871   0.334  0.00  0.00    +0.008 C 
ATOM     19  C   UNL     1       1.032   0.595   1.590  0.00  0.00    +0.009 C 
ENDBRANCH   5  18
ENDBRANCH   1   5
BRANCH   2  20
ATOM     20  C   UNL     1      -3.512   1.761  -2.079  0.00  0.00    +0.019 C 
BRANCH  20  21
ATOM     21  N   UNL     1      -4.261   3.013  -1.906  0.00  0.00    +0.390 N 
ATOM     22  H   UNL     1      -4.813   2.961  -1.063  0.00  0.00    -0.081 HD
BRANCH  21  23
ATOM     23  C   UNL     1      -5.148   3.217  -3.059  0.00  0.00    -0.039 C 
BRANCH  23  24
ATOM     24  C   UNL     1      -6.199   2.137  -3.082  0.00  0.00    -0.022 A 
ATOM     25  C   UNL     1      -6.085   1.080  -3.964  0.00  0.00    +0.005 A 
ATOM     26  C   UNL     1      -7.048   0.089  -3.986  0.00  0.00    +0.000 A 
ATOM     27  C   UNL     1      -8.129   0.153  -3.126  0.00  0.00    +0.004 A 
ATOM     28  C   UNL     1      -8.248   1.208  -2.242  0.00  0.00    +0.046 A 
ATOM     29  C   UNL     1      -7.279   2.201  -2.214  0.00  0.00    +0.121 A 
BRANCH  29  30
ATOM     30  O   UNL     1      -7.390   3.237  -1.341  0.00  0.00    -0.495 OA
ATOM     31  C   UNL     1      -8.588   3.304  -0.565  0.00  0.00    +0.277 C 
ENDBRANCH  29  30
ENDBRANCH  23  24
ENDBRANCH  21  23
BRANCH  21  32
ATOM     32  C   UNL     1      -3.320   4.137  -1.807  0.00  0.00    -0.046 C 
BRANCH  32  33
ATOM     33  C   UNL     1      -4.088   5.418  -1.476  0.00  0.00    +0.102 C 
ATOM     34  C   UNL     1      -3.111   6.610  -1.399  0.00  0.00    +0.032 C 
ATOM     35  C   UNL     1      -3.671   7.419  -0.198  0.00  0.00    +0.030 C 
ATOM     36  C   UNL     1      -4.194   6.276   0.709  0.00  0.00    +0.160 C 
ATOM     37  O   UNL     1      -4.719   5.289  -0.196  0.00  0.00    -0.378 OA
ENDBRANCH  32  33
ENDBRANCH  21  32
ENDBRANCH  20  21
ENDBRANCH   2  20
TORSDOF 10
