REMARK  Name = ZINC15904696
REMARK  5 active torsions:
REMARK  status: ('A' for Active; 'I' for Inactive)
REMARK    1  A    between atoms: C_7  and  C_16
REMARK    2  A    between atoms: C_9  and  C_11
REMARK    3  A    between atoms: N_18  and  C_19
REMARK    4  A    between atoms: C_23  and  S_25
REMARK    5  A    between atoms: S_25  and  N_28
REMARK                            x       y       z     vdW  Elec       q    Type
REMARK                         _______ _______ _______ _____ _____    ______ ____
ROOT
ATOM      1  C   UNL     1       0.160  -3.097   0.564  0.00  0.00    +0.249 C 
ATOM      2  O   UNL     1      -0.819  -2.725   1.181  0.00  0.00    -0.270 OA
ATOM      3  N   UNL     1       0.129  -4.265  -0.107  0.00  0.00    -0.281 N 
ATOM      4  H   UNL     1       0.933  -4.600  -0.534  0.00  0.00    +0.155 HD
ENDROOT
BRANCH   1  11
ATOM      5  C   UNL     1       0.355   0.830   2.371  0.00  0.00    +0.001 A 
ATOM      6  C   UNL     1       1.534   1.570   2.328  0.00  0.00    +0.002 A 
ATOM      7  C   UNL     1       2.649   1.080   1.720  0.00  0.00    +0.028 A 
ATOM      8  C   UNL     1       2.616  -0.194   1.123  0.00  0.00    +0.073 A 
ATOM      9  C   UNL     1       1.413  -0.942   1.170  0.00  0.00    +0.013 A 
ATOM     10  C   UNL     1       0.285  -0.408   1.803  0.00  0.00    +0.011 A 
ATOM     11  C   UNL     1       1.383  -2.267   0.548  0.00  0.00    +0.048 A 
ATOM     12  C   UNL     1       2.549  -2.713  -0.056  0.00  0.00    +0.045 A 
ATOM     13  C   UNL     1       3.689  -1.891  -0.046  0.00  0.00    +0.107 A 
ATOM     14  N   UNL     1       3.693  -0.700   0.521  0.00  0.00    -0.244 NA
BRANCH  13  15
ATOM     15  C   UNL     1       4.924  -2.377  -0.692  0.00  0.00    +0.153 A 
ATOM     16  C   UNL     1       6.106  -1.706  -0.762  0.00  0.00    +0.051 A 
ATOM     17  C   UNL     1       7.002  -2.536  -1.462  0.00  0.00    +0.042 A 
ATOM     18  C   UNL     1       6.331  -3.662  -1.781  0.00  0.00    +0.196 A 
ATOM     19  O   UNL     1       5.078  -3.564  -1.310  0.00  0.00    -0.461 OA
ENDBRANCH  13  15
ENDBRANCH   1  11
BRANCH   3  20
ATOM     20  C   UNL     1      -1.061  -4.995  -0.187  0.00  0.00    +0.036 A 
ATOM     21  C   UNL     1      -2.279  -4.332  -0.272  0.00  0.00    +0.023 A 
ATOM     22  C   UNL     1      -3.453  -5.056  -0.350  0.00  0.00    +0.004 A 
ATOM     23  C   UNL     1      -3.416  -6.438  -0.345  0.00  0.00    +0.029 A 
ATOM     24  C   UNL     1      -2.205  -7.101  -0.260  0.00  0.00    +0.114 A 
ATOM     25  C   UNL     1      -1.028  -6.383  -0.188  0.00  0.00    +0.052 A 
BRANCH  24  26
ATOM     26  S   UNL     1      -2.165  -8.862  -0.253  0.00  0.00    +0.100 S 
ATOM     27  O   UNL     1      -0.951  -9.238   0.384  0.00  0.00    -0.146 OA
ATOM     28  O   UNL     1      -3.435  -9.296   0.214  0.00  0.00    -0.146 OA
BRANCH  26  29
ATOM     29  N   UNL     1      -2.046  -9.356  -1.829  0.00  0.00    -0.118 NA
ATOM     30  C   UNL     1      -1.997 -10.618  -2.109  0.00  0.00    +0.117 C 
ATOM     31  N   UNL     1      -2.049 -11.589  -1.097  0.00  0.00    -0.331 N 
ATOM     32  C   UNL     1      -3.224 -12.408  -1.037  0.00  0.00    +0.102 C 
ATOM     33  C   UNL     1      -3.191 -13.691  -1.884  0.00  0.00    +0.019 C 
ATOM     34  C   UNL     1      -2.552 -13.410  -3.267  0.00  0.00    +0.002 C 
ATOM     35  C   UNL     1      -2.977 -12.092  -3.853  0.00  0.00    +0.008 C 
ATOM     36  C   UNL     1      -1.893 -11.077  -3.478  0.00  0.00    +0.073 C 
ATOM     37  H   UNL     1      -1.321 -11.701  -0.466  0.00  0.00    +0.147 HD
ENDBRANCH  26  29
ENDBRANCH  24  26
ENDBRANCH   3  20
TORSDOF 5
