REMARK  Name = ZINC03927329
REMARK  6 active torsions:
REMARK  status: ('A' for Active; 'I' for Inactive)
REMARK    1  A    between atoms: C_10  and  C_11
REMARK    2  A    between atoms: C_12  and  C_13
REMARK    3  A    between atoms: C_12  and  C_15
REMARK    4  A    between atoms: C_15  and  C_17
REMARK    5  A    between atoms: C_20  and  O_24
REMARK    6  A    between atoms: C_21  and  O_23
REMARK                            x       y       z     vdW  Elec       q    Type
REMARK                         _______ _______ _______ _____ _____    ______ ____
ROOT
ATOM      1  C   UNL     1      -4.979   3.628  -0.071  0.00  0.00    +0.030 C 
ATOM      2  C   UNL     1      -3.736   3.032  -0.014  0.00  0.00    +0.099 C 
ENDROOT
BRANCH   1  12
ATOM      3  C   UNL     1      -4.156   5.919   0.439  0.00  0.00    +0.010 A 
ATOM      4  C   UNL     1      -4.243   7.273   0.320  0.00  0.00    +0.027 A 
ATOM      5  C   UNL     1      -5.267   7.849  -0.432  0.00  0.00    +0.046 A 
ATOM      6  C   UNL     1      -6.212   7.024  -1.075  0.00  0.00    +0.000 A 
ATOM      7  C   UNL     1      -7.135   7.929  -1.767  0.00  0.00    +0.027 A 
ATOM      8  C   UNL     1      -6.718   9.179  -1.516  0.00  0.00    +0.083 A 
ATOM      9  N   UNL     1      -5.604   9.149  -0.720  0.00  0.00    -0.361 N 
ATOM     10  H   UNL     1      -5.124   9.931  -0.406  0.00  0.00    +0.165 HD
ATOM     11  C   UNL     1      -6.121   5.641  -0.960  0.00  0.00    +0.018 A 
ATOM     12  C   UNL     1      -5.088   5.083  -0.203  0.00  0.00    -0.023 A 
ENDBRANCH   1  12
BRANCH   2  13
ATOM     13  C   UNL     1      -3.625   1.634   0.274  0.00  0.00    +0.103 C 
ATOM     14  N   UNL     1      -3.537   0.525   0.503  0.00  0.00    -0.191 NA
ENDBRANCH   2  13
BRANCH   2  15
ATOM     15  C   UNL     1      -2.525   3.833  -0.249  0.00  0.00    +0.203 C 
ATOM     16  O   UNL     1      -2.313   4.306  -1.350  0.00  0.00    -0.286 OA
BRANCH  15  17
ATOM     17  C   UNL     1      -1.568   4.063   0.851  0.00  0.00    +0.027 A 
ATOM     18  C   UNL     1      -1.867   3.623   2.143  0.00  0.00    +0.015 A 
ATOM     19  C   UNL     1      -0.974   3.842   3.170  0.00  0.00    +0.050 A 
ATOM     20  C   UNL     1       0.228   4.491   2.921  0.00  0.00    +0.158 A 
ATOM     21  C   UNL     1       0.535   4.928   1.633  0.00  0.00    +0.159 A 
ATOM     22  C   UNL     1      -0.357   4.715   0.601  0.00  0.00    +0.061 A 
BRANCH  21  23
ATOM     23  O   UNL     1       1.714   5.562   1.393  0.00  0.00    -0.503 OA
ATOM     24  H   UNL     1       2.438   4.969   1.152  0.00  0.00    +0.292 HD
ENDBRANCH  21  23
BRANCH  20  25
ATOM     25  O   UNL     1       1.107   4.701   3.935  0.00  0.00    -0.503 OA
ATOM     26  H   UNL     1       1.745   3.984   4.056  0.00  0.00    +0.292 HD
ENDBRANCH  20  25
ENDBRANCH  15  17
ENDBRANCH   2  15
TORSDOF 6
