REMARK  Name = ZINC39665933
REMARK  11 active torsions:
REMARK  status: ('A' for Active; 'I' for Inactive)
REMARK    1  A    between atoms: C_1  and  C_2
REMARK    2  A    between atoms: C_5  and  O_8
REMARK    3  A    between atoms: O_8  and  C_9
REMARK    4  A    between atoms: C_9  and  C_11
REMARK    5  A    between atoms: C_9  and  C_12
REMARK    6  A    between atoms: C_12  and  N_13
REMARK    7  A    between atoms: C_14  and  C_16
REMARK    8  A    between atoms: C_27  and  C_29
REMARK    9  A    between atoms: C_34  and  O_35
REMARK   10  A    between atoms: O_35  and  C_36
REMARK   11  A    between atoms: C_36  and  C_38
REMARK                            x       y       z     vdW  Elec       q    Type
REMARK                         _______ _______ _______ _____ _____    ______ ____
ROOT
ATOM      1  C   UNL     1      -4.080  -6.751   0.451  0.00  0.00    +0.100 C 
ATOM      2  C   UNL     1      -4.682  -5.820   1.526  0.00  0.00    +0.121 C 
ATOM      3  N   UNL     1      -6.064  -6.318   1.722  0.00  0.00    -0.296 N 
ATOM      4  C   UNL     1      -5.936  -7.794   1.660  0.00  0.00    +0.115 C 
ATOM      5  C   UNL     1      -4.905  -8.046   0.542  0.00  0.00    -0.004 C 
ATOM      6  C   UNL     1      -4.005  -9.221   0.911  0.00  0.00    -0.010 C 
ATOM      7  C   UNL     1      -4.837 -10.506   0.939  0.00  0.00    -0.082 C 
ATOM      8  N   UNL     1      -5.447 -10.725  -0.378  0.00  0.00    +0.379 N 
ATOM      9  C   UNL     1      -6.383  -9.636  -0.684  0.00  0.00    -0.082 C 
ATOM     10  C   UNL     1      -5.616  -8.314  -0.781  0.00  0.00    -0.010 C 
ATOM     11  C   UNL     1      -7.184  -5.593   1.912  0.00  0.00    +0.250 C 
ATOM     12  O   UNL     1      -8.268  -6.145   1.944  0.00  0.00    -0.270 OA
ATOM     13  H   UNL     1      -4.724 -10.754  -1.082  0.00  0.00    -0.086 HD
ATOM     14  H   UNL     1      -5.944 -11.603  -0.375  0.00  0.00    -0.086 HD
ENDROOT
BRANCH  11  15
ATOM     15  C   UNL     1      -7.097  -4.130   2.082  0.00  0.00    +0.079 A 
ATOM     16  C   UNL     1      -5.929  -3.550   2.584  0.00  0.00    +0.017 A 
ATOM     17  C   UNL     1      -5.854  -2.182   2.740  0.00  0.00    +0.001 A 
ATOM     18  C   UNL     1      -6.930  -1.379   2.400  0.00  0.00    +0.004 A 
ATOM     19  C   UNL     1      -8.090  -1.940   1.902  0.00  0.00    +0.047 A 
ATOM     20  C   UNL     1      -8.181  -3.314   1.734  0.00  0.00    +0.144 A 
BRANCH  20  21
ATOM     21  O   UNL     1      -9.319  -3.866   1.240  0.00  0.00    -0.425 OA
BRANCH  21  22
ATOM     22  C   UNL     1      -9.314  -4.283  -0.036  0.00  0.00    +0.309 C 
ATOM     23  O   UNL     1      -8.293  -4.245  -0.681  0.00  0.00    -0.251 OA
ATOM     24  C   UNL     1     -10.583  -4.799  -0.665  0.00  0.00    +0.136 C 
ENDBRANCH  21  22
ENDBRANCH  20  21
ENDBRANCH  11  15
BRANCH   1  26
ATOM     25  N   UNL     1      -1.766  -7.262  -0.257  0.00  0.00    -0.312 N 
ATOM     26  C   UNL     1      -2.630  -7.031   0.751  0.00  0.00    +0.218 C 
ATOM     27  O   UNL     1      -2.241  -7.047   1.899  0.00  0.00    -0.275 OA
ATOM     28  H   UNL     1      -2.077  -7.249  -1.176  0.00  0.00    +0.149 HD
BRANCH  25  29
ATOM     29  C   UNL     1      -0.356  -7.534   0.035  0.00  0.00    +0.148 C 
BRANCH  29  30
ATOM     30  C   UNL     1       0.401  -7.761  -1.276  0.00  0.00    +0.187 C 
ATOM     31  C   UNL     1       1.873  -8.045  -0.971  0.00  0.00    +0.053 C 
BRANCH  30  32
ATOM     32  O   UNL     1      -0.166  -8.876  -1.967  0.00  0.00    -0.488 OA
BRANCH  32  37
ATOM     33  C   UNL     1       0.534  -9.045  -7.553  0.00  0.00    +0.044 C 
ATOM     34  C   UNL     1       0.347  -9.000  -6.058  0.00  0.00    -0.050 A 
ATOM     35  C   UNL     1       0.782  -7.901  -5.341  0.00  0.00    +0.007 A 
ATOM     36  C   UNL     1       0.612  -7.857  -3.971  0.00  0.00    +0.046 A 
ATOM     37  C   UNL     1       0.003  -8.916  -3.315  0.00  0.00    +0.121 A 
ATOM     38  C   UNL     1      -0.434 -10.018  -4.037  0.00  0.00    +0.046 A 
ATOM     39  C   UNL     1      -0.266 -10.055  -5.407  0.00  0.00    +0.007 A 
ENDBRANCH  32  37
ENDBRANCH  30  32
ENDBRANCH  29  30
ENDBRANCH  25  29
ENDBRANCH   1  26
TORSDOF 8
