REMARK  Name = ZINC21361675
REMARK  8 active torsions:
REMARK  status: ('A' for Active; 'I' for Inactive)
REMARK    1  A    between atoms: C_1  and  C_2
REMARK    2  A    between atoms: C_8  and  N_19
REMARK    3  A    between atoms: C_9  and  C_12
REMARK    4  A    between atoms: N_14  and  C_15
REMARK    5  A    between atoms: C_15  and  C_16
REMARK    6  A    between atoms: C_16  and  C_17
REMARK    7  A    between atoms: C_16  and  C_18
REMARK    8  A    between atoms: C_20  and  C_22
REMARK                            x       y       z     vdW  Elec       q    Type
REMARK                         _______ _______ _______ _____ _____    ______ ____
ROOT
ATOM      1  C   UNL     1      -5.800  -3.684  -1.233  0.00  0.00    +0.044 C 
ATOM      2  C   UNL     1      -4.378  -3.888  -0.776  0.00  0.00    -0.050 A 
ATOM      3  C   UNL     1      -3.910  -5.173  -0.534  0.00  0.00    +0.005 A 
ATOM      4  C   UNL     1      -2.615  -5.382  -0.117  0.00  0.00    +0.026 A 
ATOM      5  C   UNL     1      -1.762  -4.296   0.066  0.00  0.00    +0.049 A 
ATOM      6  C   UNL     1      -2.243  -2.996  -0.174  0.00  0.00    +0.022 A 
ATOM      7  C   UNL     1      -3.560  -2.808  -0.603  0.00  0.00    +0.015 A 
ATOM      8  C   UNL     1      -1.131  -2.082   0.096  0.00  0.00    +0.072 A 
ATOM      9  C   UNL     1      -0.064  -2.863   0.486  0.00  0.00    +0.124 A 
ATOM     10  N   UNL     1      -0.450  -4.195   0.466  0.00  0.00    -0.349 N 
ATOM     11  H   UNL     1       0.122  -5.102   0.712  0.00  0.00    +0.166 HD
ENDROOT
BRANCH   9  12
ATOM     12  C   UNL     1       1.260  -2.368   0.862  0.00  0.00    +0.262 C 
ATOM     13  O   UNL     1       1.462  -1.170   0.942  0.00  0.00    -0.269 OA
ATOM     14  N   UNL     1       2.258  -3.237   1.118  0.00  0.00    -0.310 N 
ATOM     15  H   UNL     1       2.076  -4.320   1.045  0.00  0.00    +0.149 HD
BRANCH  14  16
ATOM     16  C   UNL     1       3.584  -2.741   1.494  0.00  0.00    +0.107 C 
BRANCH  16  17
ATOM     17  C   UNL     1       4.524  -3.925   1.727  0.00  0.00    -0.000 C 
ATOM     18  C   UNL     1       5.938  -3.408   1.997  0.00  0.00    +0.009 C 
ATOM     19  C   UNL     1       4.037  -4.732   2.933  0.00  0.00    +0.009 C 
ENDBRANCH  16  17
ENDBRANCH  14  16
ENDBRANCH   9  12
BRANCH   8  20
ATOM     20  N   UNL     1      -1.149  -0.695  -0.013  0.00  0.00    -0.279 N 
ATOM     21  C   UNL     1      -2.247  -0.005   0.353  0.00  0.00    +0.248 C 
ATOM     22  O   UNL     1      -3.255  -0.598   0.686  0.00  0.00    -0.270 OA
ATOM     23  H   UNL     1      -0.267  -0.162  -0.399  0.00  0.00    +0.155 HD
BRANCH  21  24
ATOM     24  C   UNL     1      -2.225   1.472   0.351  0.00  0.00    +0.037 A 
ATOM     25  C   UNL     1      -1.067   2.156  -0.025  0.00  0.00    +0.014 A 
ATOM     26  C   UNL     1      -1.055   3.535  -0.030  0.00  0.00    +0.021 A 
ATOM     27  C   UNL     1      -2.185   4.242   0.347  0.00  0.00    +0.041 A 
ATOM     28  C   UNL     1      -3.335   3.569   0.727  0.00  0.00    +0.021 A 
ATOM     29  C   UNL     1      -3.361   2.191   0.731  0.00  0.00    +0.014 A 
ATOM     30 CL   UNL     1      -2.159   5.978   0.344  0.00  0.00    -0.084 Cl
ENDBRANCH  21  24
ENDBRANCH   8  20
TORSDOF 5
