REMARK  Name = ZINC20532649
REMARK  7 active torsions:
REMARK  status: ('A' for Active; 'I' for Inactive)
REMARK    1  A    between atoms: C_1  and  N_2
REMARK    2  A    between atoms: N_2  and  C_3
REMARK    3  A    between atoms: N_2  and  S_17
REMARK    4  A    between atoms: C_3  and  C_4
REMARK    5  A    between atoms: N_6  and  C_7
REMARK    6  A    between atoms: C_7  and  C_8
REMARK    7  A    between atoms: S_17  and  C_20
REMARK                            x       y       z     vdW  Elec       q    Type
REMARK                         _______ _______ _______ _____ _____    ______ ____
ROOT
ATOM      1  C   UNL     1      10.520  -0.580   1.130  0.00  0.00    +0.132 C 
ATOM      2  N   UNL     1       9.670  -1.769   1.032  0.00  0.00    -0.171 NA
ENDROOT
BRANCH   2   3
ATOM      3  S   UNL     1      10.228  -3.232   1.571  0.00  0.00    +0.061 S 
ATOM      4  O   UNL     1      11.236  -2.953   2.533  0.00  0.00    -0.153 OA
ATOM      5  O   UNL     1       9.083  -4.018   1.873  0.00  0.00    -0.153 OA
BRANCH   3   6
ATOM      6  C   UNL     1      11.032  -4.016   0.213  0.00  0.00    +0.106 A 
ATOM      7  C   UNL     1      10.305  -4.842  -0.634  0.00  0.00    +0.030 A 
ATOM      8  C   UNL     1      10.914  -5.459  -1.704  0.00  0.00    +0.028 A 
ATOM      9  C   UNL     1      12.271  -5.264  -1.936  0.00  0.00    +0.047 A 
ATOM     10  C   UNL     1      13.006  -4.431  -1.070  0.00  0.00    +0.005 A 
ATOM     11  C   UNL     1      12.366  -3.810   0.005  0.00  0.00    +0.038 A 
ATOM     12  C   UNL     1      14.374  -4.438  -1.577  0.00  0.00    -0.019 A 
ATOM     13  C   UNL     1      14.396  -5.230  -2.666  0.00  0.00    +0.020 A 
ATOM     14  N   UNL     1      13.145  -5.731  -2.893  0.00  0.00    -0.358 N 
ATOM     15  H   UNL     1      12.786  -6.407  -3.683  0.00  0.00    +0.166 HD
ATOM     16  C   UNL     1      15.639  -5.496  -3.484  0.00  0.00    +0.053 C 
ATOM     17  C   UNL     1      16.686  -4.431  -3.140  0.00  0.00    +0.006 C 
ATOM     18  C   UNL     1      16.839  -4.337  -1.619  0.00  0.00    +0.005 C 
ATOM     19  C   UNL     1      15.572  -3.713  -1.019  0.00  0.00    +0.037 C 
ENDBRANCH   3   6
ENDBRANCH   2   3
BRANCH   2  20
ATOM     20  C   UNL     1       8.326  -1.665   0.457  0.00  0.00    +0.204 C 
BRANCH  20  21
ATOM     21  C   UNL     1       7.355  -1.236   1.526  0.00  0.00    +0.229 C 
ATOM     22  O   UNL     1       7.746  -1.037   2.657  0.00  0.00    -0.274 OA
ATOM     23  N   UNL     1       6.051  -1.073   1.226  0.00  0.00    -0.310 N 
ATOM     24  H   UNL     1       5.696  -1.253   0.201  0.00  0.00    +0.149 HD
BRANCH  23  25
ATOM     25  C   UNL     1       5.107  -0.655   2.265  0.00  0.00    +0.139 C 
BRANCH  25  26
ATOM     26  C   UNL     1       3.725  -0.548   1.674  0.00  0.00    -0.027 A 
ATOM     27  C   UNL     1       2.885  -1.646   1.677  0.00  0.00    +0.009 A 
ATOM     28  C   UNL     1       1.617  -1.553   1.135  0.00  0.00    +0.050 A 
ATOM     29  C   UNL     1       1.183  -0.356   0.589  0.00  0.00    +0.166 A 
ATOM     30  C   UNL     1       2.028   0.751   0.586  0.00  0.00    +0.167 A 
ATOM     31  C   UNL     1       3.298   0.650   1.131  0.00  0.00    +0.054 A 
ATOM     32  O   UNL     1       1.376   1.797  -0.001  0.00  0.00    -0.453 OA
ATOM     33  C   UNL     1      -0.018   1.436   0.010  0.00  0.00    +0.466 C 
ATOM     34  O   UNL     1       0.002  -0.004   0.002  0.00  0.00    -0.453 OA
ENDBRANCH  25  26
ENDBRANCH  23  25
ENDBRANCH  20  21
ENDBRANCH   2  20
TORSDOF 6
