REMARK  Name = ZINC17885391
REMARK  8 active torsions:
REMARK  status: ('A' for Active; 'I' for Inactive)
REMARK    1  A    between atoms: C_1  and  C_2
REMARK    2  A    between atoms: C_4  and  O_30
REMARK    3  A    between atoms: C_6  and  O_29
REMARK    4  A    between atoms: C_8  and  O_28
REMARK    5  A    between atoms: C_10  and  N_13
REMARK    6  A    between atoms: N_13  and  C_14
REMARK    7  A    between atoms: C_17  and  N_20
REMARK    8  A    between atoms: N_21  and  C_22
REMARK                            x       y       z     vdW  Elec       q    Type
REMARK                         _______ _______ _______ _____ _____    ______ ____
ROOT
ATOM      1  N   UNL     1       1.453  -2.275   2.494  0.00  0.00    -0.317 N 
ATOM      2  H   UNL     1       2.414  -2.151   2.538  0.00  0.00    +0.149 HD
ENDROOT
BRANCH   1   8
ATOM      3  C   UNL     1      -0.623   0.893  -0.409  0.00  0.00    +0.041 C 
ATOM      4  C   UNL     1      -0.287  -0.592  -0.265  0.00  0.00    +0.149 C 
ATOM      5  C   UNL     1       0.588  -1.034  -1.440  0.00  0.00    +0.174 C 
ATOM      6  C   UNL     1       0.970  -2.506  -1.258  0.00  0.00    +0.178 C 
ATOM      7  C   UNL     1       1.678  -2.675   0.090  0.00  0.00    +0.192 C 
ATOM      8  C   UNL     1       0.760  -2.170   1.207  0.00  0.00    +0.235 C 
ATOM      9  O   UNL     1       0.418  -0.804   0.959  0.00  0.00    -0.351 OA
BRANCH   7  10
ATOM     10  O   UNL     1       2.892  -1.920   0.090  0.00  0.00    -0.385 OA
ATOM     11  H   UNL     1       3.393  -1.981   0.915  0.00  0.00    +0.210 HD
ENDBRANCH   7  10
BRANCH   6  12
ATOM     12  O   UNL     1       1.846  -2.908  -2.313  0.00  0.00    -0.386 OA
ATOM     13  H   UNL     1       2.129  -3.831  -2.260  0.00  0.00    +0.210 HD
ENDBRANCH   6  12
BRANCH   5  14
ATOM     14  O   UNL     1      -0.136  -0.876  -2.662  0.00  0.00    -0.387 OA
ATOM     15  H   UNL     1      -0.414   0.033  -2.839  0.00  0.00    +0.210 HD
ENDBRANCH   5  14
ENDBRANCH   1   8
BRANCH   1  16
ATOM     16  C   UNL     1       0.732  -2.551   3.652  0.00  0.00    +0.029 A 
ATOM     17  C   UNL     1      -0.660  -2.581   3.613  0.00  0.00    +0.025 A 
ATOM     18  C   UNL     1      -1.376  -2.854   4.755  0.00  0.00    +0.031 A 
ATOM     19  C   UNL     1      -0.705  -3.102   5.958  0.00  0.00    +0.086 A 
ATOM     20  C   UNL     1       0.694  -3.071   5.993  0.00  0.00    +0.031 A 
ATOM     21  C   UNL     1       1.403  -2.803   4.845  0.00  0.00    +0.025 A 
BRANCH  19  22
ATOM     22  N   UNL     1      -1.412  -3.373   7.093  0.00  0.00    -0.149 NA
ATOM     23  N   UNL     1      -0.791  -3.601   8.200  0.00  0.00    -0.149 NA
BRANCH  23  24
ATOM     24  C   UNL     1      -1.499  -3.872   9.338  0.00  0.00    +0.086 A 
ATOM     25  C   UNL     1      -2.896  -3.909   9.303  0.00  0.00    +0.029 A 
ATOM     26  C   UNL     1      -3.604  -4.183  10.454  0.00  0.00    +0.002 A 
ATOM     27  C   UNL     1      -2.935  -4.422  11.642  0.00  0.00    +0.000 A 
ATOM     28  C   UNL     1      -1.552  -4.387  11.684  0.00  0.00    +0.002 A 
ATOM     29  C   UNL     1      -0.830  -4.120  10.539  0.00  0.00    +0.029 A 
ENDBRANCH  23  24
ENDBRANCH  19  22
ENDBRANCH   1  16
TORSDOF 7
