REMARK  Name = ZINC27550409
REMARK  8 active torsions:
REMARK  status: ('A' for Active; 'I' for Inactive)
REMARK    1  A    between atoms: C_1  and  C_2
REMARK    2  A    between atoms: C_2  and  S_3
REMARK    3  A    between atoms: S_3  and  C_4
REMARK    4  A    between atoms: C_5  and  C_9
REMARK    5  A    between atoms: C_11  and  C_32
REMARK    6  A    between atoms: C_12  and  N_31
REMARK    7  A    between atoms: N_13  and  C_21
REMARK    8  A    between atoms: C_26  and  N_27
REMARK                            x       y       z     vdW  Elec       q    Type
REMARK                         _______ _______ _______ _____ _____    ______ ____
ROOT
ATOM      1  C   UNL     1       1.914   4.293  -0.090  0.00  0.00    +0.099 C 
ATOM      2  C   UNL     1       2.605   4.114   1.230  0.00  0.00    +0.077 C 
ATOM      3  C   UNL     1       3.796   3.470   1.319  0.00  0.00    +0.107 C 
ATOM      4  N   UNL     1       4.397   2.973   0.184  0.00  0.00    -0.258 N 
ATOM      5  C   UNL     1       4.043   3.441  -1.054  0.00  0.00    +0.025 C 
ATOM      6  C   UNL     1       2.872   4.086  -1.236  0.00  0.00    +0.025 C 
ATOM      7  C   UNL     1       2.509   4.585  -2.499  0.00  0.00    +0.162 C 
ATOM      8  O   UNL     1       1.442   5.152  -2.632  0.00  0.00    -0.292 OA
ATOM      9  C   UNL     1       3.416   4.431  -3.689  0.00  0.00    +0.080 C 
ATOM     10  C   UNL     1       4.868   4.370  -3.205  0.00  0.00    +0.014 C 
ATOM     11  C   UNL     1       4.997   3.220  -2.203  0.00  0.00    +0.052 C 
ENDROOT
BRANCH   4  12
ATOM     12  C   UNL     1       5.378   1.980   0.297  0.00  0.00    +0.070 A 
ATOM     13  C   UNL     1       5.018   0.639   0.257  0.00  0.00    +0.027 A 
ATOM     14  C   UNL     1       5.988  -0.338   0.364  0.00  0.00    +0.022 A 
ATOM     15  C   UNL     1       7.316   0.017   0.521  0.00  0.00    +0.043 A 
ATOM     16  C   UNL     1       7.677   1.353   0.567  0.00  0.00    +0.054 A 
ATOM     17  C   UNL     1       6.711   2.334   0.455  0.00  0.00    +0.149 A 
ATOM     18 CL   UNL     1       8.532  -1.214   0.661  0.00  0.00    -0.083 Cl
BRANCH  17  19
ATOM     19  N   UNL     1       7.098   3.762   0.504  0.00  0.00    +0.058 N 
ATOM     20  O   UNL     1       8.274   4.074   0.543  0.00  0.00    -0.126 OA
ATOM     21  O   UNL     1       6.239   4.626   0.504  0.00  0.00    -0.126 OA
ENDBRANCH  17  19
ENDBRANCH   4  12
BRANCH   1  23
ATOM     22  C   UNL     1      -0.507   3.713  -0.231  0.00  0.00    +0.049 A 
ATOM     23  C   UNL     1       0.790   3.296  -0.199  0.00  0.00    -0.014 A 
ATOM     24  C   UNL     1       1.055   1.940  -0.268  0.00  0.00    +0.013 A 
ATOM     25  C   UNL     1       0.021   1.071  -0.364  0.00  0.00    +0.046 A 
ATOM     26  S   UNL     1      -1.388   2.166  -0.369  0.00  0.00    -0.090 S 
BRANCH  22  27
ATOM     27  S   UNL     1      -1.148   5.353  -0.162  0.00  0.00    -0.118 S 
BRANCH  27  29
ATOM     28  C   UNL     1      -3.635   6.491  -0.204  0.00  0.00    +0.015 C 
ATOM     29  C   UNL     1      -2.946   5.126  -0.255  0.00  0.00    +0.071 C 
ENDBRANCH  27  29
ENDBRANCH  22  27
ENDBRANCH   1  23
BRANCH   3  30
ATOM     30  N   UNL     1       4.402   3.313   2.542  0.00  0.00    -0.345 N 
ATOM     31  H   UNL     1       5.368   2.791   2.614  0.00  0.00    +0.144 HD
ATOM     32  H   UNL     1       3.923   3.710   3.448  0.00  0.00    +0.144 HD
ENDBRANCH   3  30
BRANCH   2  33
ATOM     33  C   UNL     1       1.996   4.632   2.418  0.00  0.00    +0.099 C 
ATOM     34  N   UNL     1       1.514   5.043   3.361  0.00  0.00    -0.191 NA
ENDBRANCH   2  33
TORSDOF 7
