REMARK  Name = ZINC12751608
REMARK  10 active torsions:
REMARK  status: ('A' for Active; 'I' for Inactive)
REMARK    1  A    between atoms: C_1  and  C_2
REMARK    2  A    between atoms: C_2  and  N_3
REMARK    3  A    between atoms: N_3  and  C_4
REMARK    4  A    between atoms: C_4  and  C_5
REMARK    5  A    between atoms: C_10  and  C_11
REMARK    6  A    between atoms: C_10  and  N_60
REMARK    7  A    between atoms: C_11  and  C_12
REMARK    8  A    between atoms: C_17  and  C_18
REMARK    9  A    between atoms: C_19  and  C_21
REMARK   10  A    between atoms: C_22  and  C_23
REMARK                            x       y       z     vdW  Elec       q    Type
REMARK                         _______ _______ _______ _____ _____    ______ ____
ROOT
ATOM      1  C   UNL     1      -6.316  -1.836   1.492  0.00  0.00    +0.003 C 
ATOM      2  C   UNL     1      -5.205  -2.650   2.161  0.00  0.00    -0.014 C 
ATOM      3  C   UNL     1      -5.631  -3.013   3.585  0.00  0.00    -0.078 C 
ATOM      4  C   UNL     1      -7.969  -3.014   2.946  0.00  0.00    -0.078 C 
ATOM      5  C   UNL     1      -7.612  -2.651   1.503  0.00  0.00    -0.014 C 
ATOM      6  N   UNL     1      -6.870  -3.817   3.524  0.00  0.00    +0.380 N 
ATOM      7  H   UNL     1      -6.707  -4.636   2.927  0.00  0.00    -0.082 HD
ENDROOT
BRANCH   1   8
ATOM      8  C   UNL     1      -5.921  -1.521   0.048  0.00  0.00    +0.111 C 
BRANCH   8   9
ATOM      9  N   UNL     1      -4.750  -0.642   0.042  0.00  0.00    -0.298 N 
ATOM     10  C   UNL     1      -3.510  -1.171   0.028  0.00  0.00    +0.240 C 
ATOM     11  O   UNL     1      -3.364  -2.380   0.019  0.00  0.00    -0.271 OA
BRANCH   9  13
ATOM     12  C   UNL     1      -4.999   1.327  -1.387  0.00  0.00    +0.024 C 
ATOM     13  C   UNL     1      -4.925   0.812   0.052  0.00  0.00    +0.104 C 
ENDBRANCH   9  13
BRANCH  10  14
ATOM     14  C   UNL     1      -2.378  -0.322   0.022  0.00  0.00    +0.071 C 
ATOM     15  C   UNL     1      -1.131  -0.854   0.008  0.00  0.00    +0.051 C 
BRANCH  15  16
ATOM     16  C   UNL     1       0.002  -0.004   0.002  0.00  0.00    +0.128 A 
ATOM     17  C   UNL     1       1.321  -0.408  -0.013  0.00  0.00    +0.049 A 
ATOM     18  C   UNL     1       2.096   0.762  -0.014  0.00  0.00    +0.042 A 
ATOM     19  C   UNL     1       1.241   1.808  -0.000  0.00  0.00    +0.195 A 
ATOM     20  O   UNL     1      -0.016   1.345   0.009  0.00  0.00    -0.464 OA
ENDBRANCH  15  16
ENDBRANCH  10  14
ENDBRANCH   8   9
ENDBRANCH   1   8
BRANCH   6  21
ATOM     21  C   UNL     1      -7.240  -4.277   4.879  0.00  0.00    -0.074 C 
BRANCH  21  22
ATOM     22  C   UNL     1      -6.005  -4.862   5.564  0.00  0.00    +0.017 C 
BRANCH  22  23
ATOM     23  C   UNL     1      -6.379  -5.359   6.937  0.00  0.00    -0.046 A 
ATOM     24  C   UNL     1      -6.193  -4.548   8.040  0.00  0.00    +0.004 A 
ATOM     25  C   UNL     1      -6.542  -5.001   9.299  0.00  0.00    +0.000 A 
ATOM     26  C   UNL     1      -7.066  -6.271   9.455  0.00  0.00    +0.000 A 
ATOM     27  C   UNL     1      -7.248  -7.084   8.352  0.00  0.00    +0.003 A 
ATOM     28  C   UNL     1      -6.904  -6.628   7.093  0.00  0.00    -0.047 A 
ATOM     29  C   UNL     1      -7.101  -7.515   5.891  0.00  0.00    +0.044 C 
ENDBRANCH  22  23
ENDBRANCH  21  22
ENDBRANCH   6  21
TORSDOF 8
