REMARK  Name = ZINC39635161
REMARK  9 active torsions:
REMARK  status: ('A' for Active; 'I' for Inactive)
REMARK    1  A    between atoms: C_1  and  C_2
REMARK    2  A    between atoms: C_7  and  C_8
REMARK    3  A    between atoms: C_8  and  C_9
REMARK    4  A    between atoms: C_13  and  C_22
REMARK    5  A    between atoms: N_24  and  C_25
REMARK    6  A    between atoms: C_25  and  C_26
REMARK    7  A    between atoms: C_26  and  C_27
REMARK    8  A    between atoms: C_30  and  O_33
REMARK    9  A    between atoms: O_33  and  C_34
REMARK                            x       y       z     vdW  Elec       q    Type
REMARK                         _______ _______ _______ _____ _____    ______ ____
ROOT
ATOM      1  C   UNL     1      -1.554   0.371   2.921  0.00  0.00    +0.220 C 
ATOM      2  O   UNL     1      -2.489   0.099   2.199  0.00  0.00    -0.275 OA
ATOM      3  N   UNL     1      -1.758   1.074   4.053  0.00  0.00    -0.300 N 
ATOM      4  C   UNL     1      -0.750   1.504   5.050  0.00  0.00    +0.121 C 
ATOM      5  C   UNL     1      -1.190   2.928   5.460  0.00  0.00    +0.100 C 
ATOM      6  C   UNL     1      -2.696   2.978   5.152  0.00  0.00    -0.004 C 
ATOM      7  C   UNL     1      -3.043   1.596   4.578  0.00  0.00    +0.115 C 
ATOM      8  C   UNL     1      -2.988   4.061   4.118  0.00  0.00    -0.010 C 
ATOM      9  C   UNL     1      -4.497   4.129   3.870  0.00  0.00    -0.082 C 
ATOM     10  N   UNL     1      -5.188   4.429   5.131  0.00  0.00    +0.379 N 
ATOM     11  C   UNL     1      -4.978   3.337   6.089  0.00  0.00    -0.082 C 
ATOM     12  C   UNL     1      -3.489   3.235   6.430  0.00  0.00    -0.010 C 
ATOM     13  H   UNL     1      -4.825   5.287   5.516  0.00  0.00    -0.086 HD
ATOM     14  H   UNL     1      -6.176   4.534   4.954  0.00  0.00    -0.086 HD
ENDROOT
BRANCH   5  15
ATOM     15  C   UNL     1      -0.945   3.149   6.931  0.00  0.00    +0.218 C 
ATOM     16  O   UNL     1      -1.008   2.216   7.703  0.00  0.00    -0.275 OA
ATOM     17  N   UNL     1      -0.656   4.384   7.387  0.00  0.00    -0.315 N 
ATOM     18  H   UNL     1      -0.605   5.130   6.770  0.00  0.00    +0.149 HD
BRANCH  17  19
ATOM     19  C   UNL     1      -0.418   4.599   8.817  0.00  0.00    +0.109 C 
BRANCH  19  20
ATOM     20  C   UNL     1      -0.113   6.078   9.066  0.00  0.00    +0.054 C 
BRANCH  20  21
ATOM     21  C   UNL     1       0.132   6.299  10.537  0.00  0.00    -0.046 A 
ATOM     22  C   UNL     1      -0.925   6.609  11.373  0.00  0.00    +0.007 A 
ATOM     23  C   UNL     1      -0.703   6.812  12.721  0.00  0.00    +0.046 A 
ATOM     24  C   UNL     1       0.581   6.706  13.236  0.00  0.00    +0.120 A 
ATOM     25  C   UNL     1       1.639   6.395  12.394  0.00  0.00    +0.046 A 
ATOM     26  C   UNL     1       1.411   6.187  11.048  0.00  0.00    +0.007 A 
BRANCH  24  27
ATOM     27  O   UNL     1       0.802   6.907  14.562  0.00  0.00    -0.495 OA
ATOM     28  C   UNL     1       2.149   6.781  15.021  0.00  0.00    +0.277 C 
ENDBRANCH  24  27
ENDBRANCH  20  21
ENDBRANCH  19  20
ENDBRANCH  17  19
ENDBRANCH   5  15
BRANCH   1  29
ATOM     29  C   UNL     1      -0.162  -0.075   2.554  0.00  0.00    +0.131 C 
BRANCH  29  36
ATOM     30  C   UNL     1      -0.070   1.349   0.042  0.00  0.00    +0.044 C 
ATOM     31  C   UNL     1      -0.162  -0.155   0.052  0.00  0.00    -0.047 A 
ATOM     32  C   UNL     1      -0.197  -0.853  -1.141  0.00  0.00    +0.003 A 
ATOM     33  C   UNL     1      -0.281  -2.233  -1.131  0.00  0.00    +0.000 A 
ATOM     34  C   UNL     1      -0.331  -2.914   0.070  0.00  0.00    +0.000 A 
ATOM     35  C   UNL     1      -0.295  -2.216   1.263  0.00  0.00    +0.004 A 
ATOM     36  C   UNL     1      -0.206  -0.837   1.254  0.00  0.00    -0.036 A 
ENDBRANCH  29  36
ENDBRANCH   1  29
TORSDOF 7
