REMARK  Name = ZINC06133933
REMARK  13 active torsions:
REMARK  status: ('A' for Active; 'I' for Inactive)
REMARK    1  A    between atoms: C_1  and  C_2
REMARK    2  A    between atoms: C_2  and  O_3
REMARK    3  A    between atoms: O_3  and  C_4
REMARK    4  A    between atoms: C_11  and  C_16
REMARK    5  A    between atoms: C_16  and  C_18
REMARK    6  A    between atoms: C_16  and  N_71
REMARK    7  A    between atoms: N_22  and  C_23
REMARK    8  A    between atoms: C_23  and  C_24
REMARK    9  A    between atoms: C_24  and  O_25
REMARK   10  A    between atoms: O_25  and  C_26
REMARK   11  A    between atoms: N_29  and  C_32
REMARK   12  A    between atoms: C_37  and  O_38
REMARK   13  A    between atoms: O_38  and  C_39
REMARK                            x       y       z     vdW  Elec       q    Type
REMARK                         _______ _______ _______ _____ _____    ______ ____
ROOT
ATOM      1  C   UNL     1       3.520   0.615  -0.043  0.00  0.00    +0.039 C 
ENDROOT
BRANCH   1   9
ATOM      2  C   UNL     1       3.185  -1.068  -5.999  0.00  0.00    +0.121 A 
ATOM      3  C   UNL     1       4.559  -1.153  -6.209  0.00  0.00    +0.047 A 
ATOM      4  C   UNL     1       5.443  -0.880  -5.188  0.00  0.00    +0.030 A 
ATOM      5  C   UNL     1       4.964  -0.514  -3.934  0.00  0.00    +0.049 A 
ATOM      6  C   UNL     1       3.576  -0.428  -3.718  0.00  0.00    +0.002 A 
ATOM      7  C   UNL     1       2.689  -0.708  -4.763  0.00  0.00    +0.055 A 
ATOM      8  C   UNL     1       3.086  -0.048  -2.392  0.00  0.00    +0.017 A 
ATOM      9  C   UNL     1       3.992   0.217  -1.418  0.00  0.00    +0.011 A 
ATOM     10  C   UNL     1       5.374   0.116  -1.685  0.00  0.00    +0.251 A 
ATOM     11  O   UNL     1       6.170   0.355  -0.794  0.00  0.00    -0.268 OA
ATOM     12  N   UNL     1       5.833  -0.236  -2.898  0.00  0.00    -0.322 N 
ATOM     13  H   UNL     1       6.819  -0.298  -3.053  0.00  0.00    +0.169 HD
BRANCH   2  14
ATOM     14  O   UNL     1       2.327  -1.342  -7.018  0.00  0.00    -0.492 OA
BRANCH  14  16
ATOM     15  C   UNL     1       1.794  -1.977  -9.288  0.00  0.00    +0.048 C 
ATOM     16  C   UNL     1       2.906  -1.708  -8.273  0.00  0.00    +0.225 C 
ENDBRANCH  14  16
ENDBRANCH   2  14
ENDBRANCH   1   9
BRANCH   1  22
ATOM     17  C   UNL     1       3.590  -1.720   0.594  0.00  0.00    -0.058 C 
ATOM     18  C   UNL     1       4.186  -2.708   1.599  0.00  0.00    +0.086 C 
ATOM     19  N   UNL     1       3.742  -2.353   2.954  0.00  0.00    -0.331 N 
ATOM     20  C   UNL     1       4.163  -0.990   3.303  0.00  0.00    +0.086 C 
ATOM     21  C   UNL     1       3.567  -0.001   2.299  0.00  0.00    -0.058 C 
ATOM     22  N   UNL     1       4.039  -0.356   0.944  0.00  0.00    +0.391 N 
ATOM     23  H   UNL     1       5.066  -0.329   0.930  0.00  0.00    -0.080 HD
BRANCH  19  24
ATOM     24  C   UNL     1       4.209  -3.279   3.894  0.00  0.00    +0.072 A 
ATOM     25  C   UNL     1       5.150  -4.230   3.525  0.00  0.00    +0.027 A 
ATOM     26  C   UNL     1       5.614  -5.140   4.457  0.00  0.00    +0.002 A 
ATOM     27  C   UNL     1       5.135  -5.112   5.753  0.00  0.00    +0.004 A 
ATOM     28  C   UNL     1       4.194  -4.170   6.127  0.00  0.00    +0.047 A 
ATOM     29  C   UNL     1       3.728  -3.252   5.201  0.00  0.00    +0.141 A 
BRANCH  29  30
ATOM     30  O   UNL     1       2.801  -2.325   5.567  0.00  0.00    -0.493 OA
ATOM     31  C   UNL     1       2.353  -2.357   6.923  0.00  0.00    +0.277 C 
ENDBRANCH  29  30
ENDBRANCH  19  24
ENDBRANCH   1  22
BRANCH   1  32
ATOM     32  C   UNL     1       2.014   0.641  -0.016  0.00  0.00    +0.143 A 
ATOM     33  N   UNL     1       1.214  -0.397   0.015  0.00  0.00    -0.115 NA
ATOM     34  N   UNL     1       0.001   0.036   0.029  0.00  0.00    -0.023 NA
ATOM     35  N   UNL     1       0.006   1.323   0.009  0.00  0.00    -0.044 NA
ATOM     36  N   UNL     1       1.228   1.734  -0.019  0.00  0.00    -0.228 N 
BRANCH  36  37
ATOM     37  C   UNL     1       1.677   3.128  -0.050  0.00  0.00    +0.175 C 
BRANCH  37  38
ATOM     38  C   UNL     1       1.860   3.637   1.381  0.00  0.00    +0.183 C 
BRANCH  38  39
ATOM     39  O   UNL     1       2.298   4.997   1.352  0.00  0.00    -0.381 OA
ATOM     40  C   UNL     1       2.500   5.571   2.645  0.00  0.00    +0.194 C 
ENDBRANCH  38  39
ENDBRANCH  37  38
ENDBRANCH  36  37
ENDBRANCH   1  32
TORSDOF 10
