REMARK  Name = ZINC45638086
REMARK  6 active torsions:
REMARK  status: ('A' for Active; 'I' for Inactive)
REMARK    1  A    between atoms: C_1  and  C_2
REMARK    2  A    between atoms: C_11  and  N_33
REMARK    3  A    between atoms: C_13  and  S_15
REMARK    4  A    between atoms: S_15  and  C_16
REMARK    5  A    between atoms: C_16  and  C_17
REMARK    6  A    between atoms: C_21  and  C_30
REMARK                            x       y       z     vdW  Elec       q    Type
REMARK                         _______ _______ _______ _____ _____    ______ ____
ROOT
ATOM      1  S   UNL     1      -0.192  -8.673   2.421  0.00  0.00    -0.077 S 
ENDROOT
BRANCH   1  13
ATOM      2  C   UNL     1      -0.290   1.104  -0.475  0.00  0.00    +0.008 C 
ATOM      3  C   UNL     1      -0.213  -0.422  -0.389  0.00  0.00    -0.009 C 
ATOM      4  C   UNL     1      -1.628  -1.006  -0.346  0.00  0.00    +0.008 C 
ATOM      5  C   UNL     1      -1.567  -2.524  -0.510  0.00  0.00    +0.037 C 
ATOM      6  C   UNL     1      -0.593  -3.094   0.518  0.00  0.00    -0.025 A 
ATOM      7  C   UNL     1       0.321  -2.296   1.115  0.00  0.00    -0.004 A 
ATOM      8  S   UNL     1       1.223  -3.359   2.214  0.00  0.00    -0.073 S 
ATOM      9  C   UNL     1       0.377  -4.869   1.875  0.00  0.00    +0.115 A 
ATOM     10  C   UNL     1      -0.590  -4.495   0.908  0.00  0.00    +0.051 A 
ATOM     11  C   UNL     1      -1.450  -5.523   0.425  0.00  0.00    +0.129 A 
ATOM     12  N   UNL     1      -1.254  -6.736   0.936  0.00  0.00    -0.207 NA
ATOM     13  C   UNL     1      -0.328  -7.015   1.841  0.00  0.00    +0.191 A 
ATOM     14  N   UNL     1       0.508  -6.098   2.333  0.00  0.00    -0.214 NA
ATOM     15  C   UNL     1       0.529  -0.829   0.891  0.00  0.00    +0.046 C 
BRANCH  11  16
ATOM     16  N   UNL     1      -2.430  -5.275  -0.519  0.00  0.00    -0.343 N 
ATOM     17  H   UNL     1      -2.341  -4.522  -1.125  0.00  0.00    +0.144 HD
ATOM     18  H   UNL     1      -3.207  -5.853  -0.575  0.00  0.00    +0.144 HD
ENDBRANCH  11  16
ENDBRANCH   1  13
BRANCH   1  19
ATOM     19  C   UNL     1      -1.486  -9.563   1.512  0.00  0.00    +0.173 C 
BRANCH  19  20
ATOM     20  C   UNL     1      -1.479 -11.014   1.920  0.00  0.00    +0.230 C 
ATOM     21  O   UNL     1      -0.743 -11.391   2.807  0.00  0.00    -0.274 OA
ATOM     22  N   UNL     1      -2.291 -11.892   1.299  0.00  0.00    -0.264 N 
ATOM     23  C   UNL     1      -3.127 -11.482   0.157  0.00  0.00    +0.168 C 
ATOM     24  C   UNL     1      -4.507 -12.130   0.337  0.00  0.00    +0.276 C 
ATOM     25  O   UNL     1      -4.345 -13.549   0.405  0.00  0.00    -0.476 OA
ATOM     26  C   UNL     1      -3.409 -14.038   1.260  0.00  0.00    +0.143 A 
ATOM     27  C   UNL     1      -2.366 -13.232   1.715  0.00  0.00    +0.078 A 
ATOM     28  C   UNL     1      -1.412 -13.747   2.577  0.00  0.00    +0.027 A 
ATOM     29  C   UNL     1      -1.491 -15.066   2.986  0.00  0.00    +0.002 A 
ATOM     30  C   UNL     1      -2.522 -15.869   2.534  0.00  0.00    +0.004 A 
ATOM     31  C   UNL     1      -3.485 -15.357   1.679  0.00  0.00    +0.047 A 
BRANCH  24  32
ATOM     32  C   UNL     1      -5.387 -11.775  -0.834  0.00  0.00    +0.253 C 
ATOM     33  O   UNL     1      -5.770 -12.643  -1.590  0.00  0.00    -0.272 OA
ATOM     34  N   UNL     1      -5.750 -10.494  -1.041  0.00  0.00    -0.326 N 
ATOM     35  H   UNL     1      -5.444  -9.800  -0.436  0.00  0.00    +0.145 HD
ATOM     36  H   UNL     1      -6.316 -10.266  -1.795  0.00  0.00    +0.145 HD
ENDBRANCH  24  32
ENDBRANCH  19  20
ENDBRANCH   1  19
TORSDOF 5
