REMARK  Name = ZINC20120569
REMARK  9 active torsions:
REMARK  status: ('A' for Active; 'I' for Inactive)
REMARK    1  A    between atoms: C_1  and  C_2
REMARK    2  A    between atoms: C_2  and  C_3
REMARK    3  A    between atoms: C_6  and  C_21
REMARK    4  A    between atoms: C_7  and  S_9
REMARK    5  A    between atoms: S_9  and  C_10
REMARK    6  A    between atoms: C_10  and  C_11
REMARK    7  A    between atoms: C_11  and  C_13
REMARK    8  A    between atoms: C_16  and  O_20
REMARK    9  A    between atoms: C_17  and  O_19
REMARK                            x       y       z     vdW  Elec       q    Type
REMARK                         _______ _______ _______ _____ _____    ______ ____
ROOT
ATOM      1  C   UNL     1      -1.145   5.136   0.077  0.00  0.00    +0.046 A 
ATOM      2  C   UNL     1      -0.905   3.767   0.068  0.00  0.00    -0.022 A 
ATOM      3  C   UNL     1      -0.996   3.077  -1.119  0.00  0.00    -0.023 A 
ATOM      4  C   UNL     1      -1.324   3.789  -2.284  0.00  0.00    +0.087 A 
ATOM      5  C   UNL     1      -1.549   5.173  -2.194  0.00  0.00    +0.115 A 
ATOM      6  N   UNL     1      -1.452   5.788  -1.025  0.00  0.00    -0.244 NA
ATOM      7  C   UNL     1      -0.760   1.596  -1.223  0.00  0.00    +0.037 C 
ATOM      8  C   UNL     1      -0.013   1.086   0.008  0.00  0.00    +0.005 C 
ATOM      9  C   UNL     1      -0.739   1.585   1.263  0.00  0.00    +0.005 C 
ATOM     10  C   UNL     1      -0.547   3.096   1.367  0.00  0.00    +0.037 C 
ENDROOT
BRANCH   1  12
ATOM     11  C   UNL     1      -2.419   5.899   2.062  0.00  0.00    +0.010 C 
ATOM     12  C   UNL     1      -1.051   5.891   1.377  0.00  0.00    +0.052 C 
ENDBRANCH   1  12
BRANCH   4  13
ATOM     13  C   UNL     1      -1.428   3.116  -3.543  0.00  0.00    +0.102 C 
ATOM     14  N   UNL     1      -1.510   2.581  -4.542  0.00  0.00    -0.191 NA
ENDBRANCH   4  13
BRANCH   5  15
ATOM     15  S   UNL     1      -1.961   6.093  -3.639  0.00  0.00    -0.097 S 
BRANCH  15  16
ATOM     16  C   UNL     1      -2.125   7.747  -2.924  0.00  0.00    +0.155 C 
BRANCH  16  17
ATOM     17  C   UNL     1      -2.485   8.730  -4.008  0.00  0.00    +0.173 C 
ATOM     18  O   UNL     1      -2.618   8.349  -5.152  0.00  0.00    -0.291 OA
BRANCH  17  19
ATOM     19  C   UNL     1      -2.675  10.149  -3.679  0.00  0.00    +0.022 A 
ATOM     20  C   UNL     1      -2.528  10.589  -2.358  0.00  0.00    +0.015 A 
ATOM     21  C   UNL     1      -2.700  11.921  -2.054  0.00  0.00    +0.050 A 
ATOM     22  C   UNL     1      -3.032  12.828  -3.053  0.00  0.00    +0.158 A 
ATOM     23  C   UNL     1      -3.187  12.396  -4.370  0.00  0.00    +0.159 A 
ATOM     24  C   UNL     1      -3.009  11.064  -4.685  0.00  0.00    +0.060 A 
BRANCH  23  25
ATOM     25  O   UNL     1      -3.511  13.287  -5.344  0.00  0.00    -0.503 OA
ATOM     26  H   UNL     1      -3.633  12.947  -6.383  0.00  0.00    +0.292 HD
ENDBRANCH  23  25
BRANCH  22  27
ATOM     27  O   UNL     1      -3.206  14.139  -2.745  0.00  0.00    -0.503 OA
ATOM     28  H   UNL     1      -3.470  14.858  -3.535  0.00  0.00    +0.292 HD
ENDBRANCH  22  27
ENDBRANCH  17  19
ENDBRANCH  16  17
ENDBRANCH  15  16
ENDBRANCH   5  15
TORSDOF 8
