REMARK  Name = ZINC36555480
REMARK  14 active torsions:
REMARK  status: ('A' for Active; 'I' for Inactive)
REMARK    1  A    between atoms: C_1  and  C_2
REMARK    2  A    between atoms: C_5  and  C_7
REMARK    3  A    between atoms: C_7  and  N_8
REMARK    4  A    between atoms: N_8  and  C_9
REMARK    5  A    between atoms: C_9  and  C_11
REMARK    6  A    between atoms: C_9  and  C_17
REMARK    7  A    between atoms: N_19  and  C_20
REMARK    8  A    between atoms: C_20  and  C_21
REMARK    9  A    between atoms: C_20  and  C_22
REMARK   10  A    between atoms: C_20  and  C_23
REMARK   11  A    between atoms: C_24  and  C_26
REMARK   12  A    between atoms: C_32  and  O_34
REMARK   13  A    between atoms: O_34  and  C_35
REMARK   14  A    between atoms: C_35  and  C_36
REMARK                            x       y       z     vdW  Elec       q    Type
REMARK                         _______ _______ _______ _____ _____    ______ ____
ROOT
ATOM      1  N   UNL     1       2.850  -4.305  -1.642  0.00  0.00    -0.277 N 
ATOM      2  C   UNL     1       2.032  -5.162  -2.284  0.00  0.00    +0.237 C 
ATOM      3  O   UNL     1       1.536  -4.847  -3.345  0.00  0.00    -0.274 OA
ENDROOT
BRANCH   2   4
ATOM      4  C   UNL     1       1.735  -6.513  -1.685  0.00  0.00    +0.165 C 
ATOM      5  C   UNL     1       2.899  -7.484  -1.977  0.00  0.00    +0.033 C 
ATOM      6  C   UNL     1       2.170  -8.825  -2.259  0.00  0.00    +0.021 C 
ATOM      7  C   UNL     1       0.891  -8.337  -2.983  0.00  0.00    +0.112 C 
ATOM      8  N   UNL     1       0.526  -7.078  -2.301  0.00  0.00    -0.256 N 
ATOM      9  C   UNL     1      -0.708  -6.537  -2.251  0.00  0.00    +0.404 C 
ATOM     10  O   UNL     1      -0.889  -5.493  -1.657  0.00  0.00    -0.226 OA
BRANCH   9  11
ATOM     11  O   UNL     1      -1.738  -7.154  -2.858  0.00  0.00    -0.445 OA
BRANCH  11  12
ATOM     12  C   UNL     1      -3.018  -6.525  -2.764  0.00  0.00    +0.269 C 
BRANCH  12  13
ATOM     13  C   UNL     1      -4.041  -7.354  -3.498  0.00  0.00    -0.010 A 
ATOM     14  C   UNL     1      -4.279  -7.127  -4.840  0.00  0.00    +0.007 A 
ATOM     15  C   UNL     1      -5.217  -7.887  -5.513  0.00  0.00    +0.000 A 
ATOM     16  C   UNL     1      -5.917  -8.874  -4.844  0.00  0.00    +0.000 A 
ATOM     17  C   UNL     1      -5.677  -9.101  -3.502  0.00  0.00    +0.000 A 
ATOM     18  C   UNL     1      -4.736  -8.344  -2.829  0.00  0.00    +0.007 A 
ENDBRANCH  12  13
ENDBRANCH  11  12
ENDBRANCH   9  11
ENDBRANCH   2   4
BRANCH   1  19
ATOM     19  C   UNL     1       3.450  -4.686  -0.360  0.00  0.00    +0.183 C 
BRANCH  19  24
ATOM     20  C   UNL     1       0.614  -2.548   3.221  0.00  0.00    +0.086 C 
ATOM     21  C   UNL     1       1.202  -3.584   2.298  0.00  0.00    +0.102 A 
ATOM     22  C   UNL     1       0.861  -4.884   2.255  0.00  0.00    +0.045 A 
ATOM     23  C   UNL     1       1.656  -5.483   1.251  0.00  0.00    +0.046 A 
ATOM     24  C   UNL     1       2.435  -4.513   0.740  0.00  0.00    +0.122 A 
ATOM     25  O   UNL     1       2.152  -3.364   1.374  0.00  0.00    -0.463 OA
ENDBRANCH  19  24
ENDBRANCH   1  19
BRANCH   1  26
ATOM     26  C   UNL     1       3.139  -2.992  -2.224  0.00  0.00    +0.193 C 
BRANCH  26  27
ATOM     27  C   UNL     1       1.851  -2.341  -2.658  0.00  0.00    -0.018 A 
ATOM     28  C   UNL     1       0.772  -2.300  -1.795  0.00  0.00    +0.006 A 
ATOM     29  C   UNL     1      -0.409  -1.703  -2.192  0.00  0.00    +0.000 A 
ATOM     30  C   UNL     1      -0.512  -1.145  -3.453  0.00  0.00    +0.000 A 
ATOM     31  C   UNL     1       0.568  -1.185  -4.316  0.00  0.00    +0.000 A 
ATOM     32  C   UNL     1       1.750  -1.778  -3.917  0.00  0.00    +0.006 A 
ENDBRANCH  26  27
BRANCH  26  33
ATOM     33  C   UNL     1       3.819  -2.125  -1.196  0.00  0.00    +0.238 C 
ATOM     34  O   UNL     1       3.414  -2.108  -0.053  0.00  0.00    -0.273 OA
ATOM     35  N   UNL     1       4.878  -1.369  -1.547  0.00  0.00    -0.309 N 
ATOM     36  H   UNL     1       5.202  -1.383  -2.461  0.00  0.00    +0.149 HD
BRANCH  35  37
ATOM     37  C   UNL     1       5.540  -0.526  -0.548  0.00  0.00    +0.026 C 
ATOM     38  C   UNL     1       6.071  -1.403   0.587  0.00  0.00    +0.031 C 
ATOM     39  C   UNL     1       6.703   0.223  -1.202  0.00  0.00    +0.031 C 
ATOM     40  C   UNL     1       4.535   0.482   0.014  0.00  0.00    +0.031 C 
ENDBRANCH  35  37
ENDBRANCH  26  33
ENDBRANCH   1  26
TORSDOF 10
