REMARK  Name = ZINC40321706
REMARK  7 active torsions:
REMARK  status: ('A' for Active; 'I' for Inactive)
REMARK    1  A    between atoms: C_4  and  S_7
REMARK    2  A    between atoms: S_7  and  C_10
REMARK    3  A    between atoms: C_13  and  C_15
REMARK    4  A    between atoms: N_17  and  C_18
REMARK    5  A    between atoms: C_18  and  C_19
REMARK    6  A    between atoms: C_19  and  C_21
REMARK    7  A    between atoms: C_19  and  N_28
REMARK                            x       y       z     vdW  Elec       q    Type
REMARK                         _______ _______ _______ _____ _____    ______ ____
ROOT
ATOM      1  C   UNL     1       5.777   1.030   7.453  0.00  0.00    +0.279 C 
ATOM      2  O   UNL     1       5.988  -0.132   7.160  0.00  0.00    -0.267 OA
ATOM      3  N   UNL     1       6.428   2.017   6.806  0.00  0.00    -0.310 N 
ATOM      4  H   UNL     1       6.260   2.943   7.040  0.00  0.00    +0.149 HD
ENDROOT
BRANCH   1   8
ATOM      5  C   UNL     1       3.577   2.511   9.907  0.00  0.00    +0.246 A 
ATOM      6  C   UNL     1       3.301   1.207  10.130  0.00  0.00    +0.070 A 
ATOM      7  C   UNL     1       4.088   0.460   9.240  0.00  0.00    +0.056 A 
ATOM      8  C   UNL     1       4.813   1.357   8.509  0.00  0.00    +0.192 A 
ATOM      9  O   UNL     1       4.484   2.598   8.926  0.00  0.00    -0.433 OA
BRANCH   5  10
ATOM     10  S   UNL     1       2.855   3.873  10.761  0.00  0.00    +0.058 S 
ATOM     11  O   UNL     1       1.611   3.417  11.274  0.00  0.00    -0.161 OA
ATOM     12  O   UNL     1       2.957   4.995   9.895  0.00  0.00    -0.161 OA
BRANCH  10  16
ATOM     13  C   UNL     1       5.483   4.756  14.339  0.00  0.00    +0.000 A 
ATOM     14  C   UNL     1       5.730   5.379  13.130  0.00  0.00    +0.002 A 
ATOM     15  C   UNL     1       4.927   5.109  12.037  0.00  0.00    +0.027 A 
ATOM     16  C   UNL     1       3.878   4.216  12.153  0.00  0.00    +0.097 A 
ATOM     17  C   UNL     1       3.632   3.593  13.363  0.00  0.00    +0.027 A 
ATOM     18  C   UNL     1       4.434   3.864  14.456  0.00  0.00    +0.002 A 
ENDBRANCH  10  16
ENDBRANCH   5  10
ENDBRANCH   1   8
BRANCH   3  19
ATOM     19  C   UNL     1       7.391   1.690   5.752  0.00  0.00    +0.094 C 
BRANCH  19  20
ATOM     20  C   UNL     1       7.887   2.981   5.096  0.00  0.00    -0.019 C 
BRANCH  20  21
ATOM     21  N   UNL     1       6.736   3.779   4.653  0.00  0.00    +0.385 N 
ATOM     22  C   UNL     1       5.904   2.953   3.757  0.00  0.00    -0.078 C 
ATOM     23  C   UNL     1       4.495   3.490   3.790  0.00  0.00    -0.019 C 
ATOM     24  C   UNL     1       4.232   4.456   2.619  0.00  0.00    -0.002 C 
ATOM     25  C   UNL     1       5.437   5.384   2.363  0.00  0.00    -0.002 C 
ATOM     26  C   UNL     1       6.055   5.890   3.641  0.00  0.00    -0.019 C 
ATOM     27  C   UNL     1       7.206   4.947   4.052  0.00  0.00    -0.078 C 
ATOM     28  H   UNL     1       6.186   4.029   5.462  0.00  0.00    -0.081 HD
ENDBRANCH  20  21
BRANCH  20  29
ATOM     29  C   UNL     1       8.693   3.773   6.093  0.00  0.00    -0.041 A 
ATOM     30  C   UNL     1       8.088   4.767   6.838  0.00  0.00    +0.003 A 
ATOM     31  C   UNL     1       8.828   5.493   7.752  0.00  0.00    +0.000 A 
ATOM     32  C   UNL     1      10.174   5.226   7.922  0.00  0.00    +0.001 A 
ATOM     33  C   UNL     1      10.780   4.232   7.177  0.00  0.00    +0.020 A 
ATOM     34  C   UNL     1      10.039   3.501   6.266  0.00  0.00    +0.043 A 
ATOM     35 CL   UNL     1      10.798   2.247   5.335  0.00  0.00    -0.083 Cl
ENDBRANCH  20  29
ENDBRANCH  19  20
ENDBRANCH   3  19
TORSDOF 7
