REMARK  Name = ZINC17747640
REMARK  5 active torsions:
REMARK  status: ('A' for Active; 'I' for Inactive)
REMARK    1  A    between atoms: C_1  and  N_2
REMARK    2  A    between atoms: C_3  and  C_9
REMARK    3  A    between atoms: C_6  and  S_7
REMARK    4  A    between atoms: S_7  and  C_8
REMARK    5  A    between atoms: C_18  and  O_19
REMARK                            x       y       z     vdW  Elec       q    Type
REMARK                         _______ _______ _______ _____ _____    ______ ____
ROOT
ATOM      1  C   UNL     1       0.152  -0.260  -2.462  0.00  0.00    +0.061 A 
ATOM      2  C   UNL     1       0.064  -1.145  -3.523  0.00  0.00    +0.023 A 
ATOM      3  C   UNL     1       0.134  -0.659  -4.837  0.00  0.00    -0.017 A 
ATOM      4  C   UNL     1       0.046  -1.529  -5.938  0.00  0.00    +0.008 A 
ATOM      5  C   UNL     1       0.117  -1.027  -7.201  0.00  0.00    +0.001 A 
ATOM      6  C   UNL     1       0.276   0.340  -7.421  0.00  0.00    +0.001 A 
ATOM      7  C   UNL     1       0.365   1.213  -6.380  0.00  0.00    +0.008 A 
ATOM      8  C   UNL     1       0.295   0.733  -5.061  0.00  0.00    -0.014 A 
ATOM      9  C   UNL     1       0.383   1.610  -3.966  0.00  0.00    +0.054 A 
ATOM     10  C   UNL     1       0.306   1.123  -2.696  0.00  0.00    +0.128 A 
ENDROOT
BRANCH   1  13
ATOM     11  C   UNL     1       1.718  -2.704  -1.265  0.00  0.00    +0.153 C 
ATOM     12  N   UNL     1       0.769  -1.839  -0.560  0.00  0.00    -0.305 N 
ATOM     13  C   UNL     1       0.079  -0.766  -1.076  0.00  0.00    +0.168 A 
ATOM     14  N   UNL     1      -0.656  -0.277  -0.105  0.00  0.00    -0.128 NA
ATOM     15  N   UNL     1      -0.476  -0.960   0.969  0.00  0.00    -0.122 NA
ATOM     16  C   UNL     1       0.382  -1.931   0.747  0.00  0.00    +0.191 A 
BRANCH  16  17
ATOM     17  S   UNL     1       0.932  -3.128   1.918  0.00  0.00    -0.089 S 
ATOM     18  C   UNL     1       0.043  -2.694   3.439  0.00  0.00    +0.093 C 
ENDBRANCH  16  17
ENDBRANCH   1  13
BRANCH  10  19
ATOM     19  O   UNL     1       0.386   1.977  -1.643  0.00  0.00    -0.506 OA
ATOM     20  H   UNL     1       1.291   2.187  -1.374  0.00  0.00    +0.292 HD
ENDBRANCH  10  19
TORSDOF 3
