REMARK  Name = ZINC12304214
REMARK  12 active torsions:
REMARK  status: ('A' for Active; 'I' for Inactive)
REMARK    1  A    between atoms: C_1  and  C_2
REMARK    2  A    between atoms: C_5  and  C_7
REMARK    3  A    between atoms: C_7  and  N_59
REMARK    4  A    between atoms: C_10  and  C_13
REMARK    5  A    between atoms: C_13  and  N_61
REMARK    6  A    between atoms: C_14  and  N_61
REMARK    7  A    between atoms: C_15  and  C_16
REMARK    8  A    between atoms: C_15  and  N_61
REMARK    9  A    between atoms: C_19  and  C_22
REMARK   10  A    between atoms: C_23  and  C_24
REMARK   11  A    between atoms: C_24  and  C_25
REMARK   12  A    between atoms: C_25  and  O_26
REMARK                            x       y       z     vdW  Elec       q    Type
REMARK                         _______ _______ _______ _____ _____    ______ ____
ROOT
ATOM      1  C   UNL     1       1.047   5.738  -1.845  0.00  0.00    -0.096 C 
ATOM      2  N   UNL     1      -0.281   6.173  -1.361  0.00  0.00    +0.381 N 
ATOM      3  H   UNL     1      -1.003   5.794  -1.985  0.00  0.00    -0.082 HD
ENDROOT
BRANCH   2   4
ATOM      4  C   UNL     1      -0.363   7.648  -1.370  0.00  0.00    -0.075 C 
BRANCH   4   7
ATOM      5  C   UNL     1      -1.965   8.104  -4.841  0.00  0.00    -0.078 C 
ATOM      6  C   UNL     1      -1.802   7.576  -3.414  0.00  0.00    -0.017 C 
ATOM      7  C   UNL     1      -0.502   8.124  -2.817  0.00  0.00    -0.031 C 
ATOM      8  C   UNL     1      -0.539   9.654  -2.852  0.00  0.00    -0.017 C 
ATOM      9  C   UNL     1      -0.740  10.123  -4.295  0.00  0.00    -0.078 C 
ATOM     10  N   UNL     1      -2.019   9.582  -4.802  0.00  0.00    +0.384 N 
ATOM     11  H   UNL     1      -2.776   9.871  -4.172  0.00  0.00    -0.081 HD
BRANCH  10  12
ATOM     12  C   UNL     1      -2.291  10.112  -6.154  0.00  0.00    -0.003 C 
BRANCH  12  17
ATOM     13  C   UNL     1      -4.725  14.494  -5.595  0.00  0.00    +0.086 C 
ATOM     14  C   UNL     1      -3.615  13.497  -5.807  0.00  0.00    +0.102 A 
ATOM     15  C   UNL     1      -2.316  13.794  -5.992  0.00  0.00    +0.044 A 
ATOM     16  C   UNL     1      -1.634  12.566  -6.149  0.00  0.00    +0.043 A 
ATOM     17  C   UNL     1      -2.556  11.592  -6.050  0.00  0.00    +0.089 A 
ATOM     18  O   UNL     1      -3.756  12.162  -5.849  0.00  0.00    -0.467 OA
ENDBRANCH  12  17
ENDBRANCH  10  12
ENDBRANCH   4   7
ENDBRANCH   2   4
BRANCH   2  19
ATOM     19  C   UNL     1      -0.512   5.662   0.006  0.00  0.00    -0.043 C 
BRANCH  19  20
ATOM     20  C   UNL     1      -0.642   4.161  -0.051  0.00  0.00    -0.064 A 
ATOM     21  C   UNL     1       0.480   3.367   0.101  0.00  0.00    +0.003 A 
ATOM     22  C   UNL     1       0.368   1.992   0.050  0.00  0.00    +0.017 A 
ATOM     23  C   UNL     1      -0.880   1.405  -0.155  0.00  0.00    +0.025 A 
ATOM     24  C   UNL     1      -2.007   2.212  -0.313  0.00  0.00    +0.017 A 
ATOM     25  C   UNL     1      -1.883   3.585  -0.254  0.00  0.00    +0.003 A 
BRANCH  23  26
ATOM     26  C   UNL     1      -1.004  -0.021  -0.210  0.00  0.00    -0.066 C 
ATOM     27  C   UNL     1      -1.105  -1.190  -0.255  0.00  0.00    -0.095 C 
BRANCH  27  28
ATOM     28  C   UNL     1      -1.232  -2.655  -0.311  0.00  0.00    +0.117 C 
BRANCH  28  29
ATOM     29  C   UNL     1      -2.696  -3.032  -0.544  0.00  0.00    +0.168 C 
BRANCH  29  30
ATOM     30  O   UNL     1      -2.819  -4.455  -0.598  0.00  0.00    -0.394 OA
ATOM     31  H   UNL     1      -3.723  -4.766  -0.744  0.00  0.00    +0.209 HD
ENDBRANCH  29  30
ENDBRANCH  28  29
ENDBRANCH  27  28
ENDBRANCH  23  26
ENDBRANCH  19  20
ENDBRANCH   2  19
TORSDOF 10
