REMARK  Name = ZINC14741758
REMARK  11 active torsions:
REMARK  status: ('A' for Active; 'I' for Inactive)
REMARK    1  A    between atoms: C_1  and  C_2
REMARK    2  A    between atoms: N_4  and  C_5
REMARK    3  A    between atoms: C_8  and  N_30
REMARK    4  A    between atoms: N_12  and  C_18
REMARK    5  A    between atoms: C_13  and  C_14
REMARK    6  A    between atoms: C_14  and  O_16
REMARK    7  A    between atoms: O_16  and  C_17
REMARK    8  A    between atoms: C_18  and  C_19
REMARK    9  A    between atoms: C_19  and  C_20
REMARK   10  A    between atoms: N_30  and  C_31
REMARK   11  A    between atoms: C_31  and  C_32
REMARK                            x       y       z     vdW  Elec       q    Type
REMARK                         _______ _______ _______ _____ _____    ______ ____
ROOT
ATOM      1  C   UNL     1      -3.916  -4.103   1.377  0.00  0.00    +0.075 A 
ATOM      2  C   UNL     1      -4.153  -3.076   0.360  0.00  0.00    +0.043 A 
ATOM      3  C   UNL     1      -4.768  -3.084  -0.897  0.00  0.00    +0.038 A 
ATOM      4  C   UNL     1      -4.815  -1.894  -1.607  0.00  0.00    +0.047 A 
ATOM      5  C   UNL     1      -4.253  -0.747  -1.050  0.00  0.00    +0.136 A 
ATOM      6  N   UNL     1      -3.680  -0.767   0.134  0.00  0.00    -0.235 NA
ATOM      7  C   UNL     1      -3.613  -1.876   0.861  0.00  0.00    +0.143 A 
ATOM      8  N   UNL     1      -3.071  -2.143   2.095  0.00  0.00    -0.318 N 
ATOM      9  C   UNL     1      -3.253  -3.481   2.415  0.00  0.00    +0.151 A 
ENDROOT
BRANCH   1  13
ATOM     10  C   UNL     1      -5.861  -7.291   1.778  0.00  0.00    +0.109 C 
ATOM     11  C   UNL     1      -5.498  -5.829   1.757  0.00  0.00    +0.214 C 
ATOM     12  O   UNL     1      -6.295  -5.000   2.143  0.00  0.00    -0.276 OA
ATOM     13  N   UNL     1      -4.287  -5.442   1.309  0.00  0.00    -0.283 N 
ATOM     14  H   UNL     1      -3.674  -6.097   0.940  0.00  0.00    +0.155 HD
ENDBRANCH   1  13
BRANCH   9  15
ATOM     15  C   UNL     1      -2.827  -4.108   3.613  0.00  0.00    +0.358 C 
ATOM     16  O   UNL     1      -3.040  -5.293   3.789  0.00  0.00    -0.243 OA
BRANCH  15  17
ATOM     17  O   UNL     1      -2.185  -3.390   4.559  0.00  0.00    -0.463 OA
ATOM     18  C   UNL     1      -1.784  -4.085   5.741  0.00  0.00    +0.280 C 
ENDBRANCH  15  17
ENDBRANCH   9  15
BRANCH   4  19
ATOM     19  N   UNL     1      -5.418  -1.846  -2.870  0.00  0.00    -0.337 N 
ATOM     20  H   UNL     1      -5.807  -2.648  -3.252  0.00  0.00    +0.147 HD
BRANCH  19  21
ATOM     21  C   UNL     1      -5.462  -0.584  -3.613  0.00  0.00    +0.164 C 
BRANCH  21  22
ATOM     22  C   UNL     1      -6.159  -0.802  -4.931  0.00  0.00    +0.095 A 
ATOM     23  N   UNL     1      -7.437  -0.701  -5.215  0.00  0.00    -0.251 NA
ATOM     24  C   UNL     1      -7.891  -0.921  -6.431  0.00  0.00    +0.119 A 
ATOM     25  C   UNL     1      -7.003  -1.272  -7.396  0.00  0.00    +0.066 A 
ATOM     26  S   UNL     1      -5.480  -1.258  -6.463  0.00  0.00    -0.079 S 
ENDBRANCH  21  22
ENDBRANCH  19  21
ENDBRANCH   4  19
BRANCH   8  27
ATOM     27  C   UNL     1      -2.405  -1.158   2.951  0.00  0.00    +0.129 C 
BRANCH  27  28
ATOM     28  C   UNL     1      -0.909  -1.134   2.632  0.00  0.00    +0.059 C 
BRANCH  28  29
ATOM     29  C   UNL     1      -0.224  -0.121   3.513  0.00  0.00    -0.021 A 
ATOM     30  C   UNL     1       0.052   1.154   3.197  0.00  0.00    +0.087 A 
ATOM     31  N   UNL     1       0.680   1.769   4.246  0.00  0.00    -0.360 N 
ATOM     32  H   UNL     1       0.978   2.692   4.254  0.00  0.00    +0.165 HD
ATOM     33  C   UNL     1       0.828   0.881   5.288  0.00  0.00    +0.047 A 
ATOM     34  C   UNL     1       0.268  -0.341   4.875  0.00  0.00    +0.003 A 
ATOM     35  C   UNL     1       0.275  -1.438   5.739  0.00  0.00    +0.010 A 
ATOM     36  C   UNL     1       0.827  -1.318   6.983  0.00  0.00    +0.001 A 
ATOM     37  C   UNL     1       1.381  -0.114   7.396  0.00  0.00    +0.002 A 
ATOM     38  C   UNL     1       1.384   0.981   6.559  0.00  0.00    +0.026 A 
ENDBRANCH  28  29
ENDBRANCH  27  28
ENDBRANCH   8  27
TORSDOF 9
