REMARK  Name = ZINC61690910
REMARK  3 active torsions:
REMARK  status: ('A' for Active; 'I' for Inactive)
REMARK    1  A    between atoms: C_9  and  C_11
REMARK    2  A    between atoms: C_11  and  N_12
REMARK    3  A    between atoms: N_12  and  C_13
REMARK                            x       y       z     vdW  Elec       q    Type
REMARK                         _______ _______ _______ _____ _____    ______ ____
ROOT
ATOM      1  C   UNL     1       4.958  -2.614  -0.060  0.00  0.00    +0.158 C 
ENDROOT
BRANCH   1  10
ATOM      2  C   UNL     1      -0.016   1.356   0.009  0.00  0.00    +0.002 A 
ATOM      3  C   UNL     1       1.169   2.090   0.002  0.00  0.00    +0.002 A 
ATOM      4  C   UNL     1       2.378   1.467  -0.013  0.00  0.00    +0.030 A 
ATOM      5  C   UNL     1       2.438   0.062  -0.021  0.00  0.00    +0.090 A 
ATOM      6  C   UNL     1       1.232  -0.684  -0.013  0.00  0.00    +0.089 A 
ATOM      7  C   UNL     1       0.002  -0.004   0.002  0.00  0.00    +0.030 A 
ATOM      8  N   UNL     1       1.283  -2.021  -0.021  0.00  0.00    -0.252 NA
ATOM      9  C   UNL     1       2.448  -2.628  -0.036  0.00  0.00    +0.136 A 
ATOM     10  C   UNL     1       3.635  -1.893  -0.043  0.00  0.00    +0.077 A 
ATOM     11  N   UNL     1       3.611  -0.580  -0.035  0.00  0.00    -0.247 NA
ENDBRANCH   1  10
BRANCH   1  12
ATOM     12  N   UNL     1       5.431  -2.735  -1.441  0.00  0.00    -0.337 N 
ATOM     13  H   UNL     1       4.902  -2.372  -2.168  0.00  0.00    +0.146 HD
BRANCH  12  14
ATOM     14  C   UNL     1       6.646  -3.371  -1.710  0.00  0.00    +0.047 A 
ATOM     15  C   UNL     1       7.402  -3.896  -0.670  0.00  0.00    +0.039 A 
ATOM     16  C   UNL     1       8.603  -4.525  -0.940  0.00  0.00    +0.020 A 
ATOM     17  C   UNL     1       9.051  -4.633  -2.245  0.00  0.00    +0.017 A 
ATOM     18  C   UNL     1       8.301  -4.112  -3.283  0.00  0.00    +0.023 A 
ATOM     19  C   UNL     1       7.097  -3.486  -3.020  0.00  0.00    +0.062 A 
ATOM     20 CL   UNL     1       6.151  -2.839  -4.324  0.00  0.00    -0.082 Cl
ATOM     21 BR   UNL     1       9.634  -5.240   0.475  0.00  0.00    -0.050 Br
ENDBRANCH  12  14
ENDBRANCH   1  12
TORSDOF 3
