REMARK  Name = ZINC34774277
REMARK  7 active torsions:
REMARK  status: ('A' for Active; 'I' for Inactive)
REMARK    1  A    between atoms: C_2  and  C_3
REMARK    2  A    between atoms: C_3  and  S_4
REMARK    3  A    between atoms: S_4  and  C_5
REMARK    4  A    between atoms: C_9  and  C_14
REMARK    5  A    between atoms: N_23  and  C_26
REMARK    6  A    between atoms: C_26  and  C_27
REMARK    7  A    between atoms: N_29  and  C_30
REMARK                            x       y       z     vdW  Elec       q    Type
REMARK                         _______ _______ _______ _____ _____    ______ ____
ROOT
ATOM      1  C   UNL     1      -4.072  -1.941  -1.432  0.00  0.00    +0.191 A 
ATOM      2  N   UNL     1      -4.379  -2.745  -2.444  0.00  0.00    -0.206 NA
ATOM      3  C   UNL     1      -3.912  -3.979  -2.526  0.00  0.00    +0.134 A 
ATOM      4  C   UNL     1      -3.055  -4.470  -1.503  0.00  0.00    +0.055 A 
ATOM      5  C   UNL     1      -2.420  -5.778  -1.370  0.00  0.00    +0.002 A 
ATOM      6  C   UNL     1      -1.635  -6.014  -0.294  0.00  0.00    +0.056 A 
ATOM      7  S   UNL     1      -1.701  -4.481   0.614  0.00  0.00    -0.076 S 
ATOM      8  C   UNL     1      -2.772  -3.564  -0.461  0.00  0.00    +0.115 A 
ATOM      9  N   UNL     1      -3.273  -2.343  -0.453  0.00  0.00    -0.214 NA
ATOM     10  N   UNL     1      -4.255  -4.786  -3.595  0.00  0.00    -0.318 N 
ATOM     11  C   UNL     1      -5.600  -5.375  -3.699  0.00  0.00    +0.088 C 
ATOM     12  C   UNL     1      -6.155  -5.076  -5.095  0.00  0.00    -0.059 C 
ATOM     13  N   UNL     1      -5.206  -5.551  -6.110  0.00  0.00    +0.387 N 
ATOM     14  C   UNL     1      -3.950  -4.796  -6.014  0.00  0.00    -0.059 C 
ATOM     15  C   UNL     1      -3.288  -5.076  -4.665  0.00  0.00    +0.088 C 
ATOM     16  H   UNL     1      -5.019  -6.532  -5.961  0.00  0.00    -0.081 HD
ENDROOT
BRANCH   5  17
ATOM     17  C   UNL     1      -2.633  -6.827  -2.395  0.00  0.00    -0.017 A 
ATOM     18  C   UNL     1      -3.919  -7.296  -2.660  0.00  0.00    +0.008 A 
ATOM     19  C   UNL     1      -4.110  -8.273  -3.616  0.00  0.00    +0.001 A 
ATOM     20  C   UNL     1      -3.030  -8.787  -4.310  0.00  0.00    +0.000 A 
ATOM     21  C   UNL     1      -1.751  -8.326  -4.051  0.00  0.00    +0.001 A 
ATOM     22  C   UNL     1      -1.548  -7.346  -3.101  0.00  0.00    +0.008 A 
ENDBRANCH   5  17
BRANCH   1  23
ATOM     23  S   UNL     1      -4.733  -0.308  -1.394  0.00  0.00    -0.082 S 
BRANCH  23  24
ATOM     24  C   UNL     1      -4.052   0.405   0.129  0.00  0.00    +0.104 C 
BRANCH  24  26
ATOM     25  C   UNL     1      -5.329   2.134   1.287  0.00  0.00    +0.005 C 
ATOM     26  C   UNL     1      -4.546   1.820   0.285  0.00  0.00    -0.023 C 
ENDBRANCH  24  26
ENDBRANCH  23  24
ENDBRANCH   1  23
BRANCH  13  27
ATOM     27  C   UNL     1      -5.786  -5.365  -7.446  0.00  0.00    +0.019 C 
BRANCH  27  28
ATOM     28  C   UNL     1      -4.868  -5.963  -8.481  0.00  0.00    +0.197 C 
ATOM     29  O   UNL     1      -3.832  -6.493  -8.138  0.00  0.00    -0.278 OA
ATOM     30  N   UNL     1      -5.198  -5.910  -9.786  0.00  0.00    -0.314 N 
ATOM     31  H   UNL     1      -6.027  -5.486 -10.060  0.00  0.00    +0.149 HD
BRANCH  30  32
ATOM     32  C   UNL     1      -4.306  -6.492 -10.792  0.00  0.00    +0.073 C 
ATOM     33  C   UNL     1      -3.232  -5.470 -11.172  0.00  0.00    +0.022 C 
ATOM     34  C   UNL     1      -2.300  -6.078 -12.223  0.00  0.00    +0.002 C 
ATOM     35  C   UNL     1      -3.108  -6.455 -13.466  0.00  0.00    +0.000 C 
ATOM     36  C   UNL     1      -4.182  -7.476 -13.085  0.00  0.00    +0.002 C 
ATOM     37  C   UNL     1      -5.114  -6.868 -12.035  0.00  0.00    +0.022 C 
ENDBRANCH  30  32
ENDBRANCH  27  28
ENDBRANCH  13  27
TORSDOF 7
