REMARK  Name = ZINC05376347
REMARK  4 active torsions:
REMARK  status: ('A' for Active; 'I' for Inactive)
REMARK    1  A    between atoms: C_3  and  O_26
REMARK    2  A    between atoms: C_6  and  C_7
REMARK    3  A    between atoms: N_13  and  C_14
REMARK    4  A    between atoms: C_16  and  C_21
REMARK                            x       y       z     vdW  Elec       q    Type
REMARK                         _______ _______ _______ _____ _____    ______ ____
ROOT
ATOM      1  C   UNL     1       3.260  -4.842  -3.282  0.00  0.00    +0.028 C 
ATOM      2  C   UNL     1       3.661  -3.670  -2.727  0.00  0.00    +0.078 C 
ATOM      3  C   UNL     1       5.008  -3.252  -2.295  0.00  0.00    +0.256 C 
ATOM      4  O   UNL     1       5.970  -3.989  -2.406  0.00  0.00    -0.269 OA
ATOM      5  N   UNL     1       5.125  -2.037  -1.785  0.00  0.00    -0.260 N 
ATOM      6  C   UNL     1       4.022  -1.219  -1.661  0.00  0.00    +0.166 C 
ATOM      7  N   UNL     1       3.961   0.001  -1.178  0.00  0.00    -0.224 NA
ATOM      8  S   UNL     1       2.700  -2.219  -2.325  0.00  0.00    -0.049 S 
ATOM      9  H   UNL     1       5.993  -1.720  -1.493  0.00  0.00    +0.157 HD
ENDROOT
BRANCH   7  10
ATOM     10  C   UNL     1       2.763   0.663  -1.141  0.00  0.00    +0.085 A 
ATOM     11  C   UNL     1       1.595  -0.018  -0.794  0.00  0.00    +0.041 A 
ATOM     12  C   UNL     1       0.392   0.655  -0.760  0.00  0.00    +0.057 A 
ATOM     13  C   UNL     1       0.340   2.003  -1.068  0.00  0.00    +0.014 A 
ATOM     14  C   UNL     1       1.493   2.685  -1.413  0.00  0.00    +0.022 A 
ATOM     15  C   UNL     1       2.704   2.024  -1.452  0.00  0.00    +0.066 A 
ATOM     16 CL   UNL     1       4.150   2.882  -1.885  0.00  0.00    -0.081 Cl
BRANCH  12  17
ATOM     17  C   UNL     1      -0.870  -0.080  -0.385  0.00  0.00    +0.417 C 
ATOM     18  F   UNL     1      -1.953   0.806  -0.420  0.00  0.00    -0.166 F 
ATOM     19  F   UNL     1      -1.090  -1.121  -1.292  0.00  0.00    -0.166 F 
ATOM     20  F   UNL     1      -0.738  -0.605   0.905  0.00  0.00    -0.166 F 
ENDBRANCH  12  17
ENDBRANCH   7  10
BRANCH   1  26
ATOM     21  C   UNL     1       1.357  -6.256  -4.032  0.00  0.00    +0.011 A 
ATOM     22  C   UNL     1       0.069  -6.383  -4.500  0.00  0.00    +0.046 A 
ATOM     23  C   UNL     1      -0.699  -5.250  -4.745  0.00  0.00    +0.117 A 
ATOM     24  C   UNL     1      -0.174  -3.984  -4.512  0.00  0.00    +0.046 A 
ATOM     25  C   UNL     1       1.111  -3.846  -4.037  0.00  0.00    +0.011 A 
ATOM     26  C   UNL     1       1.889  -4.983  -3.789  0.00  0.00    -0.024 A 
BRANCH  23  27
ATOM     27  O   UNL     1      -1.966  -5.380  -5.213  0.00  0.00    -0.507 OA
ATOM     28  H   UNL     1      -2.030  -5.391  -6.178  0.00  0.00    +0.292 HD
ENDBRANCH  23  27
ENDBRANCH   1  26
TORSDOF 4
