REMARK  Name = ZINC09542743
REMARK  8 active torsions:
REMARK  status: ('A' for Active; 'I' for Inactive)
REMARK    1  A    between atoms: C_1  and  C_2
REMARK    2  A    between atoms: C_2  and  O_3
REMARK    3  A    between atoms: O_3  and  C_4
REMARK    4  A    between atoms: C_8  and  C_11
REMARK    5  A    between atoms: C_9  and  O_10
REMARK    6  A    between atoms: C_14  and  C_26
REMARK    7  A    between atoms: C_16  and  C_18
REMARK    8  A    between atoms: C_29  and  C_32
REMARK                            x       y       z     vdW  Elec       q    Type
REMARK                         _______ _______ _______ _____ _____    ______ ____
ROOT
ATOM      1  C   UNL     1      -0.013   1.086   0.008  0.00  0.00    -0.028 C 
ATOM      2  C   UNL     1       1.422   1.622  -0.003  0.00  0.00    +0.044 C 
ATOM      3  C   UNL     1       2.030   1.401  -1.360  0.00  0.00    +0.040 C 
ATOM      4  N   UNL     1       1.337   1.121  -2.399  0.00  0.00    -0.299 NA
ATOM      5  C   UNL     1      -0.113   0.971  -2.399  0.00  0.00    +0.081 C 
ATOM      6  N   UNL     1      -0.701   1.583  -1.199  0.00  0.00    +0.401 N 
ATOM      7  H   UNL     1      -0.600   2.604  -1.253  0.00  0.00    -0.081 HD
ATOM      8  H   UNL     1      -1.698   1.341  -1.147  0.00  0.00    -0.081 HD
ENDROOT
BRANCH   5   9
ATOM      9  C   UNL     1      -0.681   1.641  -3.623  0.00  0.00    -0.039 A 
ATOM     10  C   UNL     1      -1.953   2.182  -3.586  0.00  0.00    +0.006 A 
ATOM     11  C   UNL     1      -2.474   2.802  -4.706  0.00  0.00    +0.040 A 
ATOM     12  C   UNL     1      -1.726   2.873  -5.869  0.00  0.00    +0.137 A 
ATOM     13  C   UNL     1      -0.453   2.326  -5.906  0.00  0.00    +0.053 A 
ATOM     14  C   UNL     1       0.067   1.711  -4.783  0.00  0.00    +0.022 A 
ATOM     15 BR   UNL     1       0.571   2.422  -7.493  0.00  0.00    -0.047 Br
ATOM     16  F   UNL     1      -2.236   3.474  -6.966  0.00  0.00    -0.204 F 
ENDBRANCH   5   9
BRANCH   3  17
ATOM     17  C   UNL     1       3.495   1.513  -1.501  0.00  0.00    -0.004 A 
ATOM     18  C   UNL     1       4.285   1.823  -0.392  0.00  0.00    +0.010 A 
ATOM     19  C   UNL     1       5.654   1.920  -0.530  0.00  0.00    +0.004 A 
ATOM     20  C   UNL     1       6.244   1.723  -1.766  0.00  0.00    -0.050 A 
ATOM     21  C   UNL     1       5.466   1.421  -2.870  0.00  0.00    +0.004 A 
ATOM     22  C   UNL     1       4.097   1.315  -2.745  0.00  0.00    +0.010 A 
ATOM     23  C   UNL     1       7.739   1.837  -1.910  0.00  0.00    +0.044 C 
ENDBRANCH   3  17
BRANCH   1  28
ATOM     24  C   UNL     1      -1.200   1.399   3.589  0.00  0.00    +0.162 A 
ATOM     25  C   UNL     1      -2.053   2.487   3.497  0.00  0.00    +0.049 A 
ATOM     26  C   UNL     1      -2.242   3.117   2.281  0.00  0.00    +0.004 A 
ATOM     27  C   UNL     1      -1.578   2.667   1.155  0.00  0.00    +0.006 A 
ATOM     28  C   UNL     1      -0.730   1.578   1.238  0.00  0.00    -0.016 A 
ATOM     29  C   UNL     1      -0.536   0.942   2.454  0.00  0.00    +0.160 A 
BRANCH  29  30
ATOM     30  O   UNL     1       0.302  -0.126   2.539  0.00  0.00    -0.503 OA
ATOM     31  H   UNL     1       1.218   0.108   2.740  0.00  0.00    +0.292 HD
ENDBRANCH  29  30
BRANCH  24  32
ATOM     32  O   UNL     1      -1.014   0.778   4.784  0.00  0.00    -0.489 OA
BRANCH  32  34
ATOM     33  C   UNL     1      -1.393   0.480   7.152  0.00  0.00    +0.048 C 
ATOM     34  C   UNL     1      -1.728   1.301   5.906  0.00  0.00    +0.226 C 
ENDBRANCH  32  34
ENDBRANCH  24  32
ENDBRANCH   1  28
TORSDOF 6
