REMARK  Name = ZINC19770168
REMARK  9 active torsions:
REMARK  status: ('A' for Active; 'I' for Inactive)
REMARK    1  A    between atoms: C_1  and  C_2
REMARK    2  A    between atoms: C_3  and  C_28
REMARK    3  A    between atoms: C_4  and  C_22
REMARK    4  A    between atoms: C_10  and  C_15
REMARK    5  A    between atoms: C_28  and  O_30
REMARK    6  A    between atoms: O_30  and  C_31
REMARK    7  A    between atoms: C_31  and  C_32
REMARK    8  A    between atoms: C_32  and  O_33
REMARK    9  A    between atoms: O_33  and  C_34
REMARK                            x       y       z     vdW  Elec       q    Type
REMARK                         _______ _______ _______ _____ _____    ______ ____
ROOT
ATOM      1  C   UNL     1      -2.757  -1.564   2.340  0.00  0.00    +0.061 C 
ATOM      2  C   UNL     1      -2.013  -1.032   1.143  0.00  0.00    +0.016 C 
ATOM      3  C   UNL     1      -0.771  -0.540   1.293  0.00  0.00    +0.065 C 
ATOM      4  C   UNL     1      -0.002   0.005   0.126  0.00  0.00    +0.094 C 
ATOM      5  C   UNL     1      -0.596  -0.465  -1.179  0.00  0.00    +0.024 C 
ATOM      6  C   UNL     1      -1.851  -0.957  -1.228  0.00  0.00    +0.016 C 
ATOM      7  N   UNL     1      -2.605  -1.052  -0.089  0.00  0.00    -0.321 N 
ATOM      8  C   UNL     1      -2.457  -1.410  -2.533  0.00  0.00    +0.059 C 
ATOM      9  C   UNL     1      -1.360  -1.946  -3.451  0.00  0.00    +0.032 C 
ATOM     10  C   UNL     1      -0.328  -0.835  -3.673  0.00  0.00    +0.088 C 
ATOM     11  C   UNL     1       0.193  -0.377  -2.339  0.00  0.00    +0.162 C 
ATOM     12  O   UNL     1       1.318   0.078  -2.262  0.00  0.00    -0.292 OA
ATOM     13  H   UNL     1      -3.698  -1.146  -0.173  0.00  0.00    +0.152 HD
ENDROOT
BRANCH   9  14
ATOM     14  C   UNL     1      -1.959  -2.353  -4.772  0.00  0.00    -0.043 A 
ATOM     15  C   UNL     1      -2.639  -1.424  -5.538  0.00  0.00    +0.005 A 
ATOM     16  C   UNL     1      -3.183  -1.794  -6.753  0.00  0.00    +0.020 A 
ATOM     17  C   UNL     1      -3.058  -3.099  -7.197  0.00  0.00    +0.041 A 
ATOM     18  C   UNL     1      -2.382  -4.029  -6.428  0.00  0.00    +0.020 A 
ATOM     19  C   UNL     1      -1.833  -3.656  -5.216  0.00  0.00    +0.005 A 
ATOM     20 CL   UNL     1      -3.748  -3.567  -8.720  0.00  0.00    -0.084 Cl
ENDBRANCH   9  14
BRANCH   4  21
ATOM     21  C   UNL     1      -0.035   1.511   0.171  0.00  0.00    -0.017 A 
ATOM     22  C   UNL     1       1.142   2.236   0.278  0.00  0.00    +0.007 A 
ATOM     23  C   UNL     1       1.063   3.620   0.316  0.00  0.00    +0.020 A 
ATOM     24  C   UNL     1      -0.177   4.226   0.245  0.00  0.00    +0.111 A 
ATOM     25  N   UNL     1      -1.276   3.504   0.143  0.00  0.00    -0.263 NA
ATOM     26  C   UNL     1      -1.238   2.187   0.099  0.00  0.00    +0.115 A 
ENDBRANCH   4  21
BRANCH   3  27
ATOM     27  C   UNL     1      -0.177  -0.536   2.577  0.00  0.00    +0.338 C 
ATOM     28  O   UNL     1      -0.827  -0.876   3.549  0.00  0.00    -0.245 OA
BRANCH  27  29
ATOM     29  O   UNL     1       1.109  -0.157   2.725  0.00  0.00    -0.458 OA
BRANCH  29  30
ATOM     30  C   UNL     1       1.644  -0.177   4.050  0.00  0.00    +0.273 C 
BRANCH  30  31
ATOM     31  C   UNL     1       3.103   0.282   4.018  0.00  0.00    +0.270 C 
BRANCH  31  32
ATOM     32  O   UNL     1       3.163   1.649   3.608  0.00  0.00    -0.489 OA
BRANCH  32  33
ATOM     33  C   UNL     1       4.396   2.215   3.527  0.00  0.00    +0.121 A 
ATOM     34  C   UNL     1       5.524   1.471   3.842  0.00  0.00    +0.045 A 
ATOM     35  C   UNL     1       6.777   2.047   3.754  0.00  0.00    +0.004 A 
ATOM     36  C   UNL     1       6.906   3.367   3.362  0.00  0.00    +0.000 A 
ATOM     37  C   UNL     1       5.783   4.112   3.053  0.00  0.00    +0.004 A 
ATOM     38  C   UNL     1       4.529   3.539   3.135  0.00  0.00    +0.045 A 
ENDBRANCH  32  33
ENDBRANCH  31  32
ENDBRANCH  30  31
ENDBRANCH  29  30
ENDBRANCH  27  29
ENDBRANCH   3  27
TORSDOF 8
