REMARK  Name = ZINC39540247
REMARK  13 active torsions:
REMARK  status: ('A' for Active; 'I' for Inactive)
REMARK    1  A    between atoms: C_1  and  C_2
REMARK    2  A    between atoms: C_2  and  C_3
REMARK    3  A    between atoms: C_2  and  S_4
REMARK    4  A    between atoms: S_4  and  C_7
REMARK    5  A    between atoms: C_10  and  C_13
REMARK    6  A    between atoms: C_13  and  C_15
REMARK    7  A    between atoms: C_13  and  N_19
REMARK    8  A    between atoms: C_15  and  N_16
REMARK    9  A    between atoms: N_16  and  O_17
REMARK   10  A    between atoms: O_17  and  C_18
REMARK   11  A    between atoms: C_23  and  S_26
REMARK   12  A    between atoms: S_26  and  O_29
REMARK   13  A    between atoms: O_29  and  C_30
REMARK                            x       y       z     vdW  Elec       q    Type
REMARK                         _______ _______ _______ _____ _____    ______ ____
ROOT
ATOM      1  C   UNL     1       6.414   1.716  -1.114  0.00  0.00    +0.103 C 
ENDROOT
BRANCH   1   2
ATOM      2  N   UNL     1       6.911   1.331   0.213  0.00  0.00    -0.296 NA
ATOM      3  C   UNL     1       7.799   2.364   0.764  0.00  0.00    +0.066 C 
ATOM      4  C   UNL     1       8.246   1.952   2.169  0.00  0.00    -0.064 C 
ATOM      5  N   UNL     1       8.948   0.664   2.102  0.00  0.00    +0.398 N 
ATOM      6  C   UNL     1       8.040  -0.363   1.573  0.00  0.00    +0.130 C 
ATOM      7  C   UNL     1       7.592   0.029   0.163  0.00  0.00    +0.095 C 
ATOM      8  H   UNL     1       9.749   0.749   1.495  0.00  0.00    -0.083 HD
ATOM      9  H   UNL     1       9.253   0.399   3.026  0.00  0.00    -0.083 HD
BRANCH   6  10
ATOM     10  S   UNL     1       8.903  -1.958   1.511  0.00  0.00    +0.109 S 
ATOM     11  O   UNL     1       7.991  -2.994   1.172  0.00  0.00    -0.138 OA
ATOM     12  O   UNL     1      10.135  -1.821   0.817  0.00  0.00    -0.138 OA
BRANCH  10  13
ATOM     13  O   UNL     1       9.299  -2.245   2.952  0.00  0.00    -0.347 OA
BRANCH  13  14
ATOM     14  C   UNL     1       8.265  -2.642   3.741  0.00  0.00    +0.156 A 
ATOM     15  C   UNL     1       7.513  -1.700   4.427  0.00  0.00    +0.048 A 
ATOM     16  C   UNL     1       6.463  -2.107   5.228  0.00  0.00    +0.004 A 
ATOM     17  C   UNL     1       6.162  -3.451   5.345  0.00  0.00    +0.000 A 
ATOM     18  C   UNL     1       6.910  -4.392   4.662  0.00  0.00    +0.004 A 
ATOM     19  C   UNL     1       7.957  -3.990   3.856  0.00  0.00    +0.048 A 
ENDBRANCH  13  14
ENDBRANCH  10  13
ENDBRANCH   6  10
ENDBRANCH   1   2
BRANCH   1  23
ATOM     20  C   UNL     1       2.416   0.296  -1.609  0.00  0.00    +0.088 A 
ATOM     21  C   UNL     1       2.744   1.584  -1.990  0.00  0.00    +0.027 A 
ATOM     22  C   UNL     1       4.038   2.043  -1.830  0.00  0.00    +0.007 A 
ATOM     23  C   UNL     1       5.004   1.215  -1.288  0.00  0.00    -0.029 A 
ATOM     24  C   UNL     1       4.675  -0.072  -0.906  0.00  0.00    +0.007 A 
ATOM     25  C   UNL     1       3.381  -0.530  -1.063  0.00  0.00    +0.027 A 
BRANCH  20  26
ATOM     26  S   UNL     1       0.767  -0.290  -1.813  0.00  0.00    -0.001 S 
ATOM     27  O   UNL     1       0.895  -1.701  -1.925  0.00  0.00    -0.169 OA
ATOM     28  O   UNL     1       0.240   0.477  -2.887  0.00  0.00    -0.169 OA
BRANCH  26  30
ATOM     29  C   UNL     1      -0.034   1.657  -0.067  0.00  0.00    +0.032 C 
ATOM     30  C   UNL     1      -0.075   0.140  -0.266  0.00  0.00    +0.130 C 
ATOM     31  C   UNL     1      -1.531  -0.326  -0.331  0.00  0.00    +0.032 C 
ENDBRANCH  26  30
ENDBRANCH  20  26
ENDBRANCH   1  23
BRANCH   1  32
ATOM     32  C   UNL     1       7.310   1.102  -2.192  0.00  0.00    +0.134 C 
BRANCH  32  33
ATOM     33  N   UNL     1       8.696   1.542  -1.986  0.00  0.00    -0.200 NA
ATOM     34  H   UNL     1       8.758   2.549  -1.975  0.00  0.00    +0.154 HD
BRANCH  33  35
ATOM     35  O   UNL     1       9.584   0.973  -3.000  0.00  0.00    -0.303 OA
ATOM     36  C   UNL     1      10.952   1.360  -2.860  0.00  0.00    +0.221 C 
ENDBRANCH  33  35
ENDBRANCH  32  33
ENDBRANCH   1  32
TORSDOF 10
