REMARK  Name = ZINC67390587
REMARK  5 active torsions:
REMARK  status: ('A' for Active; 'I' for Inactive)
REMARK    1  A    between atoms: C_5  and  C_7
REMARK    2  A    between atoms: N_16  and  C_17
REMARK    3  A    between atoms: C_17  and  C_18
REMARK    4  A    between atoms: C_21  and  S_23
REMARK    5  A    between atoms: S_23  and  N_26
REMARK                            x       y       z     vdW  Elec       q    Type
REMARK                         _______ _______ _______ _____ _____    ______ ____
ROOT
ATOM      1  C   UNL     1       1.229  -2.183  -0.018  0.00  0.00    +0.168 C 
ATOM      2  C   UNL     1       1.370  -2.704   1.417  0.00  0.00    +0.145 C 
ATOM      3  N   UNL     1       1.202  -4.166   1.398  0.00  0.00    -0.281 N 
ATOM      4  C   UNL     1       0.024  -4.718   0.709  0.00  0.00    +0.137 C 
ATOM      5  C   UNL     1      -0.052  -4.098  -0.691  0.00  0.00    +0.179 C 
ATOM      6  O   UNL     1       0.010  -2.674  -0.580  0.00  0.00    -0.369 OA
ATOM      7  C   UNL     1       2.100  -4.976   1.993  0.00  0.00    +0.303 C 
ATOM      8  O   UNL     1       3.114  -4.509   2.474  0.00  0.00    -0.253 OA
ATOM      9  N   UNL     1       1.873  -6.303   2.055  0.00  0.00    -0.295 N 
ATOM     10  H   UNL     1       1.101  -6.685   1.609  0.00  0.00    +0.151 HD
ENDROOT
BRANCH   1  15
ATOM     11  C   UNL     1      -0.022   1.379   0.019  0.00  0.00    +0.001 A 
ATOM     12  C   UNL     1       1.164   2.090   0.017  0.00  0.00    +0.003 A 
ATOM     13  C   UNL     1       2.372   1.419   0.003  0.00  0.00    +0.039 A 
ATOM     14  C   UNL     1       2.394   0.035  -0.008  0.00  0.00    +0.129 A 
ATOM     15  C   UNL     1       1.206  -0.676  -0.005  0.00  0.00    +0.018 A 
ATOM     16  C   UNL     1      -0.001  -0.003   0.009  0.00  0.00    +0.009 A 
ATOM     17  F   UNL     1       3.575  -0.622  -0.021  0.00  0.00    -0.205 F 
ENDBRANCH   1  15
BRANCH   9  18
ATOM     18  C   UNL     1       2.793  -7.169   2.796  0.00  0.00    +0.148 C 
BRANCH  18  19
ATOM     19  C   UNL     1       2.318  -8.597   2.711  0.00  0.00    +0.009 A 
ATOM     20  C   UNL     1       2.626  -9.546   1.793  0.00  0.00    +0.015 A 
ATOM     21  C   UNL     1       2.065 -10.803   1.915  0.00  0.00    +0.036 A 
ATOM     22  C   UNL     1       1.224 -11.050   2.950  0.00  0.00    +0.142 A 
ATOM     23  S   UNL     1       1.210  -9.479   3.797  0.00  0.00    -0.072 S 
BRANCH  22  24
ATOM     24  S   UNL     1       0.372 -12.538   3.355  0.00  0.00    +0.062 S 
ATOM     25  O   UNL     1      -0.757 -12.161   4.131  0.00  0.00    -0.153 OA
ATOM     26  O   UNL     1       0.255 -13.281   2.150  0.00  0.00    -0.153 OA
BRANCH  24  27
ATOM     27  N   UNL     1       1.362 -13.412   4.355  0.00  0.00    -0.203 NA
ATOM     28  H   UNL     1       2.232 -13.063   4.602  0.00  0.00    +0.144 HD
ATOM     29  H   UNL     1       1.071 -14.274   4.693  0.00  0.00    +0.144 HD
ENDBRANCH  24  27
ENDBRANCH  22  24
ENDBRANCH  18  19
ENDBRANCH   9  18
TORSDOF 5
