REMARK  Name = ZINC06197057
REMARK  8 active torsions:
REMARK  status: ('A' for Active; 'I' for Inactive)
REMARK    1  A    between atoms: C_1  and  C_2
REMARK    2  A    between atoms: C_2  and  O_3
REMARK    3  A    between atoms: O_3  and  C_4
REMARK    4  A    between atoms: C_9  and  C_16
REMARK    5  A    between atoms: C_17  and  C_18
REMARK    6  A    between atoms: C_18  and  C_20
REMARK    7  A    between atoms: C_21  and  C_37
REMARK    8  A    between atoms: C_29  and  C_30
REMARK                            x       y       z     vdW  Elec       q    Type
REMARK                         _______ _______ _______ _____ _____    ______ ____
ROOT
ATOM      1  C   UNL     1      -3.089   2.987  -2.233  0.00  0.00    +0.188 C 
ATOM      2  O   UNL     1      -1.993   2.459  -2.305  0.00  0.00    -0.287 OA
ENDROOT
BRANCH   1   3
ATOM      3  C   UNL     1      -3.430   3.822  -1.065  0.00  0.00    +0.051 A 
ATOM      4  C   UNL     1      -4.116   3.268   0.028  0.00  0.00    +0.050 A 
ATOM      5  N   UNL     1      -4.431   3.985   1.076  0.00  0.00    -0.251 NA
ATOM      6  C   UNL     1      -4.119   5.284   1.169  0.00  0.00    +0.072 A 
ATOM      7  C   UNL     1      -4.471   6.027   2.308  0.00  0.00    +0.030 A 
ATOM      8  C   UNL     1      -4.144   7.347   2.383  0.00  0.00    +0.022 A 
ATOM      9  C   UNL     1      -3.464   7.979   1.344  0.00  0.00    +0.042 A 
ATOM     10  C   UNL     1      -3.106   7.288   0.223  0.00  0.00    +0.030 A 
ATOM     11  C   UNL     1      -3.422   5.927   0.117  0.00  0.00    +0.010 A 
ATOM     12  C   UNL     1      -3.072   5.179  -1.034  0.00  0.00    +0.004 A 
ATOM     13 CL   UNL     1      -3.067   9.664   1.477  0.00  0.00    -0.084 Cl
ATOM     14  C   UNL     1      -4.500   1.811  -0.008  0.00  0.00    +0.066 C 
BRANCH  12  15
ATOM     15  C   UNL     1      -2.349   5.805  -2.161  0.00  0.00    -0.017 A 
ATOM     16  C   UNL     1      -1.055   5.390  -2.482  0.00  0.00    +0.008 A 
ATOM     17  C   UNL     1      -0.384   5.981  -3.532  0.00  0.00    +0.001 A 
ATOM     18  C   UNL     1      -0.995   6.977  -4.274  0.00  0.00    +0.000 A 
ATOM     19  C   UNL     1      -2.279   7.390  -3.965  0.00  0.00    +0.001 A 
ATOM     20  C   UNL     1      -2.959   6.810  -2.914  0.00  0.00    +0.008 A 
ENDBRANCH  12  15
ENDBRANCH   1   3
BRANCH   1  22
ATOM     21  C   UNL     1      -3.761   1.952  -4.291  0.00  0.00    +0.017 C 
ATOM     22  C   UNL     1      -4.035   2.799  -3.269  0.00  0.00    +0.052 C 
BRANCH  21  28
ATOM     23  C   UNL     1      -7.070   0.804  -9.701  0.00  0.00    +0.122 A 
ATOM     24  C   UNL     1      -5.858   0.115  -9.754  0.00  0.00    +0.046 A 
ATOM     25  C   UNL     1      -4.972   0.195  -8.722  0.00  0.00    +0.013 A 
ATOM     26  C   UNL     1      -5.277   0.976  -7.594  0.00  0.00    -0.001 A 
ATOM     27  C   UNL     1      -4.361   1.067  -6.524  0.00  0.00    +0.023 A 
ATOM     28  C   UNL     1      -4.688   1.841  -5.419  0.00  0.00    +0.040 A 
ATOM     29  C   UNL     1      -5.973   2.552  -5.398  0.00  0.00    +0.256 A 
ATOM     30  O   UNL     1      -6.272   3.238  -4.437  0.00  0.00    -0.267 OA
ATOM     31  N   UNL     1      -6.820   2.446  -6.438  0.00  0.00    -0.322 N 
ATOM     32  H   UNL     1      -7.693   2.934  -6.415  0.00  0.00    +0.169 HD
ATOM     33  C   UNL     1      -6.502   1.674  -7.536  0.00  0.00    +0.053 A 
ATOM     34  C   UNL     1      -7.391   1.579  -8.600  0.00  0.00    +0.072 A 
BRANCH  23  35
ATOM     35  O   UNL     1      -7.941   0.713 -10.737  0.00  0.00    -0.492 OA
BRANCH  35  37
ATOM     36  C   UNL     1      -8.652  -0.081 -12.906  0.00  0.00    +0.048 C 
ATOM     37  C   UNL     1      -7.551  -0.102 -11.844  0.00  0.00    +0.225 C 
ENDBRANCH  35  37
ENDBRANCH  23  35
ENDBRANCH  21  28
ENDBRANCH   1  22
TORSDOF 6
