REMARK  Name = ZINC10069020
REMARK  7 active torsions:
REMARK  status: ('A' for Active; 'I' for Inactive)
REMARK    1  A    between atoms: C_1  and  C_2
REMARK    2  A    between atoms: C_2  and  O_3
REMARK    3  A    between atoms: O_3  and  C_4
REMARK    4  A    between atoms: C_12  and  N_17
REMARK    5  A    between atoms: C_13  and  C_14
REMARK    6  A    between atoms: C_22  and  O_27
REMARK    7  A    between atoms: O_27  and  C_28
REMARK                            x       y       z     vdW  Elec       q    Type
REMARK                         _______ _______ _______ _____ _____    ______ ____
ROOT
ATOM      1  C   UNL     1      -7.512  -6.129  -1.020  0.00  0.00    +0.403 C 
ATOM      2  O   UNL     1      -7.959  -7.244  -1.200  0.00  0.00    -0.226 OA
ATOM      3  N   UNL     1      -6.458  -5.949  -0.200  0.00  0.00    -0.262 N 
ATOM      4  C   UNL     1      -5.827  -7.084   0.491  0.00  0.00    +0.116 C 
ATOM      5  C   UNL     1      -4.389  -7.251  -0.006  0.00  0.00    +0.056 C 
ATOM      6  C   UNL     1      -3.694  -5.895   0.005  0.00  0.00    -0.020 A 
ATOM      7  C   UNL     1      -4.401  -4.745   0.020  0.00  0.00    +0.013 A 
ATOM      8  S   UNL     1      -3.182  -3.461   0.021  0.00  0.00    -0.076 S 
ATOM      9  C   UNL     1      -1.750  -4.436  -0.005  0.00  0.00    +0.084 A 
ATOM     10  C   UNL     1      -2.249  -5.731  -0.007  0.00  0.00    +0.068 A 
ATOM     11  C   UNL     1      -5.893  -4.606   0.039  0.00  0.00    +0.153 C 
ENDROOT
BRANCH   9  12
ATOM     12  N   UNL     1      -0.429  -4.023  -0.015  0.00  0.00    -0.288 N 
ATOM     13  C   UNL     1      -0.126  -2.675  -0.011  0.00  0.00    +0.164 A 
ATOM     14  N   UNL     1       1.053  -2.095  -0.019  0.00  0.00    -0.225 NA
ATOM     15  C   UNL     1       1.201  -0.752  -0.013  0.00  0.00    +0.084 A 
ATOM     16  C   UNL     1       2.403  -0.008  -0.021  0.00  0.00    +0.074 A 
ATOM     17  C   UNL     1       2.377   1.367  -0.012  0.00  0.00    +0.122 A 
ATOM     18  C   UNL     1       1.175   2.069   0.002  0.00  0.00    +0.047 A 
ATOM     19  C   UNL     1      -0.017   1.368   0.010  0.00  0.00    +0.021 A 
ATOM     20  C   UNL     1       0.002  -0.004   0.002  0.00  0.00    +0.041 A 
ATOM     21  S   UNL     1      -1.238  -1.276   0.007  0.00  0.00    -0.052 S 
ATOM     22  H   UNL     1       0.284  -4.681  -0.025  0.00  0.00    +0.155 HD
BRANCH  17  23
ATOM     23  O   UNL     1       3.550   2.055  -0.019  0.00  0.00    -0.495 OA
ATOM     24  C   UNL     1       3.465   3.481  -0.011  0.00  0.00    +0.277 C 
ENDBRANCH  17  23
ENDBRANCH   9  12
BRANCH  10  25
ATOM     25  C   UNL     1      -1.353  -6.891  -0.020  0.00  0.00    +0.244 C 
ATOM     26  O   UNL     1      -0.973  -7.378   1.029  0.00  0.00    -0.270 OA
ATOM     27  N   UNL     1      -0.951  -7.418  -1.193  0.00  0.00    -0.325 N 
ATOM     28  H   UNL     1      -1.255  -7.030  -2.029  0.00  0.00    +0.145 HD
ATOM     29  H   UNL     1      -0.358  -8.186  -1.202  0.00  0.00    +0.145 HD
ENDBRANCH  10  25
BRANCH   1  30
ATOM     30  O   UNL     1      -8.070  -5.072  -1.640  0.00  0.00    -0.451 OA
BRANCH  30  32
ATOM     31  C   UNL     1      -9.698  -4.027  -3.119  0.00  0.00    +0.048 C 
ATOM     32  C   UNL     1      -9.203  -5.340  -2.509  0.00  0.00    +0.230 C 
ENDBRANCH  30  32
ENDBRANCH   1  30
TORSDOF 5
