REMARK  Name = ZINC63824538
REMARK  9 active torsions:
REMARK  status: ('A' for Active; 'I' for Inactive)
REMARK    1  A    between atoms: C_1  and  C_2
REMARK    2  A    between atoms: C_6  and  C_15
REMARK    3  A    between atoms: N_9  and  C_11
REMARK    4  A    between atoms: C_11  and  C_12
REMARK    5  A    between atoms: C_12  and  C_13
REMARK    6  A    between atoms: C_12  and  C_14
REMARK    7  A    between atoms: N_17  and  C_18
REMARK    8  A    between atoms: C_18  and  C_19
REMARK    9  A    between atoms: C_19  and  C_20
REMARK                            x       y       z     vdW  Elec       q    Type
REMARK                         _______ _______ _______ _____ _____    ______ ____
ROOT
ATOM      1  C   UNL     1      -4.962  -1.328  -0.806  0.00  0.00    +0.251 C 
ATOM      2  O   UNL     1      -5.220  -0.777  -1.861  0.00  0.00    -0.270 OA
ATOM      3  N   UNL     1      -5.905  -2.057  -0.178  0.00  0.00    -0.311 N 
ATOM      4  H   UNL     1      -5.699  -2.496   0.662  0.00  0.00    +0.149 HD
ENDROOT
BRANCH   1   9
ATOM      5  C   UNL     1      -0.019   1.526   0.010  0.00  0.00    +0.031 C 
ATOM      6  C   UNL     1       0.002  -0.004   0.002  0.00  0.00    +0.102 C 
ATOM      7  C   UNL     1      -1.422  -0.555   0.050  0.00  0.00    +0.001 A 
ATOM      8  C   UNL     1      -2.573  -0.507  -0.719  0.00  0.00    +0.028 A 
ATOM      9  C   UNL     1      -3.669  -1.202  -0.239  0.00  0.00    +0.076 A 
ATOM     10  S   UNL     1      -3.038  -1.896   1.276  0.00  0.00    -0.068 S 
ATOM     11  C   UNL     1      -1.477  -1.288   1.217  0.00  0.00    +0.087 A 
ATOM     12  N   UNL     1      -0.278  -1.260   1.888  0.00  0.00    -0.259 N 
ATOM     13  N   UNL     1       0.650  -0.514   1.222  0.00  0.00    -0.232 NA
ATOM     14  H   UNL     1       0.986   0.244   1.796  0.00  0.00    +0.145 HD
BRANCH  12  15
ATOM     15  C   UNL     1      -0.028  -1.944   3.159  0.00  0.00    +0.127 C 
BRANCH  15  16
ATOM     16  C   UNL     1       0.489  -3.357   2.884  0.00  0.00    +0.002 C 
ATOM     17  C   UNL     1       1.852  -3.276   2.193  0.00  0.00    +0.009 C 
ATOM     18  C   UNL     1       0.632  -4.114   4.206  0.00  0.00    +0.009 C 
ENDBRANCH  15  16
ENDBRANCH  12  15
ENDBRANCH   1   9
BRANCH   3  19
ATOM     19  C   UNL     1      -7.241  -2.188  -0.764  0.00  0.00    +0.109 C 
BRANCH  19  20
ATOM     20  C   UNL     1      -8.113  -3.061   0.141  0.00  0.00    +0.052 C 
BRANCH  20  21
ATOM     21  C   UNL     1      -9.487  -3.195  -0.462  0.00  0.00    -0.040 C 
ATOM     22  C   UNL     1      -9.936  -4.201  -1.247  0.00  0.00    -0.001 A 
ATOM     23  C   UNL     1      -9.303  -5.424  -1.755  0.00  0.00    +0.010 A 
ATOM     24  C   UNL     1     -10.023  -6.258  -2.539  0.00  0.00    +0.001 A 
ATOM     25  C   UNL     1     -11.355  -5.985  -2.877  0.00  0.00    +0.002 A 
ATOM     26  C   UNL     1     -12.005  -4.882  -2.449  0.00  0.00    +0.026 A 
ATOM     27  C   UNL     1     -11.344  -3.936  -1.618  0.00  0.00    +0.043 A 
ATOM     28  N   UNL     1     -11.750  -2.809  -1.084  0.00  0.00    -0.380 N 
ATOM     29  C   UNL     1     -10.646  -2.235  -0.307  0.00  0.00    +0.144 C 
ATOM     30  H   UNL     1     -12.634  -2.422  -1.182  0.00  0.00    +0.160 HD
ENDBRANCH  20  21
ENDBRANCH  19  20
ENDBRANCH   3  19
TORSDOF 6
