REMARK  Name = ZINC39530172
REMARK  3 active torsions:
REMARK  status: ('A' for Active; 'I' for Inactive)
REMARK    1  A    between atoms: C_4  and  O_22
REMARK    2  A    between atoms: C_5  and  C_7
REMARK    3  A    between atoms: C_12  and  N_13
REMARK                            x       y       z     vdW  Elec       q    Type
REMARK                         _______ _______ _______ _____ _____    ______ ____
ROOT
ATOM      1  C   UNL     1       1.272  -2.162  -0.035  0.00  0.00    +0.008 A 
ATOM      2  C   UNL     1       0.869  -2.864  -1.169  0.00  0.00    +0.024 A 
ATOM      3  C   UNL     1       0.867  -4.245  -1.160  0.00  0.00    +0.014 A 
ATOM      4  C   UNL     1       1.264  -4.936  -0.028  0.00  0.00    +0.016 A 
ATOM      5  C   UNL     1       1.666  -4.251   1.103  0.00  0.00    +0.025 A 
ATOM      6  C   UNL     1       1.679  -2.864   1.106  0.00  0.00    +0.038 A 
ATOM      7  I   UNL     1       0.261  -5.298  -2.866  0.00  0.00    -0.044 I 
ENDROOT
BRANCH   6   8
ATOM      8  N   UNL     1       2.090  -2.170   2.245  0.00  0.00    -0.326 N 
ATOM      9  C   UNL     1       1.157  -1.918   3.354  0.00  0.00    +0.120 C 
ATOM     10  C   UNL     1       1.196  -0.425   3.694  0.00  0.00    +0.101 C 
ATOM     11  N   UNL     1       2.585  -0.020   3.947  0.00  0.00    -0.302 NA
ATOM     12  C   UNL     1       3.416  -0.187   2.748  0.00  0.00    +0.139 C 
ATOM     13  C   UNL     1       3.470  -1.676   2.372  0.00  0.00    +0.135 C 
ATOM     14 BR   UNL     1       5.236   0.461   3.114  0.00  0.00    -0.070 Br
ATOM     15  H   UNL     1       2.629   0.929   4.288  0.00  0.00    +0.123 HD
ENDBRANCH   6   8
BRANCH   1  20
ATOM     16  C   UNL     1       0.276   1.405   0.607  0.00  0.00    +0.001 A 
ATOM     17  C   UNL     1       1.284   2.092  -0.047  0.00  0.00    +0.004 A 
ATOM     18  C   UNL     1       2.289   1.403  -0.699  0.00  0.00    +0.046 A 
ATOM     19  C   UNL     1       2.293   0.018  -0.699  0.00  0.00    +0.125 A 
ATOM     20  C   UNL     1       1.277  -0.680  -0.039  0.00  0.00    +0.025 A 
ATOM     21  C   UNL     1       0.268   0.025   0.614  0.00  0.00    +0.012 A 
BRANCH  19  22
ATOM     22  O   UNL     1       3.281  -0.661  -1.340  0.00  0.00    -0.506 OA
ATOM     23  H   UNL     1       4.078  -0.789  -0.808  0.00  0.00    +0.292 HD
ENDBRANCH  19  22
ENDBRANCH   1  20
TORSDOF 3
