REMARK  Name = ZINC49579100
REMARK  12 active torsions:
REMARK  status: ('A' for Active; 'I' for Inactive)
REMARK    1  A    between atoms: C_1  and  C_2
REMARK    2  A    between atoms: C_2  and  C_3
REMARK    3  A    between atoms: C_3  and  N_4
REMARK    4  A    between atoms: C_8  and  C_10
REMARK    5  A    between atoms: C_10  and  O_11
REMARK    6  A    between atoms: O_11  and  C_12
REMARK    7  A    between atoms: C_12  and  C_14
REMARK    8  A    between atoms: C_14  and  C_16
REMARK    9  A    between atoms: C_14  and  N_19
REMARK   10  A    between atoms: C_16  and  C_17
REMARK   11  A    between atoms: C_16  and  C_18
REMARK   12  A    between atoms: C_20  and  C_22
REMARK                            x       y       z     vdW  Elec       q    Type
REMARK                         _______ _______ _______ _____ _____    ______ ____
ROOT
ATOM      1  C   UNL     1       3.519  -8.549   5.719  0.00  0.00    +0.185 C 
ENDROOT
BRANCH   1   2
ATOM      2  N   UNL     1       3.500 -10.012   5.645  0.00  0.00    -0.298 N 
ATOM      3  C   UNL     1       4.454 -10.731   6.269  0.00  0.00    +0.250 C 
ATOM      4  O   UNL     1       5.330 -10.166   6.895  0.00  0.00    -0.270 OA
ATOM      5  H   UNL     1       2.801 -10.464   5.146  0.00  0.00    +0.150 HD
BRANCH   3   6
ATOM      6  C   UNL     1       4.435 -12.205   6.195  0.00  0.00    +0.107 A 
ATOM      7  C   UNL     1       5.114 -12.866   5.166  0.00  0.00    +0.138 A 
ATOM      8  C   UNL     1       5.091 -14.246   5.104  0.00  0.00    +0.039 A 
ATOM      9  C   UNL     1       4.399 -14.974   6.055  0.00  0.00    +0.006 A 
ATOM     10  C   UNL     1       3.724 -14.328   7.075  0.00  0.00    +0.039 A 
ATOM     11  C   UNL     1       3.741 -12.949   7.156  0.00  0.00    +0.138 A 
ATOM     12  F   UNL     1       3.086 -12.320   8.156  0.00  0.00    -0.205 F 
ATOM     13  F   UNL     1       5.791 -12.157   4.236  0.00  0.00    -0.205 F 
ENDBRANCH   3   6
ENDBRANCH   1   2
BRANCH   1  14
ATOM     14  C   UNL     1       2.817  -8.094   7.000  0.00  0.00    +0.014 C 
ATOM     15  C   UNL     1       3.543  -8.676   8.214  0.00  0.00    +0.009 C 
ATOM     16  C   UNL     1       2.837  -6.566   7.077  0.00  0.00    +0.009 C 
ENDBRANCH   1  14
BRANCH   1  17
ATOM     17  C   UNL     1       2.804  -7.976   4.523  0.00  0.00    +0.328 C 
ATOM     18  O   UNL     1       2.327  -8.714   3.693  0.00  0.00    -0.249 OA
BRANCH  17  19
ATOM     19  O   UNL     1       2.696  -6.646   4.378  0.00  0.00    -0.454 OA
BRANCH  19  20
ATOM     20  C   UNL     1       2.005  -6.173   3.221  0.00  0.00    +0.328 C 
BRANCH  20  25
ATOM     21  N   UNL     1       0.762  -1.976   1.234  0.00  0.00    -0.299 N 
ATOM     22  C   UNL     1       1.364  -2.647   2.235  0.00  0.00    +0.306 C 
ATOM     23  O   UNL     1       1.891  -2.037   3.145  0.00  0.00    -0.252 OA
ATOM     24  N   UNL     1       1.383  -3.995   2.228  0.00  0.00    -0.237 N 
ATOM     25  C   UNL     1       1.985  -4.666   3.229  0.00  0.00    +0.258 C 
ATOM     26  O   UNL     1       2.510  -4.058   4.137  0.00  0.00    -0.272 OA
ATOM     27  H   UNL     1       0.342  -2.462   0.507  0.00  0.00    +0.150 HD
ATOM     28  H   UNL     1       0.962  -4.481   1.502  0.00  0.00    +0.159 HD
BRANCH  21  29
ATOM     29  C   UNL     1       0.742  -0.511   1.242  0.00  0.00    +0.105 C 
BRANCH  29  31
ATOM     30  C   UNL     1      -0.019   1.526   0.010  0.00  0.00    +0.005 C 
ATOM     31  C   UNL     1       0.002  -0.004   0.002  0.00  0.00    +0.015 C 
ENDBRANCH  29  31
ENDBRANCH  21  29
ENDBRANCH  20  25
ENDBRANCH  19  20
ENDBRANCH  17  19
ENDBRANCH   1  17
TORSDOF 9
