REMARK  Name = ZINC25450781
REMARK  8 active torsions:
REMARK  status: ('A' for Active; 'I' for Inactive)
REMARK    1  A    between atoms: C_1  and  C_2
REMARK    2  A    between atoms: C_5  and  C_7
REMARK    3  A    between atoms: C_7  and  C_8
REMARK    4  A    between atoms: C_7  and  C_22
REMARK    5  A    between atoms: C_7  and  O_26
REMARK    6  A    between atoms: C_8  and  C_9
REMARK    7  A    between atoms: C_9  and  N_10
REMARK    8  A    between atoms: C_18  and  C_21
REMARK                            x       y       z     vdW  Elec       q    Type
REMARK                         _______ _______ _______ _____ _____    ______ ____
ROOT
ATOM      1  C   UNL     1      -4.906   4.041  -0.116  0.00  0.00    +0.106 C 
ENDROOT
BRANCH   1   2
ATOM      2  N   UNL     1      -3.654   3.283  -0.047  0.00  0.00    -0.329 N 
ATOM      3  C   UNL     1      -2.445   3.923  -0.261  0.00  0.00    +0.120 A 
ATOM      4  C   UNL     1      -1.228   3.205  -0.197  0.00  0.00    +0.023 A 
ATOM      5  C   UNL     1      -1.172   1.834   0.074  0.00  0.00    +0.012 A 
ATOM      6  C   UNL     1       0.040   1.211   0.123  0.00  0.00    +0.001 A 
ATOM      7  C   UNL     1       1.220   1.915  -0.102  0.00  0.00    +0.001 A 
ATOM      8  C   UNL     1       1.201   3.251  -0.374  0.00  0.00    +0.010 A 
ATOM      9  C   UNL     1      -0.027   3.924  -0.427  0.00  0.00    +0.008 A 
ATOM     10  C   UNL     1      -0.129   5.300  -0.703  0.00  0.00    +0.066 A 
ATOM     11  N   UNL     1      -1.317   5.858  -0.736  0.00  0.00    -0.177 NA
ATOM     12  N   UNL     1      -2.406   5.217  -0.529  0.00  0.00    -0.264 N 
ATOM     13  C   UNL     1       1.109   6.122  -0.956  0.00  0.00    +0.068 C 
ATOM     14  H   UNL     1      -3.674   2.206   0.176  0.00  0.00    +0.147 HD
ATOM     15  H   UNL     1      -3.340   5.795  -0.584  0.00  0.00    +0.190 HD
ENDBRANCH   1   2
BRANCH   1  16
ATOM     16  C   UNL     1      -6.085   3.104   0.157  0.00  0.00    +0.070 C 
BRANCH  16  17
ATOM     17  C   UNL     1      -7.379   3.918   0.217  0.00  0.00    +0.220 C 
BRANCH  17  22
ATOM     18  C   UNL     1      -6.101   6.103   4.580  0.00  0.00    +0.086 C 
ATOM     19  C   UNL     1      -6.731   5.877   3.230  0.00  0.00    +0.102 A 
ATOM     20  C   UNL     1      -7.537   6.739   2.583  0.00  0.00    +0.045 A 
ATOM     21  C   UNL     1      -7.890   6.129   1.358  0.00  0.00    +0.048 A 
ATOM     22  C   UNL     1      -7.287   4.927   1.333  0.00  0.00    +0.146 A 
ATOM     23  O   UNL     1      -6.583   4.781   2.468  0.00  0.00    -0.462 OA
ENDBRANCH  17  22
BRANCH  17  24
ATOM     24  C   UNL     1      -8.560   2.979   0.475  0.00  0.00    +0.425 C 
ATOM     25  F   UNL     1      -8.389   2.343   1.710  0.00  0.00    -0.167 F 
ATOM     26  F   UNL     1      -9.748   3.718   0.491  0.00  0.00    -0.167 F 
ATOM     27  F   UNL     1      -8.621   2.018  -0.540  0.00  0.00    -0.167 F 
ENDBRANCH  17  24
BRANCH  17  28
ATOM     28  O   UNL     1      -7.573   4.597  -1.025  0.00  0.00    -0.373 OA
ATOM     29  H   UNL     1      -7.664   4.022  -1.958  0.00  0.00    +0.211 HD
ENDBRANCH  17  28
ENDBRANCH  16  17
ENDBRANCH   1  16
TORSDOF 6
