REMARK  Name = ZINC01023163
REMARK  7 active torsions:
REMARK  status: ('A' for Active; 'I' for Inactive)
REMARK    1  A    between atoms: C_1  and  C_2
REMARK    2  A    between atoms: C_3  and  C_17
REMARK    3  A    between atoms: C_4  and  C_10
REMARK    4  A    between atoms: C_13  and  O_16
REMARK    5  A    between atoms: C_17  and  O_19
REMARK    6  A    between atoms: O_19  and  C_20
REMARK    7  A    between atoms: C_20  and  C_21
REMARK                            x       y       z     vdW  Elec       q    Type
REMARK                         _______ _______ _______ _____ _____    ______ ____
ROOT
ATOM      1  C   UNL     1      -2.485   0.770   0.018  0.00  0.00    +0.061 C 
ATOM      2  C   UNL     1      -1.224   1.594   0.017  0.00  0.00    +0.021 C 
ATOM      3  C   UNL     1      -1.310   2.942   0.030  0.00  0.00    +0.078 C 
ATOM      4  C   UNL     1      -0.018   3.732   0.022  0.00  0.00    +0.143 C 
ATOM      5  N   UNL     1       1.236   2.959   0.006  0.00  0.00    -0.288 N 
ATOM      6  C   UNL     1       1.161   1.614  -0.000  0.00  0.00    +0.304 C 
ATOM      7  O   UNL     1       2.190   0.967  -0.013  0.00  0.00    -0.252 OA
ATOM      8  N   UNL     1      -0.011   0.966   0.007  0.00  0.00    -0.273 N 
ATOM      9  H   UNL     1       2.096   3.408   0.001  0.00  0.00    +0.151 HD
ATOM     10  H   UNL     1       0.002  -0.004   0.002  0.00  0.00    +0.156 HD
ENDROOT
BRANCH   4  11
ATOM     11  C   UNL     1      -0.004   4.613   1.244  0.00  0.00    -0.022 A 
ATOM     12  C   UNL     1       0.481   4.125   2.443  0.00  0.00    +0.009 A 
ATOM     13  C   UNL     1       0.500   4.933   3.563  0.00  0.00    +0.046 A 
ATOM     14  C   UNL     1       0.019   6.232   3.488  0.00  0.00    +0.117 A 
ATOM     15  C   UNL     1      -0.473   6.718   2.285  0.00  0.00    +0.046 A 
ATOM     16  C   UNL     1      -0.483   5.908   1.166  0.00  0.00    +0.009 A 
BRANCH  14  17
ATOM     17  O   UNL     1       0.031   7.027   4.590  0.00  0.00    -0.507 OA
ATOM     18  H   UNL     1      -0.774   6.971   5.123  0.00  0.00    +0.292 HD
ENDBRANCH  14  17
ENDBRANCH   4  11
BRANCH   3  19
ATOM     19  C   UNL     1      -2.566   3.593   0.046  0.00  0.00    +0.339 C 
ATOM     20  O   UNL     1      -3.591   2.938   0.052  0.00  0.00    -0.245 OA
BRANCH  19  21
ATOM     21  O   UNL     1      -2.626   4.941   0.054  0.00  0.00    -0.457 OA
BRANCH  21  22
ATOM     22  C   UNL     1      -3.927   5.533   0.069  0.00  0.00    +0.287 C 
BRANCH  22  23
ATOM     23  C   UNL     1      -3.794   7.057   0.076  0.00  0.00    +0.224 C 
ATOM     24 CL   UNL     1      -2.910   7.590  -1.402  0.00  0.00    -0.080 Cl
ATOM     25 CL   UNL     1      -5.436   7.803   0.096  0.00  0.00    -0.080 Cl
ATOM     26 CL   UNL     1      -2.881   7.574   1.542  0.00  0.00    -0.080 Cl
ENDBRANCH  22  23
ENDBRANCH  21  22
ENDBRANCH  19  21
ENDBRANCH   3  19
TORSDOF 6
