REMARK  Name = ZINC05066183
REMARK  11 active torsions:
REMARK  status: ('A' for Active; 'I' for Inactive)
REMARK    1  A    between atoms: C_1  and  C_2
REMARK    2  A    between atoms: C_2  and  C_3
REMARK    3  A    between atoms: C_3  and  C_4
REMARK    4  A    between atoms: C_4  and  C_5
REMARK    5  A    between atoms: C_8  and  N_11
REMARK    6  A    between atoms: C_12  and  N_31
REMARK    7  A    between atoms: C_13  and  C_24
REMARK    8  A    between atoms: N_26  and  C_27
REMARK    9  A    between atoms: C_27  and  C_28
REMARK   10  A    between atoms: C_28  and  C_29
REMARK   11  A    between atoms: C_28  and  C_30
REMARK                            x       y       z     vdW  Elec       q    Type
REMARK                         _______ _______ _______ _____ _____    ______ ____
ROOT
ATOM      1  N   UNL     1      -4.277  -0.224   0.753  0.00  0.00    -0.280 N 
ATOM      2  C   UNL     1      -3.149   0.439   1.134  0.00  0.00    +0.117 A 
ATOM      3  C   UNL     1      -2.443   0.876   0.018  0.00  0.00    +0.104 A 
ATOM      4  C   UNL     1      -3.205   0.432  -1.160  0.00  0.00    +0.123 A 
ATOM      5  C   UNL     1      -4.375  -0.270  -0.625  0.00  0.00    +0.166 A 
ATOM      6  N   UNL     1      -5.255  -0.787  -1.455  0.00  0.00    -0.225 NA
ATOM      7  C   UNL     1      -5.075  -0.668  -2.777  0.00  0.00    +0.092 A 
ATOM      8  C   UNL     1      -6.012  -1.218  -3.672  0.00  0.00    +0.030 A 
ATOM      9  C   UNL     1      -5.822  -1.092  -5.013  0.00  0.00    +0.002 A 
ATOM     10  C   UNL     1      -4.708  -0.424  -5.519  0.00  0.00    +0.002 A 
ATOM     11  C   UNL     1      -3.781   0.120  -4.686  0.00  0.00    +0.030 A 
ATOM     12  C   UNL     1      -3.943   0.011  -3.292  0.00  0.00    +0.090 A 
ATOM     13  N   UNL     1      -3.038   0.543  -2.463  0.00  0.00    -0.241 NA
ENDROOT
BRANCH   1  17
ATOM     14  C   UNL     1      -7.045  -1.896   3.382  0.00  0.00    -0.047 A 
ATOM     15  C   UNL     1      -5.755  -2.392   3.332  0.00  0.00    +0.005 A 
ATOM     16  C   UNL     1      -4.836  -1.839   2.461  0.00  0.00    +0.026 A 
ATOM     17  C   UNL     1      -5.208  -0.786   1.637  0.00  0.00    +0.050 A 
ATOM     18  C   UNL     1      -6.502  -0.287   1.694  0.00  0.00    +0.026 A 
ATOM     19  C   UNL     1      -7.419  -0.848   2.562  0.00  0.00    +0.005 A 
BRANCH  14  20
ATOM     20  C   UNL     1      -8.046  -2.501   4.333  0.00  0.00    +0.035 C 
BRANCH  20  21
ATOM     21  C   UNL     1      -7.984  -1.765   5.673  0.00  0.00    +0.004 C 
BRANCH  21  23
ATOM     22  C   UNL     1      -8.939  -1.644   7.979  0.00  0.00    +0.004 C 
ATOM     23  C   UNL     1      -9.001  -2.379   6.639  0.00  0.00    -0.003 C 
ENDBRANCH  21  23
ENDBRANCH  20  21
ENDBRANCH  14  20
ENDBRANCH   1  17
BRANCH   3  24
ATOM     24  C   UNL     1      -1.187   1.624   0.017  0.00  0.00    +0.250 C 
ATOM     25  O   UNL     1      -1.204   2.841   0.023  0.00  0.00    -0.270 OA
ATOM     26  N   UNL     1      -0.011   0.966   0.007  0.00  0.00    -0.311 N 
ATOM     27  H   UNL     1       0.002  -0.004   0.002  0.00  0.00    +0.149 HD
BRANCH  26  28
ATOM     28  C   UNL     1       1.248   1.716  -0.001  0.00  0.00    +0.107 C 
BRANCH  28  29
ATOM     29  C   UNL     1       2.424   0.737  -0.017  0.00  0.00    -0.000 C 
ATOM     30  C   UNL     1       3.733   1.517  -0.151  0.00  0.00    +0.009 C 
ATOM     31  C   UNL     1       2.438  -0.065   1.286  0.00  0.00    +0.009 C 
ENDBRANCH  28  29
ENDBRANCH  26  28
ENDBRANCH   3  24
BRANCH   2  32
ATOM     32  N   UNL     1      -2.766   0.648   2.433  0.00  0.00    -0.343 N 
ATOM     33  H   UNL     1      -1.948   1.133   2.626  0.00  0.00    +0.144 HD
ATOM     34  H   UNL     1      -3.313   0.312   3.160  0.00  0.00    +0.144 HD
ENDBRANCH   2  32
TORSDOF 8
