REMARK  Name = ZINC38964779
REMARK  4 active torsions:
REMARK  status: ('A' for Active; 'I' for Inactive)
REMARK    1  A    between atoms: C_1  and  C_2
REMARK    2  A    between atoms: C_8  and  C_14
REMARK    3  A    between atoms: C_10  and  C_13
REMARK    4  A    between atoms: N_15  and  N_16
REMARK                            x       y       z     vdW  Elec       q    Type
REMARK                         _______ _______ _______ _____ _____    ______ ____
ROOT
ATOM      1  C   UNL     1      -1.179  -2.932   3.177  0.00  0.00    +0.117 C 
ATOM      2  N   UNL     1      -1.067  -2.665   4.439  0.00  0.00    -0.159 NA
ENDROOT
BRANCH   1  10
ATOM      3  C   UNL     1      -0.018   1.503   0.010  0.00  0.00    +0.044 C 
ATOM      4  C   UNL     1       0.002  -0.004   0.002  0.00  0.00    -0.050 A 
ATOM      5  C   UNL     1       0.006  -0.691  -1.198  0.00  0.00    +0.005 A 
ATOM      6  C   UNL     1       0.024  -2.069  -1.210  0.00  0.00    +0.023 A 
ATOM      7  C   UNL     1       0.039  -2.783  -0.009  0.00  0.00    +0.031 A 
ATOM      8  C   UNL     1       0.036  -2.085   1.188  0.00  0.00    -0.016 A 
ATOM      9  C   UNL     1       0.023  -0.703   1.194  0.00  0.00    +0.009 A 
ATOM     10  C   UNL     1       0.055  -3.082   2.325  0.00  0.00    +0.084 C 
ATOM     11  C   UNL     1       0.071  -4.455   1.635  0.00  0.00    +0.080 C 
ATOM     12  N   UNL     1       0.059  -4.163   0.199  0.00  0.00    -0.340 N 
ATOM     13  C   UNL     1      -1.171  -5.259   2.025  0.00  0.00    +0.029 C 
ATOM     14  H   UNL     1       0.064  -4.831  -0.504  0.00  0.00    +0.146 HD
ENDBRANCH   1  10
BRANCH   2  15
ATOM     15  N   UNL     1      -2.214  -2.526   5.230  0.00  0.00    -0.124 NA
ATOM     16  C   UNL     1      -2.099  -2.253   6.516  0.00  0.00    +0.193 A 
ATOM     17  N   UNL     1      -0.962  -2.065   7.256  0.00  0.00    -0.332 N 
ATOM     18  H   UNL     1      -0.092  -2.129   6.832  0.00  0.00    +0.168 HD
ATOM     19  C   UNL     1      -1.052  -1.784   8.609  0.00  0.00    +0.055 A 
ATOM     20  C   UNL     1       0.005  -1.566   9.509  0.00  0.00    +0.027 A 
ATOM     21  C   UNL     1      -0.241  -1.296  10.834  0.00  0.00    +0.002 A 
ATOM     22  C   UNL     1      -1.533  -1.230  11.326  0.00  0.00    +0.001 A 
ATOM     23  C   UNL     1      -2.594  -1.441  10.463  0.00  0.00    +0.017 A 
ATOM     24  C   UNL     1      -2.349  -1.711   9.137  0.00  0.00    +0.039 A 
ATOM     25  S   UNL     1      -3.388  -2.028   7.732  0.00  0.00    -0.048 S 
ENDBRANCH   2  15
TORSDOF 2
