REMARK  Name = ZINC07650031
REMARK  10 active torsions:
REMARK  status: ('A' for Active; 'I' for Inactive)
REMARK    1  A    between atoms: C_1  and  C_2
REMARK    2  A    between atoms: C_2  and  C_4
REMARK    3  A    between atoms: C_2  and  O_21
REMARK    4  A    between atoms: N_6  and  N_7
REMARK    5  A    between atoms: N_7  and  C_8
REMARK    6  A    between atoms: C_8  and  N_10
REMARK    7  A    between atoms: C_11  and  C_13
REMARK    8  A    between atoms: C_13  and  C_14
REMARK    9  A    between atoms: C_14  and  C_15
REMARK   10  A    between atoms: O_21  and  C_22
REMARK                            x       y       z     vdW  Elec       q    Type
REMARK                         _______ _______ _______ _____ _____    ______ ____
ROOT
ATOM      1  C   UNL     1       0.626  -0.281  -1.345  0.00  0.00    +0.270 C 
ATOM      2  O   UNL     1      -0.045  -0.752  -2.239  0.00  0.00    -0.270 OA
ATOM      3  N   UNL     1       1.927   0.002  -1.556  0.00  0.00    -0.232 N 
ATOM      4  H   UNL     1       2.463   0.379  -0.841  0.00  0.00    +0.173 HD
ENDROOT
BRANCH   1   6
ATOM      5  C   UNL     1       0.004   1.494   0.270  0.00  0.00    +0.062 C 
ATOM      6  C   UNL     1       0.005  -0.012   0.001  0.00  0.00    +0.257 C 
BRANCH   6   7
ATOM      7  O   UNL     1      -1.339  -0.499   0.012  0.00  0.00    -0.480 OA
BRANCH   7   8
ATOM      8  C   UNL     1      -1.869  -0.818   1.222  0.00  0.00    +0.122 A 
ATOM      9  C   UNL     1      -1.143  -0.550   2.386  0.00  0.00    +0.046 A 
ATOM     10  C   UNL     1      -1.647  -0.857   3.611  0.00  0.00    +0.012 A 
ATOM     11  C   UNL     1      -2.917  -1.453   3.713  0.00  0.00    -0.018 A 
ATOM     12  C   UNL     1      -3.468  -1.783   4.962  0.00  0.00    +0.008 A 
ATOM     13  C   UNL     1      -4.700  -2.359   5.024  0.00  0.00    +0.001 A 
ATOM     14  C   UNL     1      -5.426  -2.627   3.865  0.00  0.00    +0.001 A 
ATOM     15  C   UNL     1      -4.924  -2.321   2.638  0.00  0.00    +0.008 A 
ATOM     16  C   UNL     1      -3.655  -1.725   2.534  0.00  0.00    -0.014 A 
ATOM     17  C   UNL     1      -3.107  -1.391   1.284  0.00  0.00    +0.054 A 
ENDBRANCH   7   8
ENDBRANCH   6   7
ENDBRANCH   1   6
BRANCH   3  18
ATOM     18  N   UNL     1       2.504  -0.249  -2.808  0.00  0.00    -0.245 N 
ATOM     19  H   UNL     1       1.967  -0.625  -3.523  0.00  0.00    +0.172 HD
BRANCH  18  20
ATOM     20  C   UNL     1       3.804   0.034  -3.019  0.00  0.00    +0.153 C 
ATOM     21  S   UNL     1       4.510  -0.272  -4.549  0.00  0.00    -0.017 S 
BRANCH  20  22
ATOM     22  N   UNL     1       4.550   0.558  -2.026  0.00  0.00    -0.267 N 
ATOM     23  C   UNL     1       5.851   0.841  -2.237  0.00  0.00    +0.218 C 
ATOM     24  O   UNL     1       6.350   0.624  -3.320  0.00  0.00    -0.275 OA
ATOM     25  H   UNL     1       4.150   0.731  -1.159  0.00  0.00    +0.157 HD
BRANCH  23  26
ATOM     26  C   UNL     1       6.684   1.426  -1.126  0.00  0.00    +0.096 C 
BRANCH  26  27
ATOM     27  C   UNL     1       8.113   1.650  -1.625  0.00  0.00    +0.013 C 
BRANCH  27  28
ATOM     28  C   UNL     1       8.960   2.245  -0.497  0.00  0.00    -0.011 C 
ATOM     29  C   UNL     1       8.432   3.636  -0.143  0.00  0.00    +0.003 C 
ATOM     30  C   UNL     1       9.278   4.231   0.985  0.00  0.00    +0.000 C 
ATOM     31  C   UNL     1      10.734   4.339   0.527  0.00  0.00    +0.000 C 
ATOM     32  C   UNL     1      11.262   2.947   0.172  0.00  0.00    +0.000 C 
ATOM     33  C   UNL     1      10.415   2.353  -0.955  0.00  0.00    +0.003 C 
ENDBRANCH  27  28
ENDBRANCH  26  27
ENDBRANCH  23  26
ENDBRANCH  20  22
ENDBRANCH  18  20
ENDBRANCH   3  18
TORSDOF 9
