REMARK  Name = ZINC14159797
REMARK  7 active torsions:
REMARK  status: ('A' for Active; 'I' for Inactive)
REMARK    1  A    between atoms: C_1  and  C_2
REMARK    2  A    between atoms: C_7  and  N_8
REMARK    3  A    between atoms: N_8  and  C_9
REMARK    4  A    between atoms: C_9  and  N_11
REMARK    5  A    between atoms: N_13  and  C_14
REMARK    6  A    between atoms: C_16  and  C_21
REMARK    7  A    between atoms: C_18  and  C_20
REMARK                            x       y       z     vdW  Elec       q    Type
REMARK                         _______ _______ _______ _____ _____    ______ ____
ROOT
ATOM      1  N   UNL     1      -0.149  -0.009   4.737  0.00  0.00    -0.269 N 
ATOM      2  C   UNL     1      -0.258  -0.734   5.900  0.00  0.00    +0.192 C 
ATOM      3  N   UNL     1      -0.150  -2.044   5.870  0.00  0.00    -0.181 NA
ATOM      4  N   UNL     1      -0.478  -0.091   7.088  0.00  0.00    -0.300 N 
ATOM      5  C   UNL     1       0.646   0.444   7.869  0.00  0.00    +0.126 C 
ATOM      6  C   UNL     1       0.398   1.936   8.126  0.00  0.00    +0.125 C 
ATOM      7  N   UNL     1      -0.968   2.102   8.643  0.00  0.00    -0.314 N 
ATOM      8  C   UNL     1      -2.092   1.567   7.863  0.00  0.00    +0.125 C 
ATOM      9  C   UNL     1      -1.844   0.080   7.603  0.00  0.00    +0.126 C 
ATOM     10  C   UNL     1      -1.192   2.754   9.850  0.00  0.00    +0.099 A 
ATOM     11  C   UNL     1      -0.133   3.375  10.506  0.00  0.00    +0.042 A 
ATOM     12  C   UNL     1      -0.370   4.020  11.706  0.00  0.00    +0.005 A 
ATOM     13  C   UNL     1      -1.663   4.023  12.213  0.00  0.00    +0.018 A 
ATOM     14  C   UNL     1      -2.666   3.388  11.509  0.00  0.00    +0.084 A 
ATOM     15  N   UNL     1      -2.412   2.784  10.363  0.00  0.00    -0.350 N 
ATOM     16  H   UNL     1      -3.136   2.349   9.887  0.00  0.00    +0.166 HD
ATOM     17  H   UNL     1      -0.148   0.961   4.768  0.00  0.00    +0.156 HD
ENDROOT
BRANCH   3  18
ATOM     18  C   UNL     1      -0.136  -2.752   7.033  0.00  0.00    +0.253 A 
ATOM     19  N   UNL     1      -0.342  -2.117   8.184  0.00  0.00    -0.216 NA
ATOM     20  C   UNL     1      -0.334  -2.777   9.329  0.00  0.00    +0.044 A 
ATOM     21  C   UNL     1      -0.109  -4.146   9.321  0.00  0.00    +0.046 A 
ATOM     22  C   UNL     1       0.102  -4.778   8.105  0.00  0.00    +0.044 A 
ATOM     23  N   UNL     1       0.077  -4.065   6.993  0.00  0.00    -0.216 NA
ATOM     24  C   UNL     1       0.350  -6.264   8.052  0.00  0.00    +0.066 C 
ATOM     25  C   UNL     1      -0.568  -2.051  10.629  0.00  0.00    +0.066 C 
ENDBRANCH   3  18
BRANCH   1  26
ATOM     26  C   UNL     1      -0.043  -0.645   3.554  0.00  0.00    +0.141 C 
ATOM     27  S   UNL     1      -0.045  -2.356   3.499  0.00  0.00    -0.018 S 
BRANCH  26  28
ATOM     28  N   UNL     1       0.063   0.066   2.413  0.00  0.00    -0.296 N 
ATOM     29  H   UNL     1       0.131   1.032   2.449  0.00  0.00    +0.154 HD
BRANCH  28  36
ATOM     30  C   UNL     1      -1.605   1.071   0.339  0.00  0.00    +0.045 C 
ATOM     31  C   UNL     1      -0.723  -0.134   0.139  0.00  0.00    -0.029 A 
ATOM     32  C   UNL     1      -0.704  -0.782  -1.081  0.00  0.00    +0.005 A 
ATOM     33  C   UNL     1       0.106  -1.887  -1.266  0.00  0.00    +0.000 A 
ATOM     34  C   UNL     1       0.898  -2.349  -0.231  0.00  0.00    +0.002 A 
ATOM     35  C   UNL     1       0.884  -1.706   0.991  0.00  0.00    +0.023 A 
ATOM     36  C   UNL     1       0.076  -0.591   1.178  0.00  0.00    +0.036 A 
ENDBRANCH  28  36
ENDBRANCH  26  28
ENDBRANCH   1  26
TORSDOF 4
