REMARK  Name = ZINC39326704
REMARK  13 active torsions:
REMARK  status: ('A' for Active; 'I' for Inactive)
REMARK    1  A    between atoms: C_1  and  C_2
REMARK    2  A    between atoms: C_7  and  C_8
REMARK    3  A    between atoms: C_11  and  O_16
REMARK    4  A    between atoms: C_13  and  O_14
REMARK    5  A    between atoms: O_14  and  C_15
REMARK    6  A    between atoms: O_16  and  C_17
REMARK    7  A    between atoms: C_21  and  C_29
REMARK    8  A    between atoms: C_23  and  C_27
REMARK    9  A    between atoms: C_24  and  N_26
REMARK   10  A    between atoms: C_32  and  O_37
REMARK   11  A    between atoms: C_34  and  O_35
REMARK   12  A    between atoms: O_35  and  C_36
REMARK   13  A    between atoms: O_37  and  C_38
REMARK                            x       y       z     vdW  Elec       q    Type
REMARK                         _______ _______ _______ _____ _____    ______ ____
ROOT
ATOM      1  C   UNL     1       0.222   1.707  -0.806  0.00  0.00    +0.109 C 
ATOM      2  C   UNL     1       0.294   0.203  -0.749  0.00  0.00    +0.213 C 
ATOM      3  O   UNL     1       1.353  -0.360  -0.929  0.00  0.00    -0.276 OA
ATOM      4  N   UNL     1      -0.817  -0.516  -0.497  0.00  0.00    -0.293 N 
ATOM      5  C   UNL     1      -2.120   0.142  -0.280  0.00  0.00    +0.147 C 
ATOM      6  C   UNL     1      -3.063  -0.441  -1.311  0.00  0.00    +0.013 C 
ATOM      7  C   UNL     1      -3.983   0.332  -1.919  0.00  0.00    +0.020 C 
ATOM      8  C   UNL     1      -2.950  -1.877  -1.633  0.00  0.00    +0.136 C 
ATOM      9  C   UNL     1      -1.894  -2.588  -1.237  0.00  0.00    +0.003 C 
ATOM     10  C   UNL     1      -0.775  -1.979  -0.436  0.00  0.00    +0.143 C 
ATOM     11  C   UNL     1      -1.785  -4.053  -1.591  0.00  0.00    +0.099 C 
ATOM     12  C   UNL     1      -3.131  -4.605  -1.965  0.00  0.00    +0.098 C 
ATOM     13  C   UNL     1      -4.142  -3.772  -2.321  0.00  0.00    +0.199 C 
ATOM     14  O   UNL     1      -3.958  -2.442  -2.348  0.00  0.00    -0.441 OA
ENDROOT
BRANCH   7  15
ATOM     15  C   UNL     1      -4.189   1.718  -1.472  0.00  0.00    +0.017 A 
ATOM     16  C   UNL     1      -4.061   2.047  -0.119  0.00  0.00    +0.015 A 
ATOM     17  C   UNL     1      -4.256   3.347   0.293  0.00  0.00    +0.046 A 
ATOM     18  C   UNL     1      -4.579   4.334  -0.630  0.00  0.00    +0.124 A 
ATOM     19  C   UNL     1      -4.708   4.018  -1.975  0.00  0.00    +0.091 A 
ATOM     20  C   UNL     1      -4.510   2.718  -2.404  0.00  0.00    +0.131 A 
BRANCH  20  21
ATOM     21  O   UNL     1      -4.630   2.409  -3.721  0.00  0.00    -0.494 OA
ATOM     22  C   UNL     1      -4.958   3.477  -4.611  0.00  0.00    +0.277 C 
ENDBRANCH  20  21
BRANCH  18  23
ATOM     23  O   UNL     1      -4.769   5.613  -0.215  0.00  0.00    -0.495 OA
ATOM     24  C   UNL     1      -4.621   5.870   1.183  0.00  0.00    +0.277 C 
ENDBRANCH  18  23
ENDBRANCH   7  15
BRANCH  11  25
ATOM     25  C   UNL     1      -0.844  -4.216  -2.756  0.00  0.00    +0.007 A 
ATOM     26  C   UNL     1      -1.119  -3.595  -3.959  0.00  0.00    +0.012 A 
ATOM     27  C   UNL     1      -0.258  -3.742  -5.029  0.00  0.00    +0.046 A 
ATOM     28  C   UNL     1       0.887  -4.515  -4.898  0.00  0.00    +0.124 A 
ATOM     29  C   UNL     1       1.166  -5.140  -3.692  0.00  0.00    +0.091 A 
ATOM     30  C   UNL     1       0.303  -4.986  -2.618  0.00  0.00    +0.128 A 
BRANCH  30  31
ATOM     31  O   UNL     1       0.577  -5.592  -1.433  0.00  0.00    -0.495 OA
ATOM     32  C   UNL     1       1.775  -6.368  -1.363  0.00  0.00    +0.277 C 
ENDBRANCH  30  31
BRANCH  28  33
ATOM     33  O   UNL     1       1.734  -4.660  -5.951  0.00  0.00    -0.495 OA
ATOM     34  C   UNL     1       1.383  -3.989  -7.162  0.00  0.00    +0.277 C 
ENDBRANCH  28  33
ENDBRANCH  11  25
BRANCH  13  35
ATOM     35  N   UNL     1      -5.365  -4.295  -2.657  0.00  0.00    -0.328 N 
ATOM     36  H   UNL     1      -5.504  -5.255  -2.640  0.00  0.00    +0.145 HD
ATOM     37  H   UNL     1      -6.091  -3.705  -2.913  0.00  0.00    +0.145 HD
ENDBRANCH  13  35
BRANCH  12  38
ATOM     38  C   UNL     1      -3.350  -6.020  -1.946  0.00  0.00    +0.101 C 
ATOM     39  N   UNL     1      -3.523  -7.143  -1.931  0.00  0.00    -0.191 NA
ENDBRANCH  12  38
TORSDOF 8
