REMARK  Name = ZINC36528542
REMARK  11 active torsions:
REMARK  status: ('A' for Active; 'I' for Inactive)
REMARK    1  A    between atoms: C_1  and  C_2
REMARK    2  A    between atoms: C_5  and  S_8
REMARK    3  A    between atoms: S_8  and  C_11
REMARK    4  A    between atoms: C_11  and  N_12
REMARK    5  A    between atoms: C_13  and  C_15
REMARK    6  A    between atoms: C_15  and  C_17
REMARK    7  A    between atoms: C_15  and  N_24
REMARK    8  A    between atoms: C_21  and  O_23
REMARK    9  A    between atoms: N_24  and  C_25
REMARK   10  A    between atoms: C_26  and  C_28
REMARK   11  A    between atoms: C_33  and  O_34
REMARK                            x       y       z     vdW  Elec       q    Type
REMARK                         _______ _______ _______ _____ _____    ______ ____
ROOT
ATOM      1  C   UNL     1       3.423  -5.212   3.360  0.00  0.00    +0.192 C 
ENDROOT
BRANCH   1   2
ATOM      2  C   UNL     1       2.316  -4.303   3.829  0.00  0.00    -0.015 A 
ATOM      3  C   UNL     1       2.618  -3.054   4.340  0.00  0.00    +0.006 A 
ATOM      4  C   UNL     1       1.605  -2.219   4.772  0.00  0.00    +0.004 A 
ATOM      5  C   UNL     1       0.288  -2.630   4.694  0.00  0.00    +0.045 A 
ATOM      6  C   UNL     1      -0.017  -3.882   4.182  0.00  0.00    +0.117 A 
ATOM      7  C   UNL     1       1.001  -4.717   3.744  0.00  0.00    +0.051 A 
BRANCH   6   8
ATOM      8  O   UNL     1      -1.312  -4.289   4.104  0.00  0.00    -0.507 OA
ATOM      9  H   UNL     1      -1.746  -4.061   3.271  0.00  0.00    +0.292 HD
ENDBRANCH   6   8
ENDBRANCH   1   2
BRANCH   1  11
ATOM     10  N   UNL     1       2.831  -4.991   0.968  0.00  0.00    -0.294 N 
ATOM     11  C   UNL     1       3.056  -5.801   2.022  0.00  0.00    +0.239 C 
ATOM     12  O   UNL     1       2.964  -7.003   1.893  0.00  0.00    -0.273 OA
ATOM     13  H   UNL     1       2.905  -4.029   1.071  0.00  0.00    +0.150 HD
BRANCH  10  14
ATOM     14  C   UNL     1       2.475  -5.563  -0.332  0.00  0.00    +0.278 C 
BRANCH  14  15
ATOM     15  S   UNL     1       0.669  -5.580  -0.511  0.00  0.00    +0.013 S 
ATOM     16  O   UNL     1       0.066  -6.106   0.663  0.00  0.00    -0.168 OA
ATOM     17  O   UNL     1       0.309  -6.074  -1.794  0.00  0.00    -0.168 OA
BRANCH  15  22
ATOM     18  C   UNL     1      -0.939   0.235  -0.596  0.00  0.00    +0.044 C 
ATOM     19  C   UNL     1      -0.537  -1.218  -0.575  0.00  0.00    -0.050 A 
ATOM     20  C   UNL     1      -0.234  -1.868  -1.756  0.00  0.00    +0.005 A 
ATOM     21  C   UNL     1       0.135  -3.200  -1.737  0.00  0.00    +0.027 A 
ATOM     22  C   UNL     1       0.201  -3.882  -0.536  0.00  0.00    +0.090 A 
ATOM     23  C   UNL     1      -0.101  -3.231   0.646  0.00  0.00    +0.027 A 
ATOM     24  C   UNL     1      -0.466  -1.898   0.627  0.00  0.00    +0.005 A 
ENDBRANCH  15  22
ENDBRANCH  14  15
ENDBRANCH  10  14
ENDBRANCH   1  11
BRANCH   1  25
ATOM     25  N   UNL     1       3.615  -6.291   4.332  0.00  0.00    -0.285 N 
ATOM     26  C   UNL     1       2.524  -7.229   4.610  0.00  0.00    +0.133 C 
ATOM     27  C   UNL     1       4.794  -6.421   4.970  0.00  0.00    +0.251 C 
ATOM     28  O   UNL     1       5.726  -5.695   4.681  0.00  0.00    -0.270 OA
BRANCH  27  29
ATOM     29  C   UNL     1       4.956  -7.445   6.020  0.00  0.00    +0.078 A 
ATOM     30  C   UNL     1       4.510  -8.751   5.803  0.00  0.00    +0.017 A 
ATOM     31  C   UNL     1       4.664  -9.703   6.787  0.00  0.00    +0.001 A 
ATOM     32  C   UNL     1       5.260  -9.371   7.993  0.00  0.00    +0.004 A 
ATOM     33  C   UNL     1       5.704  -8.084   8.222  0.00  0.00    +0.046 A 
ATOM     34  C   UNL     1       5.562  -7.114   7.240  0.00  0.00    +0.129 A 
BRANCH  34  35
ATOM     35  O   UNL     1       6.003  -5.851   7.461  0.00  0.00    -0.506 OA
ATOM     36  H   UNL     1       5.343  -5.267   7.858  0.00  0.00    +0.292 HD
ENDBRANCH  34  35
ENDBRANCH  27  29
ENDBRANCH   1  25
TORSDOF 9
