REMARK  Name = ZINC03238788
REMARK  6 active torsions:
REMARK  status: ('A' for Active; 'I' for Inactive)
REMARK    1  A    between atoms: C_14  and  C_15
REMARK    2  A    between atoms: C_15  and  O_17
REMARK    3  A    between atoms: O_17  and  C_18
REMARK    4  A    between atoms: C_18  and  C_19
REMARK    5  A    between atoms: N_21  and  C_22
REMARK    6  A    between atoms: C_27  and  C_28
REMARK                            x       y       z     vdW  Elec       q    Type
REMARK                         _______ _______ _______ _____ _____    ______ ____
ROOT
ATOM      1  C   UNL     1       4.358   8.298  -0.415  0.00  0.00    +0.341 C 
ATOM      2  O   UNL     1       5.490   7.855  -0.441  0.00  0.00    -0.245 OA
ENDROOT
BRANCH   1  16
ATOM      3  C   UNL     1       3.985  12.125   2.945  0.00  0.00    +0.001 A 
ATOM      4  C   UNL     1       4.198  10.751   3.038  0.00  0.00    +0.001 A 
ATOM      5  C   UNL     1       4.250   9.961   1.932  0.00  0.00    +0.009 A 
ATOM      6  C   UNL     1       4.080  10.534   0.660  0.00  0.00    -0.003 A 
ATOM      7  C   UNL     1       3.861  11.978   0.560  0.00  0.00    -0.017 A 
ATOM      8  C   UNL     1       3.818  12.741   1.746  0.00  0.00    +0.008 A 
ATOM      9  C   UNL     1       3.692  12.580  -0.688  0.00  0.00    +0.017 A 
ATOM     10  C   UNL     1       3.738  11.806  -1.848  0.00  0.00    -0.017 A 
ATOM     11  C   UNL     1       3.571  12.393  -3.120  0.00  0.00    +0.008 A 
ATOM     12  C   UNL     1       3.622  11.612  -4.231  0.00  0.00    +0.001 A 
ATOM     13  C   UNL     1       3.835  10.237  -4.148  0.00  0.00    +0.001 A 
ATOM     14  C   UNL     1       4.003   9.611  -2.952  0.00  0.00    +0.009 A 
ATOM     15  C   UNL     1       3.962  10.361  -1.764  0.00  0.00    -0.003 A 
ATOM     16  C   UNL     1       4.133   9.744  -0.507  0.00  0.00    +0.074 A 
ENDBRANCH   1  16
BRANCH   1  17
ATOM     17  O   UNL     1       3.308   7.458  -0.302  0.00  0.00    -0.452 OA
BRANCH  17  18
ATOM     18  C   UNL     1       3.605   6.040  -0.215  0.00  0.00    +0.328 C 
BRANCH  18  19
ATOM     19  C   UNL     1       2.319   5.264  -0.094  0.00  0.00    +0.255 C 
ATOM     20  O   UNL     1       1.256   5.849  -0.082  0.00  0.00    -0.272 OA
ATOM     21  N   UNL     1       2.349   3.920   0.001  0.00  0.00    -0.282 N 
ATOM     22  H   UNL     1       3.199   3.457   0.072  0.00  0.00    +0.155 HD
BRANCH  21  23
ATOM     23  C   UNL     1       1.159   3.194  -0.003  0.00  0.00    +0.052 A 
ATOM     24  C   UNL     1       0.022   3.722  -0.598  0.00  0.00    +0.044 A 
ATOM     25  C   UNL     1      -1.157   3.001  -0.601  0.00  0.00    +0.043 A 
ATOM     26  C   UNL     1      -1.212   1.745  -0.015  0.00  0.00    +0.021 A 
ATOM     27  C   UNL     1      -0.094   1.208   0.584  0.00  0.00    +0.022 A 
ATOM     28  C   UNL     1       1.105   1.925   0.594  0.00  0.00    +0.073 A 
ATOM     29 CL   UNL     1      -2.575   3.668  -1.347  0.00  0.00    -0.083 Cl
BRANCH  28  30
ATOM     30  C   UNL     1       2.272   1.369   1.211  0.00  0.00    +0.101 C 
ATOM     31  N   UNL     1       3.197   0.928   1.700  0.00  0.00    -0.191 NA
ENDBRANCH  28  30
ENDBRANCH  21  23
ENDBRANCH  18  19
ENDBRANCH  17  18
ENDBRANCH   1  17
TORSDOF 6
