REMARK  Name = ZINC38965749
REMARK  6 active torsions:
REMARK  status: ('A' for Active; 'I' for Inactive)
REMARK    1  A    between atoms: C_1  and  C_2
REMARK    2  A    between atoms: C_2  and  C_3
REMARK    3  A    between atoms: C_2  and  C_4
REMARK    4  A    between atoms: C_7  and  C_10
REMARK    5  A    between atoms: C_10  and  N_12
REMARK    6  A    between atoms: C_16  and  C_19
REMARK                            x       y       z     vdW  Elec       q    Type
REMARK                         _______ _______ _______ _____ _____    ______ ____
ROOT
ATOM      1  C   UNL     1      -5.398  -1.997   0.043  0.00  0.00    +0.270 C 
ATOM      2  O   UNL     1      -6.145  -1.714   0.963  0.00  0.00    -0.268 OA
ENDROOT
BRANCH   1   6
ATOM      3  C   UNL     1      -1.412  -0.526   0.013  0.00  0.00    -0.045 A 
ATOM      4  C   UNL     1      -2.257  -0.202   1.059  0.00  0.00    +0.004 A 
ATOM      5  C   UNL     1      -3.553  -0.676   1.075  0.00  0.00    +0.013 A 
ATOM      6  C   UNL     1      -4.010  -1.484   0.032  0.00  0.00    +0.039 A 
ATOM      7  C   UNL     1      -3.152  -1.807  -1.020  0.00  0.00    +0.013 A 
ATOM      8  C   UNL     1      -1.860  -1.321  -1.026  0.00  0.00    +0.004 A 
BRANCH   3  10
ATOM      9  C   UNL     1      -0.019   1.526   0.010  0.00  0.00    +0.012 C 
ATOM     10  C   UNL     1       0.002  -0.004   0.002  0.00  0.00    +0.013 C 
ATOM     11  C   UNL     1       0.742  -0.511   1.242  0.00  0.00    +0.012 C 
ENDBRANCH   3  10
ENDBRANCH   1   6
BRANCH   1  12
ATOM     12  N   UNL     1      -5.835  -2.774  -0.961  0.00  0.00    -0.149 NA
ATOM     13  C   UNL     1      -7.075  -3.232  -0.952  0.00  0.00    +0.204 C 
ATOM     14  N   UNL     1      -7.711  -4.038  -1.870  0.00  0.00    -0.128 NA
ATOM     15  N   UNL     1      -8.859  -4.411  -1.778  0.00  0.00    -0.163 NA
ATOM     16  C   UNL     1      -9.649  -3.979  -0.601  0.00  0.00    +0.258 C 
ATOM     17  S   UNL     1      -8.367  -2.973   0.263  0.00  0.00    -0.050 S 
BRANCH  16  18
ATOM     18  C   UNL     1     -10.078  -5.155   0.237  0.00  0.00    +0.141 A 
ATOM     19  C   UNL     1     -11.339  -5.437   0.611  0.00  0.00    +0.048 A 
ATOM     20  C   UNL     1     -11.283  -6.621   1.381  0.00  0.00    +0.041 A 
ATOM     21  C   UNL     1      -9.992  -6.992   1.433  0.00  0.00    +0.195 A 
ATOM     22  O   UNL     1      -9.267  -6.104   0.733  0.00  0.00    -0.465 OA
ENDBRANCH  16  18
ENDBRANCH   1  12
TORSDOF 4
