REMARK  Name = ZINC65406459
REMARK  11 active torsions:
REMARK  status: ('A' for Active; 'I' for Inactive)
REMARK    1  A    between atoms: C_1  and  C_2
REMARK    2  A    between atoms: C_2  and  C_25
REMARK    3  A    between atoms: C_4  and  N_10
REMARK    4  A    between atoms: C_6  and  C_8
REMARK    5  A    between atoms: C_6  and  C_9
REMARK    6  A    between atoms: N_10  and  C_11
REMARK    7  A    between atoms: N_10  and  C_12
REMARK    8  A    between atoms: C_12  and  C_13
REMARK    9  A    between atoms: C_16  and  S_18
REMARK   10  A    between atoms: S_18  and  C_19
REMARK   11  A    between atoms: N_23  and  C_24
REMARK                            x       y       z     vdW  Elec       q    Type
REMARK                         _______ _______ _______ _____ _____    ______ ____
ROOT
ATOM      1  N   UNL     1       2.617  -0.820  -2.629  0.00  0.00    -0.295 NA
ATOM      2  C   UNL     1       1.949  -0.187  -3.775  0.00  0.00    +0.105 C 
ENDROOT
BRANCH   1   6
ATOM      3  C   UNL     1      -0.019   1.528   0.010  0.00  0.00    -0.010 C 
ATOM      4  C   UNL     1       0.002  -0.004   0.002  0.00  0.00    -0.072 C 
ATOM      5  C   UNL     1       0.573  -0.505  -1.321  0.00  0.00    +0.006 C 
ATOM      6  C   UNL     1       2.088  -0.301  -1.357  0.00  0.00    +0.054 C 
ATOM      7  C   UNL     1       2.703  -1.086  -0.198  0.00  0.00    +0.006 C 
ATOM      8  C   UNL     1       2.147  -0.590   1.133  0.00  0.00    -0.072 C 
ATOM      9  N   UNL     1       0.697  -0.529   1.164  0.00  0.00    +0.386 N 
ATOM     10  C   UNL     1       2.600  -1.589   2.223  0.00  0.00    -0.010 C 
ATOM     11  C   UNL     1       2.769   0.766   1.481  0.00  0.00    -0.010 C 
ATOM     12  C   UNL     1      -1.468  -0.478   0.079  0.00  0.00    -0.010 C 
ATOM     13  H   UNL     1       0.416   0.021   1.982  0.00  0.00    -0.084 HD
ATOM     14  H   UNL     1       0.341  -1.472   1.351  0.00  0.00    -0.084 HD
ENDBRANCH   1   6
BRANCH   1  15
ATOM     15  C   UNL     1       4.073  -0.643  -2.705  0.00  0.00    +0.158 C 
BRANCH  15  16
ATOM     16  C   UNL     1       4.610  -1.397  -3.895  0.00  0.00    +0.120 A 
ATOM     17  C   UNL     1       4.754  -0.903  -5.137  0.00  0.00    +0.047 A 
ATOM     18  C   UNL     1       5.287  -1.942  -5.934  0.00  0.00    +0.057 A 
ATOM     19  C   UNL     1       5.437  -3.018  -5.125  0.00  0.00    +0.169 A 
ATOM     20  O   UNL     1       5.030  -2.676  -3.890  0.00  0.00    -0.452 OA
BRANCH  19  21
ATOM     21  S   UNL     1       6.065  -4.592  -5.606  0.00  0.00    -0.012 S 
BRANCH  21  22
ATOM     22  C   UNL     1       6.011  -5.544  -4.125  0.00  0.00    +0.199 A 
ATOM     23  N   UNL     1       5.586  -5.137  -2.951  0.00  0.00    -0.122 NA
ATOM     24  N   UNL     1       5.688  -6.091  -2.095  0.00  0.00    -0.137 NA
ATOM     25  C   UNL     1       6.180  -7.154  -2.667  0.00  0.00    +0.225 A 
ATOM     26  N   UNL     1       6.398  -6.845  -3.981  0.00  0.00    -0.311 N 
ATOM     27  C   UNL     1       6.938  -7.727  -5.019  0.00  0.00    +0.152 C 
ENDBRANCH  21  22
ENDBRANCH  19  21
ENDBRANCH  15  16
ENDBRANCH   1  15
TORSDOF 5
