REMARK  Name = ZINC07691613
REMARK  8 active torsions:
REMARK  status: ('A' for Active; 'I' for Inactive)
REMARK    1  A    between atoms: C_1  and  C_2
REMARK    2  A    between atoms: C_2  and  C_4
REMARK    3  A    between atoms: C_2  and  N_42
REMARK    4  A    between atoms: C_13  and  N_42
REMARK    5  A    between atoms: C_14  and  C_15
REMARK    6  A    between atoms: C_14  and  N_42
REMARK    7  A    between atoms: N_20  and  C_21
REMARK    8  A    between atoms: C_21  and  C_22
REMARK                            x       y       z     vdW  Elec       q    Type
REMARK                         _______ _______ _______ _____ _____    ______ ____
ROOT
ATOM      1  C   UNL     1      -2.060  -2.966  -1.002  0.00  0.00    +0.020 C 
ENDROOT
BRANCH   1   2
ATOM      2  C   UNL     1      -1.688  -4.165  -1.836  0.00  0.00    +0.204 C 
ATOM      3  O   UNL     1      -0.597  -4.224  -2.360  0.00  0.00    -0.277 OA
ATOM      4  N   UNL     1      -2.570  -5.172  -2.000  0.00  0.00    -0.242 N 
ATOM      5  C   UNL     1      -2.237  -6.244  -2.745  0.00  0.00    +0.306 C 
ATOM      6  O   UNL     1      -1.143  -6.303  -3.271  0.00  0.00    -0.252 OA
ATOM      7  N   UNL     1      -3.118  -7.250  -2.909  0.00  0.00    -0.291 N 
ATOM      8  H   UNL     1      -3.443  -5.124  -1.580  0.00  0.00    +0.159 HD
ATOM      9  H   UNL     1      -3.992  -7.203  -2.490  0.00  0.00    +0.151 HD
BRANCH   7  10
ATOM     10  C   UNL     1      -2.757  -8.416  -3.720  0.00  0.00    +0.219 C 
BRANCH  10  11
ATOM     11  C   UNL     1      -3.926  -9.403  -3.743  0.00  0.00    +0.405 C 
ATOM     12  F   UNL     1      -5.050  -8.781  -4.296  0.00  0.00    -0.169 F 
ATOM     13  F   UNL     1      -3.580 -10.516  -4.517  0.00  0.00    -0.169 F 
ATOM     14  F   UNL     1      -4.215  -9.815  -2.438  0.00  0.00    -0.169 F 
ENDBRANCH  10  11
ENDBRANCH   7  10
ENDBRANCH   1   2
BRANCH   1  16
ATOM     15  C   UNL     1      -0.699  -1.454  -2.315  0.00  0.00    -0.095 C 
ATOM     16  N   UNL     1      -0.915  -2.033  -0.972  0.00  0.00    +0.389 N 
ATOM     17  H   UNL     1      -0.072  -2.548  -0.691  0.00  0.00    -0.081 HD
BRANCH  16  19
ATOM     18  C   UNL     1      -1.315  -1.574   1.399  0.00  0.00    -0.006 C 
ATOM     19  C   UNL     1      -1.167  -0.955   0.008  0.00  0.00    -0.014 C 
BRANCH  19  20
ATOM     20  C   UNL     1       0.002  -0.004   0.002  0.00  0.00    +0.066 A 
ATOM     21  N   UNL     1      -0.016   1.299   0.009  0.00  0.00    -0.246 NA
ATOM     22  C   UNL     1       1.113   2.039   0.002  0.00  0.00    +0.078 A 
ATOM     23  C   UNL     1       1.255   3.445   0.007  0.00  0.00    +0.029 A 
ATOM     24  C   UNL     1       2.489   4.017  -0.002  0.00  0.00    +0.002 A 
ATOM     25  C   UNL     1       3.647   3.252  -0.017  0.00  0.00    +0.001 A 
ATOM     26  C   UNL     1       3.550   1.873  -0.023  0.00  0.00    +0.017 A 
ATOM     27  C   UNL     1       2.308   1.285  -0.013  0.00  0.00    +0.039 A 
ATOM     28  S   UNL     1       1.697  -0.381  -0.016  0.00  0.00    -0.074 S 
ENDBRANCH  19  20
ENDBRANCH  16  19
ENDBRANCH   1  16
TORSDOF 6
