REMARK  Name = ZINC34952491
REMARK  9 active torsions:
REMARK  status: ('A' for Active; 'I' for Inactive)
REMARK    1  A    between atoms: C_4  and  C_7
REMARK    2  A    between atoms: C_7  and  C_8
REMARK    3  A    between atoms: C_13  and  N_14
REMARK    4  A    between atoms: C_15  and  C_17
REMARK    5  A    between atoms: C_17  and  C_19
REMARK    6  A    between atoms: C_17  and  N_26
REMARK    7  A    between atoms: C_19  and  C_20
REMARK    8  A    between atoms: N_26  and  S_27
REMARK    9  A    between atoms: S_27  and  C_30
REMARK                            x       y       z     vdW  Elec       q    Type
REMARK                         _______ _______ _______ _____ _____    ______ ____
ROOT
ATOM      1  C   UNL     1       1.579  -5.117   1.367  0.00  0.00    +0.167 C 
ENDROOT
BRANCH   1   3
ATOM      2  N   UNL     1       3.030  -3.136   1.073  0.00  0.00    -0.284 N 
ATOM      3  C   UNL     1       2.614  -4.143   1.867  0.00  0.00    +0.236 C 
ATOM      4  O   UNL     1       3.074  -4.265   2.983  0.00  0.00    -0.274 OA
ATOM      5  H   UNL     1       2.605  -2.988   0.214  0.00  0.00    +0.155 HD
BRANCH   2  11
ATOM      6  C   UNL     1       4.206  -1.030   0.953  0.00  0.00    -0.022 A 
ATOM      7  C   UNL     1       5.236  -0.209   1.370  0.00  0.00    +0.006 A 
ATOM      8  C   UNL     1       6.140  -0.657   2.315  0.00  0.00    +0.000 A 
ATOM      9  C   UNL     1       6.017  -1.928   2.846  0.00  0.00    +0.002 A 
ATOM     10  C   UNL     1       4.989  -2.753   2.434  0.00  0.00    +0.023 A 
ATOM     11  C   UNL     1       4.076  -2.304   1.489  0.00  0.00    +0.037 A 
BRANCH   6  12
ATOM     12  C   UNL     1       3.221  -0.540  -0.077  0.00  0.00    +0.072 C 
BRANCH  12  16
ATOM     13  C   UNL     1      -0.208   1.082   1.888  0.00  0.00    +0.000 A 
ATOM     14  C   UNL     1       0.867   1.898   1.587  0.00  0.00    +0.000 A 
ATOM     15  C   UNL     1       1.976   1.373   0.951  0.00  0.00    +0.004 A 
ATOM     16  C   UNL     1       2.012   0.032   0.617  0.00  0.00    -0.043 A 
ATOM     17  C   UNL     1       0.937  -0.784   0.919  0.00  0.00    +0.004 A 
ATOM     18  C   UNL     1      -0.173  -0.259   1.553  0.00  0.00    +0.000 A 
ENDBRANCH  12  16
ENDBRANCH   6  12
ENDBRANCH   2  11
ENDBRANCH   1   3
BRANCH   1  19
ATOM     19  N   UNL     1       1.299  -6.109   2.409  0.00  0.00    -0.178 NA
ATOM     20  H   UNL     1       1.871  -6.886   2.505  0.00  0.00    +0.149 HD
BRANCH  19  21
ATOM     21  S   UNL     1       0.005  -5.904   3.422  0.00  0.00    +0.059 S 
ATOM     22  O   UNL     1      -0.022  -7.035   4.281  0.00  0.00    -0.153 OA
ATOM     23  O   UNL     1       0.083  -4.574   3.916  0.00  0.00    -0.153 OA
BRANCH  21  24
ATOM     24  C   UNL     1      -1.450  -5.988   2.432  0.00  0.00    +0.105 A 
ATOM     25  C   UNL     1      -1.913  -4.857   1.786  0.00  0.00    +0.030 A 
ATOM     26  C   UNL     1      -3.054  -4.922   1.009  0.00  0.00    +0.022 A 
ATOM     27  C   UNL     1      -3.734  -6.120   0.879  0.00  0.00    +0.041 A 
ATOM     28  C   UNL     1      -3.271  -7.252   1.526  0.00  0.00    +0.022 A 
ATOM     29  C   UNL     1      -2.126  -7.186   2.298  0.00  0.00    +0.030 A 
ATOM     30 CL   UNL     1      -5.168  -6.203  -0.096  0.00  0.00    -0.084 Cl
ENDBRANCH  21  24
ENDBRANCH  19  21
ENDBRANCH   1  19
BRANCH   1  31
ATOM     31  C   UNL     1       2.105  -5.825   0.117  0.00  0.00    +0.065 C 
BRANCH  31  32
ATOM     32  C   UNL     1       1.022  -6.700  -0.458  0.00  0.00    -0.045 A 
ATOM     33  C   UNL     1       0.845  -7.985   0.020  0.00  0.00    +0.004 A 
ATOM     34  C   UNL     1      -0.149  -8.788  -0.508  0.00  0.00    +0.000 A 
ATOM     35  C   UNL     1      -0.966  -8.306  -1.513  0.00  0.00    +0.000 A 
ATOM     36  C   UNL     1      -0.790  -7.021  -1.990  0.00  0.00    +0.000 A 
ATOM     37  C   UNL     1       0.201  -6.216  -1.459  0.00  0.00    +0.004 A 
ENDBRANCH  31  32
ENDBRANCH   1  31
TORSDOF 9
