REMARK  Name = ZINC03197204
REMARK  6 active torsions:
REMARK  status: ('A' for Active; 'I' for Inactive)
REMARK    1  A    between atoms: C_2  and  C_3
REMARK    2  A    between atoms: C_3  and  N_4
REMARK    3  A    between atoms: N_4  and  C_5
REMARK    4  A    between atoms: C_5  and  C_7
REMARK    5  A    between atoms: C_8  and  C_25
REMARK    6  A    between atoms: C_13  and  C_19
REMARK                            x       y       z     vdW  Elec       q    Type
REMARK                         _______ _______ _______ _____ _____    ______ ____
ROOT
ATOM      1  C   UNL     1      -4.802   2.873   0.188  0.00  0.00    +0.084 A 
ATOM      2  C   UNL     1      -3.984   3.239  -0.905  0.00  0.00    +0.015 A 
ATOM      3  C   UNL     1      -2.842   2.454  -0.840  0.00  0.00    +0.003 A 
ATOM      4  C   UNL     1      -2.978   1.704   0.294  0.00  0.00    +0.123 A 
ATOM      5  N   UNL     1      -4.157   1.881   0.907  0.00  0.00    -0.298 N 
ATOM      6  C   UNL     1      -4.150   0.993   1.968  0.00  0.00    +0.119 A 
ATOM      7  C   UNL     1      -2.914   0.435   2.072  0.00  0.00    +0.067 A 
ATOM      8  N   UNL     1      -2.127   0.954   1.079  0.00  0.00    -0.325 N 
ATOM      9  C   UNL     1      -0.711   0.945   0.733  0.00  0.00    +0.124 C 
ATOM     10  C   UNL     1      -0.482   0.266  -0.604  0.00  0.00    +0.022 C 
ATOM     11  C   UNL     1      -1.321   0.798  -1.774  0.00  0.00    +0.006 C 
ATOM     12  C   UNL     1      -1.637   2.302  -1.750  0.00  0.00    +0.039 C 
ENDROOT
BRANCH   7  13
ATOM     13  C   UNL     1      -2.493  -0.560   3.083  0.00  0.00    -0.000 A 
ATOM     14  C   UNL     1      -1.331  -1.309   2.887  0.00  0.00    +0.010 A 
ATOM     15  C   UNL     1      -0.941  -2.232   3.836  0.00  0.00    +0.001 A 
ATOM     16  C   UNL     1      -1.704  -2.424   4.974  0.00  0.00    +0.000 A 
ATOM     17  C   UNL     1      -2.860  -1.688   5.171  0.00  0.00    +0.001 A 
ATOM     18  C   UNL     1      -3.258  -0.758   4.232  0.00  0.00    +0.010 A 
ENDBRANCH   7  13
BRANCH   2  19
ATOM     19  C   UNL     1      -4.289   4.267  -1.927  0.00  0.00    -0.015 A 
ATOM     20  C   UNL     1      -3.506   5.417  -2.019  0.00  0.00    +0.008 A 
ATOM     21  C   UNL     1      -3.790   6.368  -2.978  0.00  0.00    +0.001 A 
ATOM     22  C   UNL     1      -4.858   6.188  -3.839  0.00  0.00    +0.000 A 
ATOM     23  C   UNL     1      -5.642   5.052  -3.749  0.00  0.00    +0.001 A 
ATOM     24  C   UNL     1      -5.364   4.091  -2.799  0.00  0.00    +0.008 A 
ENDBRANCH   2  19
BRANCH   1  25
ATOM     25  C   UNL     1      -6.062   3.426   0.494  0.00  0.00    +0.097 C 
ATOM     26  S   UNL     1      -6.724   4.653  -0.500  0.00  0.00    -0.033 S 
BRANCH  25  27
ATOM     27  N   UNL     1      -6.746   2.989   1.570  0.00  0.00    -0.333 N 
ATOM     28  H   UNL     1      -6.371   2.294   2.134  0.00  0.00    +0.147 HD
BRANCH  27  29
ATOM     29  C   UNL     1      -8.055   3.563   1.889  0.00  0.00    +0.129 C 
BRANCH  29  31
ATOM     30  C   UNL     1      -8.963   3.639   4.154  0.00  0.00    +0.005 C 
ATOM     31  C   UNL     1      -8.604   2.906   3.130  0.00  0.00    -0.016 C 
ENDBRANCH  29  31
ENDBRANCH  27  29
ENDBRANCH  25  27
ENDBRANCH   1  25
TORSDOF 6
