REMARK  Name = ZINC10440770
REMARK  11 active torsions:
REMARK  status: ('A' for Active; 'I' for Inactive)
REMARK    1  A    between atoms: C_1  and  O_2
REMARK    2  A    between atoms: O_2  and  C_3
REMARK    3  A    between atoms: C_5  and  C_13
REMARK    4  A    between atoms: C_8  and  O_9
REMARK    5  A    between atoms: O_9  and  C_10
REMARK    6  A    between atoms: C_13  and  N_14
REMARK    7  A    between atoms: C_15  and  C_17
REMARK    8  A    between atoms: C_17  and  C_18
REMARK    9  A    between atoms: C_18  and  N_19
REMARK   10  A    between atoms: N_19  and  S_20
REMARK   11  A    between atoms: S_20  and  C_23
REMARK                            x       y       z     vdW  Elec       q    Type
REMARK                         _______ _______ _______ _____ _____    ______ ____
ROOT
ATOM      1  N   UNL     1      -0.011   0.966   0.007  0.00  0.00    -0.311 N 
ATOM      2  C   UNL     1       1.147   1.655   0.000  0.00  0.00    +0.215 C 
ATOM      3  O   UNL     1       1.130   2.868   0.007  0.00  0.00    -0.276 OA
ATOM      4  H   UNL     1       0.002  -0.004   0.002  0.00  0.00    +0.149 HD
ENDROOT
BRANCH   1   5
ATOM      5  C   UNL     1      -1.290   1.681   0.017  0.00  0.00    +0.139 C 
BRANCH   5   8
ATOM      6  C   UNL     1      -3.975  -0.690   1.217  0.00  0.00    +0.162 A 
ATOM      7  C   UNL     1      -2.934   0.225   1.215  0.00  0.00    +0.054 A 
ATOM      8  C   UNL     1      -2.422   0.686   0.017  0.00  0.00    -0.027 A 
ATOM      9  C   UNL     1      -2.949   0.242  -1.181  0.00  0.00    +0.009 A 
ATOM     10  C   UNL     1      -3.984  -0.675  -1.186  0.00  0.00    +0.050 A 
ATOM     11  C   UNL     1      -4.502  -1.142   0.011  0.00  0.00    +0.168 A 
BRANCH   6  13
ATOM     12  C   UNL     1      -3.889  -0.639   3.593  0.00  0.00    +0.277 C 
ATOM     13  O   UNL     1      -4.480  -1.146   2.395  0.00  0.00    -0.491 OA
ENDBRANCH   6  13
BRANCH  11  14
ATOM     14  O   UNL     1      -5.523  -2.040   0.007  0.00  0.00    -0.431 OA
BRANCH  14  15
ATOM     15  C   UNL     1      -6.014  -2.459  -1.267  0.00  0.00    +0.541 C 
ATOM     16  F   UNL     1      -6.489  -1.348  -1.973  0.00  0.00    -0.166 F 
ATOM     17  F   UNL     1      -4.980  -3.063  -1.990  0.00  0.00    -0.166 F 
ENDBRANCH  14  15
ENDBRANCH  11  14
ENDBRANCH   5   8
ENDBRANCH   1   5
BRANCH   2  18
ATOM     18  C   UNL     1       2.462   0.920  -0.017  0.00  0.00    +0.112 C 
BRANCH  18  19
ATOM     19  C   UNL     1       3.611   1.930  -0.022  0.00  0.00    +0.115 C 
BRANCH  19  20
ATOM     20  N   UNL     1       4.890   1.215  -0.038  0.00  0.00    -0.189 NA
ATOM     21  H   UNL     1       4.919   0.269   0.174  0.00  0.00    +0.148 HD
BRANCH  20  22
ATOM     22  S   UNL     1       6.285   2.022  -0.418  0.00  0.00    +0.058 S 
ATOM     23  O   UNL     1       7.340   1.075  -0.322  0.00  0.00    -0.153 OA
ATOM     24  O   UNL     1       6.021   2.750  -1.609  0.00  0.00    -0.153 OA
BRANCH  22  25
ATOM     25  C   UNL     1       6.560   3.213   0.850  0.00  0.00    +0.105 A 
ATOM     26  C   UNL     1       6.038   4.487   0.726  0.00  0.00    +0.029 A 
ATOM     27  C   UNL     1       6.250   5.421   1.723  0.00  0.00    +0.017 A 
ATOM     28  C   UNL     1       6.992   5.083   2.841  0.00  0.00    +0.018 A 
ATOM     29  C   UNL     1       7.518   3.810   2.962  0.00  0.00    +0.017 A 
ATOM     30  C   UNL     1       7.302   2.875   1.967  0.00  0.00    +0.029 A 
ATOM     31 BR   UNL     1       7.287   6.362   4.202  0.00  0.00    -0.050 Br
ENDBRANCH  22  25
ENDBRANCH  20  22
ENDBRANCH  19  20
ENDBRANCH  18  19
ENDBRANCH   2  18
TORSDOF 10
