REMARK  Name = ZINC66405352
REMARK  4 active torsions:
REMARK  status: ('A' for Active; 'I' for Inactive)
REMARK    1  A    between atoms: C_1  and  N_2
REMARK    2  A    between atoms: C_4  and  C_16
REMARK    3  A    between atoms: C_5  and  C_7
REMARK    4  A    between atoms: C_10  and  N_13
REMARK                            x       y       z     vdW  Elec       q    Type
REMARK                         _______ _______ _______ _____ _____    ______ ____
ROOT
ATOM      1  C   UNL     1      -0.018   1.461   0.010  0.00  0.00    +0.172 C 
ATOM      2  N   UNL     1       0.002  -0.004   0.002  0.00  0.00    -0.273 N 
ATOM      3  C   UNL     1       0.007  -0.771  -1.100  0.00  0.00    +0.116 A 
ATOM      4  C   UNL     1       0.028  -2.093  -0.695  0.00  0.00    +0.021 A 
ATOM      5  C   UNL     1       0.035  -2.075   0.772  0.00  0.00    +0.100 A 
ATOM      6  N   UNL     1       0.024  -0.814   1.140  0.00  0.00    -0.171 NA
ENDROOT
BRANCH   4   7
ATOM      7  C   UNL     1       0.040  -3.278  -1.560  0.00  0.00    +0.019 C 
ATOM      8  C   UNL     1       0.032  -3.133  -2.907  0.00  0.00    +0.005 C 
ATOM      9  C   UNL     1       0.016  -1.829  -3.670  0.00  0.00    +0.074 C 
ATOM     10  C   UNL     1       0.012  -2.199  -5.133  0.00  0.00    -0.032 A 
ATOM     11  C   UNL     1      -0.001  -1.430  -6.278  0.00  0.00    +0.004 A 
ATOM     12  C   UNL     1      -0.001  -2.037  -7.522  0.00  0.00    +0.000 A 
ATOM     13  C   UNL     1       0.010  -3.417  -7.622  0.00  0.00    +0.001 A 
ATOM     14  C   UNL     1       0.023  -4.196  -6.484  0.00  0.00    +0.012 A 
ATOM     15  C   UNL     1       0.024  -3.590  -5.223  0.00  0.00    +0.025 A 
ATOM     16  C   UNL     1       0.042  -4.173  -3.865  0.00  0.00    +0.190 C 
ATOM     17  O   UNL     1       0.059  -5.364  -3.610  0.00  0.00    -0.287 OA
ENDBRANCH   4   7
BRANCH   5  18
ATOM     18  C   UNL     1       0.056  -3.256   1.669  0.00  0.00    +0.003 A 
ATOM     19  C   UNL     1      -0.616  -4.422   1.306  0.00  0.00    +0.012 A 
ATOM     20  C   UNL     1      -0.593  -5.518   2.145  0.00  0.00    +0.033 A 
ATOM     21  C   UNL     1       0.095  -5.460   3.344  0.00  0.00    +0.126 A 
ATOM     22  C   UNL     1       0.764  -4.306   3.709  0.00  0.00    +0.033 A 
ATOM     23  C   UNL     1       0.753  -3.206   2.875  0.00  0.00    +0.012 A 
BRANCH  21  24
ATOM     24  N   UNL     1       0.116  -6.639   4.239  0.00  0.00    +0.056 N 
ATOM     25  O   UNL     1      -0.468  -7.649   3.922  0.00  0.00    -0.126 OA
ATOM     26  O   UNL     1       0.717  -6.591   5.287  0.00  0.00    -0.126 OA
ENDBRANCH  21  24
ENDBRANCH   5  18
TORSDOF 3
