REMARK  Name = ZINC39355223
REMARK  10 active torsions:
REMARK  status: ('A' for Active; 'I' for Inactive)
REMARK    1  A    between atoms: C_1  and  O_2
REMARK    2  A    between atoms: O_2  and  C_3
REMARK    3  A    between atoms: C_3  and  C_4
REMARK    4  A    between atoms: C_4  and  N_5
REMARK    5  A    between atoms: N_5  and  C_6
REMARK    6  A    between atoms: N_5  and  C_23
REMARK    7  A    between atoms: C_6  and  C_7
REMARK    8  A    between atoms: N_12  and  C_14
REMARK    9  A    between atoms: C_23  and  C_24
REMARK   10  A    between atoms: C_29  and  C_30
REMARK                            x       y       z     vdW  Elec       q    Type
REMARK                         _______ _______ _______ _____ _____    ______ ____
ROOT
ATOM      1  N   UNL     1      -1.140  -2.951  -0.887  0.00  0.00    +0.382 N 
ATOM      2  H   UNL     1      -1.783  -2.842  -0.117  0.00  0.00    -0.082 HD
ENDROOT
BRANCH   1   3
ATOM      3  C   UNL     1       0.059  -2.139  -0.641  0.00  0.00    -0.050 C 
BRANCH   3   4
ATOM      4  C   UNL     1       1.127  -2.478  -1.683  0.00  0.00    +0.141 C 
BRANCH   4   6
ATOM      5  C   UNL     1       1.581  -2.383  -4.034  0.00  0.00    +0.193 C 
ATOM      6  O   UNL     1       0.703  -2.020  -2.968  0.00  0.00    -0.385 OA
ENDBRANCH   4   6
ENDBRANCH   3   4
ENDBRANCH   1   3
BRANCH   1   7
ATOM      7  C   UNL     1      -1.784  -2.510  -2.131  0.00  0.00    -0.077 C 
BRANCH   7   8
ATOM      8  C   UNL     1      -2.259  -1.064  -1.974  0.00  0.00    -0.044 C 
ATOM      9  C   UNL     1      -3.336  -0.995  -0.887  0.00  0.00    -0.002 C 
ATOM     10  C   UNL     1      -3.860   0.441  -0.793  0.00  0.00    -0.018 C 
ATOM     11  C   UNL     1      -4.388   0.877  -2.161  0.00  0.00    -0.078 C 
ATOM     12  N   UNL     1      -3.305   0.814  -3.150  0.00  0.00    +0.382 N 
ATOM     13  C   UNL     1      -2.845  -0.572  -3.299  0.00  0.00    -0.077 C 
ATOM     14  H   UNL     1      -2.536   1.390  -2.843  0.00  0.00    -0.081 HD
BRANCH  12  15
ATOM     15  C   UNL     1      -3.796   1.307  -4.444  0.00  0.00    -0.060 C 
ATOM     16  C   UNL     1      -2.641   1.420  -5.462  0.00  0.00    +0.020 C 
ATOM     17  C   UNL     1      -2.967   2.640  -6.296  0.00  0.00    -0.046 A 
ATOM     18  C   UNL     1      -2.479   3.041  -7.529  0.00  0.00    +0.004 A 
ATOM     19  C   UNL     1      -2.930   4.211  -8.108  0.00  0.00    +0.000 A 
ATOM     20  C   UNL     1      -3.871   4.986  -7.456  0.00  0.00    +0.000 A 
ATOM     21  C   UNL     1      -4.359   4.588  -6.227  0.00  0.00    +0.004 A 
ATOM     22  C   UNL     1      -3.908   3.415  -5.644  0.00  0.00    -0.046 A 
ATOM     23  C   UNL     1      -4.279   2.768  -4.327  0.00  0.00    +0.020 C 
ENDBRANCH  12  15
ENDBRANCH   7   8
ENDBRANCH   1   7
BRANCH   1  24
ATOM     24  C   UNL     1      -0.757  -4.365  -1.008  0.00  0.00    -0.063 C 
BRANCH  24  25
ATOM     25  C   UNL     1      -0.266  -4.878   0.347  0.00  0.00    +0.066 C 
ATOM     26  C   UNL     1       1.184  -4.497   0.569  0.00  0.00    +0.115 C 
ATOM     27  N   UNL     1       1.835  -5.609   0.680  0.00  0.00    -0.161 NA
ATOM     28  N   UNL     1       1.009  -6.723   0.562  0.00  0.00    -0.153 NA
ATOM     29  C   UNL     1      -0.241  -6.394   0.367  0.00  0.00    +0.077 C 
BRANCH  29  30
ATOM     30  C   UNL     1      -1.387  -7.303   0.200  0.00  0.00    -0.001 A 
ATOM     31  C   UNL     1      -2.670  -6.786  -0.009  0.00  0.00    +0.010 A 
ATOM     32  C   UNL     1      -3.738  -7.644  -0.164  0.00  0.00    +0.001 A 
ATOM     33  C   UNL     1      -3.543  -9.013  -0.114  0.00  0.00    +0.000 A 
ATOM     34  C   UNL     1      -2.277  -9.532   0.093  0.00  0.00    +0.001 A 
ATOM     35  C   UNL     1      -1.198  -8.688   0.243  0.00  0.00    +0.010 A 
ENDBRANCH  29  30
ENDBRANCH  24  25
ENDBRANCH   1  24
TORSDOF 9
