REMARK  Name = ZINC21024729
REMARK  10 active torsions:
REMARK  status: ('A' for Active; 'I' for Inactive)
REMARK    1  A    between atoms: C_1  and  C_2
REMARK    2  A    between atoms: C_3  and  C_18
REMARK    3  A    between atoms: C_4  and  C_15
REMARK    4  A    between atoms: C_5  and  C_14
REMARK    5  A    between atoms: N_6  and  C_7
REMARK    6  A    between atoms: C_18  and  N_19
REMARK    7  A    between atoms: N_19  and  C_20
REMARK    8  A    between atoms: C_20  and  C_21
REMARK    9  A    between atoms: C_21  and  C_22
REMARK   10  A    between atoms: C_22  and  C_23
REMARK                            x       y       z     vdW  Elec       q    Type
REMARK                         _______ _______ _______ _____ _____    ______ ____
ROOT
ATOM      1  C   UNL     1       1.385   6.442   1.565  0.00  0.00    +0.064 C 
ATOM      2  C   UNL     1       1.329   5.197   0.717  0.00  0.00    +0.023 A 
ATOM      3  C   UNL     1       1.278   3.937   1.183  0.00  0.00    -0.029 A 
ATOM      4  C   UNL     1       1.238   3.061   0.007  0.00  0.00    +0.085 A 
ATOM      5  C   UNL     1       1.260   3.896  -1.090  0.00  0.00    +0.035 A 
ATOM      6  N   UNL     1       1.314   5.169  -0.649  0.00  0.00    -0.317 N 
ATOM      7  C   UNL     1       1.228   3.461  -2.533  0.00  0.00    +0.065 C 
ENDROOT
BRANCH   6   8
ATOM      8  C   UNL     1       1.349   6.302  -1.474  0.00  0.00    +0.047 A 
ATOM      9  C   UNL     1       2.469   7.123  -1.480  0.00  0.00    +0.027 A 
ATOM     10  C   UNL     1       2.504   8.235  -2.297  0.00  0.00    +0.022 A 
ATOM     11  C   UNL     1       1.420   8.538  -3.102  0.00  0.00    +0.041 A 
ATOM     12  C   UNL     1       0.301   7.724  -3.095  0.00  0.00    +0.022 A 
ATOM     13  C   UNL     1       0.263   6.608  -2.283  0.00  0.00    +0.027 A 
ATOM     14 CL   UNL     1       1.464   9.941  -4.123  0.00  0.00    -0.084 Cl
ENDBRANCH   6   8
BRANCH   4  15
ATOM     15  C   UNL     1       1.181   1.591  -0.001  0.00  0.00    +0.388 C 
ATOM     16  O   UNL     1       2.210   0.943  -0.014  0.00  0.00    -0.241 OA
ATOM     17  O   UNL     1      -0.011   0.963   0.007  0.00  0.00    -0.241 OA
ENDBRANCH   4  15
BRANCH   3  18
ATOM     18  C   UNL     1       1.268   3.509   2.628  0.00  0.00    -0.044 C 
BRANCH  18  19
ATOM     19  N   UNL     1       2.649   3.317   3.091  0.00  0.00    +0.382 N 
ATOM     20  H   UNL     1       3.135   2.541   2.482  0.00  0.00    -0.085 HD
ATOM     21  H   UNL     1       3.204   4.262   2.992  0.00  0.00    -0.085 HD
BRANCH  19  22
ATOM     22  C   UNL     1       2.679   2.899   4.499  0.00  0.00    -0.082 C 
BRANCH  22  23
ATOM     23  C   UNL     1       4.130   2.709   4.944  0.00  0.00    -0.014 C 
BRANCH  23  24
ATOM     24  C   UNL     1       4.161   2.273   6.411  0.00  0.00    +0.033 C 
BRANCH  24  25
ATOM     25  C   UNL     1       5.590   2.086   6.849  0.00  0.00    -0.047 A 
ATOM     26  C   UNL     1       6.199   0.852   6.716  0.00  0.00    +0.003 A 
ATOM     27  C   UNL     1       7.512   0.682   7.114  0.00  0.00    +0.000 A 
ATOM     28  C   UNL     1       8.213   1.744   7.654  0.00  0.00    +0.000 A 
ATOM     29  C   UNL     1       7.603   2.976   7.793  0.00  0.00    +0.000 A 
ATOM     30  C   UNL     1       6.292   3.148   7.390  0.00  0.00    +0.003 A 
ENDBRANCH  24  25
ENDBRANCH  23  24
ENDBRANCH  22  23
ENDBRANCH  19  22
ENDBRANCH  18  19
ENDBRANCH   3  18
TORSDOF 8
