REMARK  Name = ZINC50361667
REMARK  8 active torsions:
REMARK  status: ('A' for Active; 'I' for Inactive)
REMARK    1  A    between atoms: C_1  and  C_2
REMARK    2  A    between atoms: C_2  and  N_3
REMARK    3  A    between atoms: N_3  and  C_4
REMARK    4  A    between atoms: N_3  and  C_11
REMARK    5  A    between atoms: C_9  and  C_10
REMARK    6  A    between atoms: C_11  and  C_13
REMARK    7  A    between atoms: C_11  and  C_15
REMARK    8  A    between atoms: C_13  and  N_14
REMARK                            x       y       z     vdW  Elec       q    Type
REMARK                         _______ _______ _______ _____ _____    ______ ____
ROOT
ATOM      1  C   UNL     1      -0.267  -0.623  -2.444  0.00  0.00    +0.122 C 
ENDROOT
BRANCH   1   2
ATOM      2  C   UNL     1      -0.769   0.733  -2.871  0.00  0.00    +0.126 A 
ATOM      3  C   UNL     1      -0.800   1.198  -4.133  0.00  0.00    +0.063 A 
ATOM      4  C   UNL     1      -1.343   2.502  -4.076  0.00  0.00    +0.070 A 
ATOM      5  C   UNL     1      -1.613   2.756  -2.781  0.00  0.00    +0.184 A 
ATOM      6  O   UNL     1      -1.267   1.678  -2.057  0.00  0.00    -0.450 OA
ATOM      7 BR   UNL     1      -2.357   4.355  -2.099  0.00  0.00    -0.007 Br
ATOM      8 BR   UNL     1      -1.635   3.667  -5.537  0.00  0.00    -0.046 Br
ENDBRANCH   1   2
BRANCH   1   9
ATOM      9  N   UNL     1       0.768  -0.459  -1.421  0.00  0.00    -0.322 N 
BRANCH   9  10
ATOM     10  C   UNL     1       2.038  -1.007  -1.618  0.00  0.00    +0.033 A 
ATOM     11  C   UNL     1       2.310  -2.303  -1.196  0.00  0.00    +0.023 A 
ATOM     12  C   UNL     1       3.566  -2.841  -1.393  0.00  0.00    +0.002 A 
ATOM     13  C   UNL     1       4.553  -2.093  -2.009  0.00  0.00    +0.000 A 
ATOM     14  C   UNL     1       4.285  -0.803  -2.430  0.00  0.00    +0.005 A 
ATOM     15  C   UNL     1       3.029  -0.261  -2.242  0.00  0.00    -0.029 A 
ATOM     16  C   UNL     1       2.736   1.143  -2.707  0.00  0.00    +0.045 C 
ENDBRANCH   9  10
BRANCH   9  18
ATOM     17  C   UNL     1       0.961   1.722  -0.331  0.00  0.00    +0.024 C 
ATOM     18  C   UNL     1       0.472   0.279  -0.190  0.00  0.00    +0.102 C 
ENDBRANCH   9  18
ENDBRANCH   1   9
BRANCH   1  19
ATOM     19  C   UNL     1      -1.427  -1.439  -1.870  0.00  0.00    -0.056 C 
BRANCH  19  20
ATOM     20  N   UNL     1      -0.917  -2.712  -1.345  0.00  0.00    +0.380 N 
ATOM     21  H   UNL     1      -0.242  -2.530  -0.617  0.00  0.00    -0.090 HD
ATOM     22  H   UNL     1      -1.682  -3.250  -0.966  0.00  0.00    -0.090 HD
ATOM     23  H   UNL     1      -0.477  -3.231  -2.090  0.00  0.00    -0.090 HD
ENDBRANCH  19  20
ENDBRANCH   1  19
TORSDOF 6
