REMARK  Name = ZINC06473341
REMARK  8 active torsions:
REMARK  status: ('A' for Active; 'I' for Inactive)
REMARK    1  A    between atoms: C_1  and  C_2
REMARK    2  A    between atoms: C_3  and  N_9
REMARK    3  A    between atoms: N_9  and  C_10
REMARK    4  A    between atoms: C_10  and  N_12
REMARK    5  A    between atoms: N_12  and  C_13
REMARK    6  A    between atoms: N_12  and  C_21
REMARK    7  A    between atoms: C_13  and  C_14
REMARK    8  A    between atoms: C_21  and  C_22
REMARK                            x       y       z     vdW  Elec       q    Type
REMARK                         _______ _______ _______ _____ _____    ______ ____
ROOT
ATOM      1  N   UNL     1       0.181   0.030  -4.739  0.00  0.00    -0.301 N 
ENDROOT
BRANCH   1   2
ATOM      2  C   UNL     1       0.095  -0.653  -3.581  0.00  0.00    +0.138 C 
ATOM      3  S   UNL     1       0.120  -2.365  -3.593  0.00  0.00    -0.018 S 
BRANCH   2   4
ATOM      4  N   UNL     1      -0.010   0.011  -2.413  0.00  0.00    -0.296 N 
ATOM      5  H   UNL     1      -0.104   0.976  -2.411  0.00  0.00    +0.154 HD
BRANCH   4   8
ATOM      6  C   UNL     1      -1.912   0.707  -0.414  0.00  0.00    +0.047 C 
ATOM      7  C   UNL     1      -0.895  -0.385  -0.201  0.00  0.00    -0.011 A 
ATOM      8  C   UNL     1       0.015  -0.692  -1.204  0.00  0.00    +0.037 A 
ATOM      9  C   UNL     1       0.952  -1.698  -1.004  0.00  0.00    +0.023 A 
ATOM     10  C   UNL     1       0.975  -2.391   0.191  0.00  0.00    +0.003 A 
ATOM     11  C   UNL     1       0.067  -2.084   1.188  0.00  0.00    +0.020 A 
ATOM     12  C   UNL     1      -0.864  -1.078   0.994  0.00  0.00    +0.046 A 
ATOM     13 CL   UNL     1      -1.997  -0.691   2.251  0.00  0.00    -0.083 Cl
ENDBRANCH   4   8
ENDBRANCH   2   4
ENDBRANCH   1   2
BRANCH   1  14
ATOM     14  C   UNL     1       0.295  -0.692  -6.009  0.00  0.00    +0.142 C 
BRANCH  14  15
ATOM     15  C   UNL     1      -1.081  -0.960  -6.561  0.00  0.00    -0.029 A 
ATOM     16  C   UNL     1      -1.749  -2.121  -6.220  0.00  0.00    +0.005 A 
ATOM     17  C   UNL     1      -3.012  -2.367  -6.726  0.00  0.00    +0.002 A 
ATOM     18  C   UNL     1      -3.607  -1.451  -7.573  0.00  0.00    +0.020 A 
ATOM     19  C   UNL     1      -2.940  -0.289  -7.915  0.00  0.00    +0.041 A 
ATOM     20  C   UNL     1      -1.678  -0.041  -7.403  0.00  0.00    +0.025 A 
ATOM     21 CL   UNL     1      -3.687   0.861  -8.979  0.00  0.00    -0.084 Cl
ENDBRANCH  14  15
ENDBRANCH   1  14
BRANCH   1  22
ATOM     22  C   UNL     1       0.160   1.495  -4.729  0.00  0.00    +0.181 C 
BRANCH  22  23
ATOM     23  C   UNL     1       1.569   2.017  -4.609  0.00  0.00    +0.122 A 
ATOM     24  C   UNL     1       2.392   2.303  -5.634  0.00  0.00    +0.046 A 
ATOM     25  C   UNL     1       3.605   2.760  -5.070  0.00  0.00    +0.041 A 
ATOM     26  C   UNL     1       3.450   2.726  -3.734  0.00  0.00    +0.195 A 
ATOM     27  O   UNL     1       2.213   2.280  -3.461  0.00  0.00    -0.466 OA
ENDBRANCH  22  23
ENDBRANCH   1  22
TORSDOF 7
