REMARK  Name = ZINC04176558
REMARK  4 active torsions:
REMARK  status: ('A' for Active; 'I' for Inactive)
REMARK    1  A    between atoms: C_4  and  C_7
REMARK    2  A    between atoms: N_12  and  N_13
REMARK    3  A    between atoms: C_14  and  C_15
REMARK    4  A    between atoms: C_20  and  O_21
REMARK                            x       y       z     vdW  Elec       q    Type
REMARK                         _______ _______ _______ _____ _____    ______ ____
ROOT
ATOM      1  C   UNL     1       3.698  -0.688  -0.038  0.00  0.00    +0.080 A 
ATOM      2  C   UNL     1       3.727  -2.055  -0.051  0.00  0.00    +0.077 A 
ATOM      3  S   UNL     1       5.490  -2.349  -0.068  0.00  0.00    -0.059 S 
ATOM      4  C   UNL     1       6.003  -0.637  -0.057  0.00  0.00    +0.178 A 
ATOM      5  N   UNL     1       4.838  -0.014  -0.047  0.00  0.00    -0.224 NA
ATOM      6  N   UNL     1       7.282  -0.106  -0.062  0.00  0.00    -0.215 N 
ATOM      7  H   UNL     1       7.407   0.856  -0.054  0.00  0.00    +0.176 HD
ENDROOT
BRANCH   1  11
ATOM      8  C   UNL     1      -0.017   1.379   0.010  0.00  0.00    +0.000 A 
ATOM      9  C   UNL     1       1.169   2.092   0.002  0.00  0.00    +0.001 A 
ATOM     10  C   UNL     1       2.377   1.427  -0.013  0.00  0.00    +0.010 A 
ATOM     11  C   UNL     1       2.402   0.033  -0.021  0.00  0.00    +0.001 A 
ATOM     12  C   UNL     1       1.205  -0.680  -0.013  0.00  0.00    +0.010 A 
ATOM     13  C   UNL     1       0.002  -0.004   0.002  0.00  0.00    +0.001 A 
ENDBRANCH   1  11
BRANCH   6  14
ATOM     14  N   UNL     1       8.394  -0.957  -0.078  0.00  0.00    -0.188 NA
ATOM     15  C   UNL     1       9.593  -0.458  -0.083  0.00  0.00    +0.141 C 
BRANCH  15  16
ATOM     16  C   UNL     1      10.764  -1.353  -0.101  0.00  0.00    +0.036 A 
ATOM     17  C   UNL     1      12.055  -0.821  -0.100  0.00  0.00    +0.013 A 
ATOM     18  C   UNL     1      13.146  -1.665  -0.116  0.00  0.00    +0.001 A 
ATOM     19  C   UNL     1      12.967  -3.037  -0.133  0.00  0.00    +0.004 A 
ATOM     20  C   UNL     1      11.694  -3.576  -0.134  0.00  0.00    +0.046 A 
ATOM     21  C   UNL     1      10.587  -2.744  -0.112  0.00  0.00    +0.125 A 
BRANCH  21  22
ATOM     22  O   UNL     1       9.336  -3.272  -0.107  0.00  0.00    -0.506 OA
ATOM     23  H   UNL     1       8.967  -3.417  -0.989  0.00  0.00    +0.292 HD
ENDBRANCH  21  22
ENDBRANCH  15  16
ENDBRANCH   6  14
TORSDOF 4
