REMARK  Name = ZINC28120972
REMARK  8 active torsions:
REMARK  status: ('A' for Active; 'I' for Inactive)
REMARK    1  A    between atoms: C_1  and  C_2
REMARK    2  A    between atoms: C_2  and  C_3
REMARK    3  A    between atoms: C_8  and  C_27
REMARK    4  A    between atoms: C_9  and  C_23
REMARK    5  A    between atoms: C_12  and  C_15
REMARK    6  A    between atoms: C_13  and  O_14
REMARK    7  A    between atoms: C_15  and  N_16
REMARK    8  A    between atoms: N_19  and  C_22
REMARK                            x       y       z     vdW  Elec       q    Type
REMARK                         _______ _______ _______ _____ _____    ______ ____
ROOT
ATOM      1  C   UNL     1      -0.332   3.167   5.906  0.00  0.00    -0.005 A 
ATOM      2  C   UNL     1      -1.667   2.944   6.086  0.00  0.00    +0.022 A 
ATOM      3  C   UNL     1      -2.265   1.819   5.517  0.00  0.00    +0.065 A 
ATOM      4  C   UNL     1      -3.703   1.547   5.691  0.00  0.00    +0.203 A 
ATOM      5  O   UNL     1      -4.421   2.291   6.336  0.00  0.00    -0.286 OA
ATOM      6  C   UNL     1      -4.231   0.330   5.046  0.00  0.00    +0.101 A 
ATOM      7  C   UNL     1      -3.374  -0.459   4.340  0.00  0.00    +0.221 A 
ATOM      8  O   UNL     1      -2.078  -0.172   4.209  0.00  0.00    -0.449 OA
ATOM      9  C   UNL     1      -1.500   0.914   4.759  0.00  0.00    +0.147 A 
ATOM     10  C   UNL     1      -0.144   1.155   4.586  0.00  0.00    +0.051 A 
ATOM     11  C   UNL     1       0.436   2.274   5.162  0.00  0.00    +0.128 A 
ENDROOT
BRANCH   6  12
ATOM     12  C   UNL     1      -5.659  -0.025   5.164  0.00  0.00    +0.117 A 
ATOM     13  N   UNL     1      -6.497  -0.400   4.221  0.00  0.00    -0.239 NA
ATOM     14  C   UNL     1      -7.786  -0.701   4.476  0.00  0.00    +0.079 A 
ATOM     15  C   UNL     1      -8.783  -1.117   3.562  0.00  0.00    +0.029 A 
ATOM     16  C   UNL     1     -10.050  -1.378   3.983  0.00  0.00    +0.002 A 
ATOM     17  C   UNL     1     -10.415  -1.248   5.316  0.00  0.00    +0.001 A 
ATOM     18  C   UNL     1      -9.471  -0.843   6.241  0.00  0.00    +0.017 A 
ATOM     19  C   UNL     1      -8.190  -0.577   5.826  0.00  0.00    +0.040 A 
ATOM     20  S   UNL     1      -6.692  -0.049   6.622  0.00  0.00    -0.067 S 
ENDBRANCH   6  12
BRANCH   7  21
ATOM     21  C   UNL     1      -3.912  -1.703   3.681  0.00  0.00    +0.451 C 
ATOM     22  F   UNL     1      -4.804  -1.344   2.665  0.00  0.00    -0.163 F 
ATOM     23  F   UNL     1      -2.853  -2.435   3.133  0.00  0.00    -0.163 F 
ATOM     24  F   UNL     1      -4.577  -2.485   4.631  0.00  0.00    -0.163 F 
ENDBRANCH   7  21
BRANCH   1  26
ATOM     25  C   UNL     1       0.358   5.512   5.489  0.00  0.00    +0.009 C 
ATOM     26  C   UNL     1       0.315   4.382   6.519  0.00  0.00    +0.035 C 
ENDBRANCH   1  26
BRANCH  11  27
ATOM     27  O   UNL     1       1.763   2.504   4.995  0.00  0.00    -0.506 OA
ATOM     28  H   UNL     1       2.374   1.802   4.409  0.00  0.00    +0.292 HD
ENDBRANCH  11  27
BRANCH  10  29
ATOM     29  C   UNL     1       0.696   0.200   3.779  0.00  0.00    +0.126 C 
BRANCH  29  30
ATOM     30  N   UNL     1       0.693   0.616   2.370  0.00  0.00    -0.301 NA
ATOM     31  C   UNL     1       1.684  -0.143   1.594  0.00  0.00    +0.066 C 
ATOM     32  C   UNL     1       1.595   0.262   0.121  0.00  0.00    -0.064 C 
ATOM     33  N   UNL     1       1.830   1.707  -0.002  0.00  0.00    +0.379 N 
ATOM     34  C   UNL     1       0.839   2.466   0.773  0.00  0.00    -0.064 C 
ATOM     35  C   UNL     1       0.928   2.061   2.246  0.00  0.00    +0.066 C 
ATOM     36  C   UNL     1       1.828   2.123  -1.411  0.00  0.00    -0.096 C 
ATOM     37  H   UNL     1       2.825   1.926   0.412  0.00  0.00    -0.082 HD
ENDBRANCH  29  30
ENDBRANCH  10  29
TORSDOF 6
