REMARK  Name = ZINC39459774
REMARK  6 active torsions:
REMARK  status: ('A' for Active; 'I' for Inactive)
REMARK    1  A    between atoms: C_1  and  C_2
REMARK    2  A    between atoms: C_2  and  C_3
REMARK    3  A    between atoms: C_2  and  S_4
REMARK    4  A    between atoms: S_4  and  C_7
REMARK    5  A    between atoms: C_14  and  C_16
REMARK    6  A    between atoms: C_21  and  O_22
REMARK                            x       y       z     vdW  Elec       q    Type
REMARK                         _______ _______ _______ _____ _____    ______ ____
ROOT
ATOM      1  C   UNL     1       2.413   0.219  -1.381  0.00  0.00    +0.183 A 
ATOM      2  C   UNL     1       2.700   1.469  -1.805  0.00  0.00    +0.159 A 
ATOM      3  N   UNL     1       3.986   1.722  -1.549  0.00  0.00    -0.234 NA
ATOM      4  C   UNL     1       4.532   0.661  -0.969  0.00  0.00    +0.141 A 
ATOM      5  N   UNL     1       3.562  -0.301  -0.846  0.00  0.00    -0.268 N 
ATOM      6  C   UNL     1       3.845  -1.509  -0.273  0.00  0.00    +0.117 A 
ATOM      7  C   UNL     1       5.082  -1.784   0.188  0.00  0.00    +0.047 A 
ATOM      8  C   UNL     1       6.110  -0.817   0.083  0.00  0.00    -0.008 A 
ATOM      9  C   UNL     1       5.833   0.405  -0.503  0.00  0.00    +0.055 A 
ATOM     10 CL   UNL     1       2.595  -2.706  -0.136  0.00  0.00    -0.063 Cl
ENDROOT
BRANCH   8  11
ATOM     11  C   UNL     1       7.471  -1.114   0.587  0.00  0.00    +0.024 A 
ATOM     12  C   UNL     1       7.914  -0.549   1.782  0.00  0.00    +0.012 A 
ATOM     13  C   UNL     1       9.182  -0.829   2.247  0.00  0.00    +0.001 A 
ATOM     14  C   UNL     1      10.018  -1.669   1.531  0.00  0.00    +0.004 A 
ATOM     15  C   UNL     1       9.590  -2.234   0.345  0.00  0.00    +0.046 A 
ATOM     16  C   UNL     1       8.316  -1.967  -0.131  0.00  0.00    +0.125 A 
BRANCH  16  17
ATOM     17  O   UNL     1       7.893  -2.526  -1.294  0.00  0.00    -0.506 OA
ATOM     18  H   UNL     1       8.087  -1.996  -2.079  0.00  0.00    +0.292 HD
ENDBRANCH  16  17
ENDBRANCH   8  11
BRANCH   1  19
ATOM     19  S   UNL     1       0.851  -0.589  -1.490  0.00  0.00    +0.016 S 
ATOM     20  O   UNL     1       1.153  -1.903  -1.938  0.00  0.00    -0.168 OA
ATOM     21  O   UNL     1       0.049   0.278  -2.280  0.00  0.00    -0.168 OA
BRANCH  19  23
ATOM     22  C   UNL     1       0.098   0.791   0.748  0.00  0.00    +0.032 C 
ATOM     23  C   UNL     1       0.231  -0.636   0.213  0.00  0.00    +0.132 C 
ATOM     24  C   UNL     1      -1.138  -1.320   0.239  0.00  0.00    +0.032 C 
ENDBRANCH  19  23
ENDBRANCH   1  19
TORSDOF 4
