REMARK  Name = ZINC27233479
REMARK  8 active torsions:
REMARK  status: ('A' for Active; 'I' for Inactive)
REMARK    1  A    between atoms: C_1  and  C_2
REMARK    2  A    between atoms: N_11  and  C_15
REMARK    3  A    between atoms: C_15  and  C_16
REMARK    4  A    between atoms: N_18  and  C_19
REMARK    5  A    between atoms: C_24  and  C_25
REMARK    6  A    between atoms: N_27  and  C_28
REMARK    7  A    between atoms: C_28  and  C_29
REMARK    8  A    between atoms: C_28  and  C_30
REMARK                            x       y       z     vdW  Elec       q    Type
REMARK                         _______ _______ _______ _____ _____    ______ ____
ROOT
ATOM      1  C   UNL     1      -0.022   4.111   0.115  0.00  0.00    +0.235 C 
ATOM      2  O   UNL     1      -1.046   3.488   0.299  0.00  0.00    -0.274 OA
ATOM      3  N   UNL     1       1.153   3.460   0.005  0.00  0.00    -0.284 N 
ATOM      4  H   UNL     1       2.091   4.029  -0.075  0.00  0.00    +0.155 HD
ENDROOT
BRANCH   3   5
ATOM      5  C   UNL     1       1.179   2.068  -0.006  0.00  0.00    +0.046 A 
ATOM      6  C   UNL     1       0.151   1.356  -0.609  0.00  0.00    +0.024 A 
ATOM      7  C   UNL     1       0.180  -0.024  -0.620  0.00  0.00    +0.002 A 
ATOM      8  C   UNL     1       1.231  -0.709  -0.032  0.00  0.00    +0.001 A 
ATOM      9  C   UNL     1       2.260  -0.019   0.571  0.00  0.00    +0.015 A 
ATOM     10  C   UNL     1       2.245   1.378   0.591  0.00  0.00    +0.058 A 
BRANCH  10  11
ATOM     11  C   UNL     1       3.343   2.123   1.235  0.00  0.00    +0.246 C 
ATOM     12  O   UNL     1       3.374   3.337   1.171  0.00  0.00    -0.270 OA
ATOM     13  N   UNL     1       4.312   1.458   1.894  0.00  0.00    -0.309 N 
ATOM     14  H   UNL     1       4.285   0.360   1.952  0.00  0.00    +0.149 HD
BRANCH  13  15
ATOM     15  C   UNL     1       5.403   2.198   2.534  0.00  0.00    +0.067 C 
ATOM     16  C   UNL     1       5.981   1.365   3.680  0.00  0.00    +0.027 C 
ATOM     17  C   UNL     1       6.500   2.481   1.506  0.00  0.00    +0.027 C 
ENDBRANCH  13  15
ENDBRANCH  10  11
ENDBRANCH   3   5
BRANCH   1  18
ATOM     18  C   UNL     1      -0.064   5.614   0.008  0.00  0.00    +0.214 C 
BRANCH  18  28
ATOM     19  C   UNL     1      -2.628   9.160   0.736  0.00  0.00    +0.010 C 
ATOM     20  C   UNL     1      -3.664   8.264   1.417  0.00  0.00    +0.018 C 
ATOM     21  C   UNL     1      -3.533   8.396   2.936  0.00  0.00    +0.006 C 
ATOM     22  C   UNL     1      -4.556   7.484   3.616  0.00  0.00    +0.000 C 
ATOM     23  C   UNL     1      -4.294   6.031   3.215  0.00  0.00    +0.003 C 
ATOM     24  C   UNL     1      -4.428   5.890   1.696  0.00  0.00    +0.035 C 
ATOM     25  C   UNL     1      -3.428   6.814   1.009  0.00  0.00    +0.115 C 
ATOM     26  C   UNL     1      -2.013   6.397   1.341  0.00  0.00    +0.247 C 
ATOM     27  O   UNL     1      -1.496   6.361   2.437  0.00  0.00    -0.273 OA
ATOM     28  N   UNL     1      -1.446   6.076   0.159  0.00  0.00    -0.215 N 
ATOM     29  C   UNL     1      -2.301   6.237  -0.858  0.00  0.00    +0.310 C 
ATOM     30  O   UNL     1      -2.019   6.015  -2.019  0.00  0.00    -0.252 OA
ATOM     31  N   UNL     1      -3.510   6.668  -0.450  0.00  0.00    -0.285 N 
ATOM     32  H   UNL     1      -4.447   6.904  -0.974  0.00  0.00    +0.151 HD
ENDBRANCH  18  28
ENDBRANCH   1  18
TORSDOF 5
