REMARK  Name = ZINC66859836
REMARK  5 active torsions:
REMARK  status: ('A' for Active; 'I' for Inactive)
REMARK    1  A    between atoms: C_1  and  C_2
REMARK    2  A    between atoms: C_5  and  N_8
REMARK    3  A    between atoms: N_13  and  C_14
REMARK    4  A    between atoms: C_14  and  C_15
REMARK    5  A    between atoms: C_15  and  O_25
REMARK                            x       y       z     vdW  Elec       q    Type
REMARK                         _______ _______ _______ _____ _____    ______ ____
ROOT
ATOM      1  N   UNL     1      -0.373  -4.173   0.342  0.00  0.00    -0.181 N 
ATOM      2  C   UNL     1       0.381  -4.993   1.114  0.00  0.00    +0.240 A 
ATOM      3  N   UNL     1       0.044  -6.227   0.810  0.00  0.00    -0.092 NA
ATOM      4  N   UNL     1      -0.865  -6.235  -0.096  0.00  0.00    -0.021 NA
ATOM      5  N   UNL     1      -1.178  -5.030  -0.430  0.00  0.00    -0.038 NA
ATOM      6  N   UNL     1       1.327  -4.605   2.046  0.00  0.00    -0.309 N 
ATOM      7  H   UNL     1       1.502  -3.662   2.196  0.00  0.00    +0.149 HD
ENDROOT
BRANCH   1  12
ATOM      8  C   UNL     1      -0.317   1.502   0.259  0.00  0.00    +0.044 C 
ATOM      9  C   UNL     1      -0.332  -0.004   0.281  0.00  0.00    -0.050 A 
ATOM     10  C   UNL     1      -0.554  -0.709  -0.887  0.00  0.00    +0.005 A 
ATOM     11  C   UNL     1      -0.569  -2.090  -0.870  0.00  0.00    +0.028 A 
ATOM     12  C   UNL     1      -0.359  -2.771   0.321  0.00  0.00    +0.071 A 
ATOM     13  C   UNL     1      -0.136  -2.060   1.493  0.00  0.00    +0.028 A 
ATOM     14  C   UNL     1      -0.118  -0.679   1.469  0.00  0.00    +0.005 A 
ENDBRANCH   1  12
BRANCH   6  15
ATOM     15  C   UNL     1       2.065  -5.617   2.807  0.00  0.00    +0.144 C 
BRANCH  15  16
ATOM     16  C   UNL     1       2.942  -4.928   3.854  0.00  0.00    +0.107 C 
ATOM     17  C   UNL     1       2.062  -4.072   4.763  0.00  0.00    +0.041 C 
ATOM     18  C   UNL     1       2.919  -3.568   5.930  0.00  0.00    +0.008 C 
ATOM     19  C   UNL     1       3.251  -4.755   6.832  0.00  0.00    +0.035 C 
ATOM     20  C   UNL     1       3.816  -5.893   6.023  0.00  0.00    -0.041 A 
ATOM     21  C   UNL     1       3.671  -5.974   4.656  0.00  0.00    -0.011 A 
ATOM     22  C   UNL     1       4.212  -7.054   3.970  0.00  0.00    +0.007 A 
ATOM     23  C   UNL     1       4.896  -8.043   4.647  0.00  0.00    +0.000 A 
ATOM     24  C   UNL     1       5.045  -7.959   6.019  0.00  0.00    +0.000 A 
ATOM     25  C   UNL     1       4.507  -6.888   6.702  0.00  0.00    +0.004 A 
BRANCH  16  26
ATOM     26  O   UNL     1       3.894  -4.091   3.196  0.00  0.00    -0.382 OA
ATOM     27  H   UNL     1       4.484  -4.564   2.593  0.00  0.00    +0.211 HD
ENDBRANCH  16  26
ENDBRANCH  15  16
ENDBRANCH   6  15
TORSDOF 4
