REMARK  Name = ZINC26331295
REMARK  3 active torsions:
REMARK  status: ('A' for Active; 'I' for Inactive)
REMARK    1  A    between atoms: C_8  and  C_13
REMARK    2  A    between atoms: N_14  and  C_15
REMARK    3  A    between atoms: N_23  and  C_24
REMARK                            x       y       z     vdW  Elec       q    Type
REMARK                         _______ _______ _______ _____ _____    ______ ____
ROOT
ATOM      1  C   UNL     1       2.346  -4.643  -0.024  0.00  0.00    +0.138 C 
ATOM      2  N   UNL     1       1.498  -5.058   0.891  0.00  0.00    -0.230 NA
ATOM      3  N   UNL     1       3.329  -5.491  -0.489  0.00  0.00    -0.298 N 
ATOM      4  H   UNL     1       3.085  -6.309  -0.952  0.00  0.00    +0.154 HD
ENDROOT
BRANCH   1  12
ATOM      5  C   UNL     1       0.092   1.122  -0.453  0.00  0.00    +0.001 A 
ATOM      6  C   UNL     1       0.916   1.577  -1.465  0.00  0.00    +0.001 A 
ATOM      7  C   UNL     1       1.874   0.742  -2.018  0.00  0.00    +0.012 A 
ATOM      8  C   UNL     1       2.006  -0.561  -1.553  0.00  0.00    +0.036 A 
ATOM      9  C   UNL     1       1.167  -1.028  -0.521  0.00  0.00    +0.033 A 
ATOM     10  C   UNL     1       0.209  -0.173   0.022  0.00  0.00    +0.012 A 
ATOM     11  C   UNL     1       1.300  -2.406  -0.025  0.00  0.00    +0.201 C 
ATOM     12  C   UNL     1       2.247  -3.274  -0.552  0.00  0.00    +0.113 C 
ATOM     13  C   UNL     1       3.119  -2.862  -1.591  0.00  0.00    +0.240 C 
ATOM     14  O   UNL     1       3.942  -3.635  -2.041  0.00  0.00    -0.283 OA
ATOM     15  C   UNL     1       3.020  -1.470  -2.128  0.00  0.00    +0.234 C 
ATOM     16  O   UNL     1       3.755  -1.094  -3.017  0.00  0.00    -0.283 OA
ATOM     17  O   UNL     1       0.489  -2.835   0.963  0.00  0.00    -0.286 OA
ENDBRANCH   1  12
BRANCH   2  18
ATOM     18  C   UNL     1       1.624  -6.312   1.422  0.00  0.00    +0.084 A 
ATOM     19  C   UNL     1       2.854  -6.741   1.925  0.00  0.00    +0.031 A 
ATOM     20  C   UNL     1       2.974  -8.007   2.458  0.00  0.00    +0.022 A 
ATOM     21  C   UNL     1       1.879  -8.854   2.496  0.00  0.00    +0.042 A 
ATOM     22  C   UNL     1       0.656  -8.435   2.000  0.00  0.00    +0.042 A 
ATOM     23  C   UNL     1       0.520  -7.169   1.468  0.00  0.00    +0.068 A 
ATOM     24 CL   UNL     1      -1.016  -6.643   0.853  0.00  0.00    -0.081 Cl
ATOM     25 CL   UNL     1       2.039 -10.446   3.169  0.00  0.00    -0.083 Cl
ENDBRANCH   2  18
BRANCH   3  26
ATOM     26  C   UNL     1       4.677  -5.174  -0.294  0.00  0.00    +0.051 A 
ATOM     27  C   UNL     1       5.030  -3.954   0.268  0.00  0.00    +0.026 A 
ATOM     28  C   UNL     1       6.362  -3.643   0.460  0.00  0.00    +0.022 A 
ATOM     29  C   UNL     1       7.345  -4.546   0.092  0.00  0.00    +0.042 A 
ATOM     30  C   UNL     1       6.997  -5.762  -0.469  0.00  0.00    +0.041 A 
ATOM     31  C   UNL     1       5.666  -6.081  -0.657  0.00  0.00    +0.063 A 
ATOM     32 CL   UNL     1       5.229  -7.610  -1.355  0.00  0.00    -0.082 Cl
ATOM     33 CL   UNL     1       9.018  -4.151   0.335  0.00  0.00    -0.083 Cl
ENDBRANCH   3  26
TORSDOF 3
