REMARK  Name = ZINC01756099
REMARK  5 active torsions:
REMARK  status: ('A' for Active; 'I' for Inactive)
REMARK    1  A    between atoms: C_1  and  C_2
REMARK    2  A    between atoms: C_5  and  S_8
REMARK    3  A    between atoms: S_8  and  C_11
REMARK    4  A    between atoms: C_17  and  S_19
REMARK    5  A    between atoms: S_19  and  C_20
REMARK                            x       y       z     vdW  Elec       q    Type
REMARK                         _______ _______ _______ _____ _____    ______ ____
ROOT
ATOM      1  S   UNL     1      -3.065   1.664  -2.690  0.00  0.00    +0.001 S 
ATOM      2  O   UNL     1      -3.148   3.082  -2.665  0.00  0.00    -0.169 OA
ATOM      3  O   UNL     1      -2.600   0.986  -3.849  0.00  0.00    -0.169 OA
ENDROOT
BRANCH   1   8
ATOM      4  C   UNL     1      -8.752  -0.223  -1.982  0.00  0.00    +0.044 C 
ATOM      5  C   UNL     1      -7.332   0.248  -2.159  0.00  0.00    -0.050 A 
ATOM      6  C   UNL     1      -6.946   1.480  -1.666  0.00  0.00    +0.005 A 
ATOM      7  C   UNL     1      -5.643   1.913  -1.828  0.00  0.00    +0.027 A 
ATOM      8  C   UNL     1      -4.726   1.113  -2.483  0.00  0.00    +0.089 A 
ATOM      9  C   UNL     1      -5.113  -0.117  -2.981  0.00  0.00    +0.027 A 
ATOM     10  C   UNL     1      -6.415  -0.552  -2.814  0.00  0.00    +0.005 A 
ENDBRANCH   1   8
BRANCH   1  11
ATOM     11  C   UNL     1      -2.188   1.063  -1.221  0.00  0.00    +0.150 C 
ATOM     12  C   UNL     1      -2.904   1.556   0.038  0.00  0.00    +0.028 C 
ATOM     13  C   UNL     1      -2.164   1.050   1.278  0.00  0.00    +0.002 C 
ATOM     14  C   UNL     1      -0.729   1.579   1.267  0.00  0.00    +0.001 C 
ATOM     15  C   UNL     1      -0.013   1.086   0.008  0.00  0.00    +0.017 C 
ATOM     16  C   UNL     1      -0.753   1.593  -1.232  0.00  0.00    +0.086 C 
BRANCH  16  17
ATOM     17  S   UNL     1       0.095   1.009  -2.721  0.00  0.00    -0.041 S 
BRANCH  17  18
ATOM     18  C   UNL     1       1.667   1.889  -2.553  0.00  0.00    +0.133 C 
ATOM     19  N   UNL     1       2.655   2.441  -2.447  0.00  0.00    -0.184 NA
ENDBRANCH  17  18
ENDBRANCH  16  17
ENDBRANCH   1  11
TORSDOF 4
