REMARK  Name = ZINC07986166
REMARK  7 active torsions:
REMARK  status: ('A' for Active; 'I' for Inactive)
REMARK    1  A    between atoms: C_1  and  C_2
REMARK    2  A    between atoms: C_2  and  C_3
REMARK    3  A    between atoms: C_2  and  C_4
REMARK    4  A    between atoms: C_4  and  C_6
REMARK    5  A    between atoms: C_4  and  N_16
REMARK    6  A    between atoms: C_17  and  C_19
REMARK    7  A    between atoms: C_19  and  C_20
REMARK                            x       y       z     vdW  Elec       q    Type
REMARK                         _______ _______ _______ _____ _____    ______ ____
ROOT
ATOM      1  N   UNL     1      -0.698   1.558   1.213  0.00  0.00    -0.305 N 
ATOM      2  C   UNL     1      -1.741   0.865   1.711  0.00  0.00    +0.219 C 
ATOM      3  O   UNL     1      -2.112  -0.151   1.161  0.00  0.00    -0.275 OA
ATOM      4  H   UNL     1      -0.402   2.370   1.653  0.00  0.00    +0.149 HD
ENDROOT
BRANCH   1   5
ATOM      5  C   UNL     1      -0.013   1.086   0.008  0.00  0.00    +0.141 C 
BRANCH   5   6
ATOM      6  C   UNL     1       1.401   1.607  -0.003  0.00  0.00    +0.129 A 
ATOM      7  N   UNL     1       1.977   2.318   1.004  0.00  0.00    -0.340 N 
ATOM      8  H   UNL     1       1.544   2.584   1.865  0.00  0.00    +0.167 HD
ATOM      9  C   UNL     1       3.270   2.606   0.616  0.00  0.00    +0.066 A 
ATOM     10  C   UNL     1       4.327   3.287   1.204  0.00  0.00    +0.028 A 
ATOM     11  C   UNL     1       5.524   3.405   0.529  0.00  0.00    +0.002 A 
ATOM     12  C   UNL     1       5.677   2.848  -0.733  0.00  0.00    +0.002 A 
ATOM     13  C   UNL     1       4.648   2.175  -1.327  0.00  0.00    +0.030 A 
ATOM     14  C   UNL     1       3.426   2.042  -0.662  0.00  0.00    +0.089 A 
ATOM     15  N   UNL     1       2.247   1.448  -0.978  0.00  0.00    -0.231 NA
ENDBRANCH   5   6
BRANCH   5  17
ATOM     16  C   UNL     1      -0.037   1.099  -2.490  0.00  0.00    +0.009 C 
ATOM     17  C   UNL     1      -0.753   1.593  -1.232  0.00  0.00    +0.011 C 
ATOM     18  C   UNL     1      -2.188   1.063  -1.221  0.00  0.00    +0.009 C 
ENDBRANCH   5  17
ENDBRANCH   1   5
BRANCH   2  19
ATOM     19  C   UNL     1      -2.447   1.351   2.951  0.00  0.00    +0.153 C 
BRANCH  19  20
ATOM     20  C   UNL     1      -3.567   0.404   3.295  0.00  0.00    +0.078 A 
ATOM     21  C   UNL     1      -4.403   0.656   4.469  0.00  0.00    +0.011 A 
ATOM     22  C   UNL     1      -4.204   1.767   5.290  0.00  0.00    +0.010 A 
ATOM     23  C   UNL     1      -5.017   1.963   6.372  0.00  0.00    +0.001 A 
ATOM     24  C   UNL     1      -6.043   1.074   6.664  0.00  0.00    +0.001 A 
ATOM     25  C   UNL     1      -6.266  -0.029   5.869  0.00  0.00    +0.014 A 
ATOM     26  C   UNL     1      -5.450  -0.249   4.760  0.00  0.00    +0.050 A 
ATOM     27  C   UNL     1      -5.636  -1.405   3.874  0.00  0.00    +0.272 A 
ATOM     28  O   UNL     1      -6.521  -2.214   4.087  0.00  0.00    -0.266 OA
ATOM     29  N   UNL     1      -4.808  -1.553   2.819  0.00  0.00    -0.242 N 
ATOM     30  H   UNL     1      -4.930  -2.338   2.211  0.00  0.00    +0.192 HD
ATOM     31  N   UNL     1      -3.787  -0.640   2.552  0.00  0.00    -0.175 NA
ENDBRANCH  19  20
ENDBRANCH   2  19
TORSDOF 5
