REMARK  Name = ZINC39916527
REMARK  3 active torsions:
REMARK  status: ('A' for Active; 'I' for Inactive)
REMARK    1  A    between atoms: C_6  and  S_11
REMARK    2  A    between atoms: S_11  and  N_14
REMARK    3  A    between atoms: C_23  and  C_25
REMARK                            x       y       z     vdW  Elec       q    Type
REMARK                         _______ _______ _______ _____ _____    ______ ____
ROOT
ATOM      1  N   UNL     1       5.980  -3.434   1.398  0.00  0.00    -0.160 NA
ATOM      2  C   UNL     1       6.769  -2.500   2.208  0.00  0.00    +0.145 C 
ATOM      3  C   UNL     1       7.518  -3.260   3.274  0.00  0.00    -0.028 A 
ATOM      4  C   UNL     1       8.503  -2.583   3.981  0.00  0.00    +0.005 A 
ATOM      5  C   UNL     1       9.215  -3.222   4.975  0.00  0.00    +0.000 A 
ATOM      6  C   UNL     1       8.944  -4.545   5.270  0.00  0.00    +0.000 A 
ATOM      7  C   UNL     1       7.969  -5.220   4.566  0.00  0.00    +0.004 A 
ATOM      8  C   UNL     1       7.254  -4.581   3.559  0.00  0.00    -0.041 A 
ATOM      9  C   UNL     1       6.224  -5.388   2.815  0.00  0.00    +0.065 C 
ATOM     10  C   UNL     1       5.216  -4.470   2.112  0.00  0.00    +0.170 C 
ENDROOT
BRANCH  10  11
ATOM     11  C   UNL     1       4.394  -5.266   1.131  0.00  0.00    +0.238 C 
ATOM     12  O   UNL     1       4.928  -6.094   0.425  0.00  0.00    -0.274 OA
ATOM     13  N   UNL     1       3.066  -5.056   1.039  0.00  0.00    -0.263 N 
ATOM     14  C   UNL     1       2.308  -5.790   0.134  0.00  0.00    +0.165 A 
ATOM     15  N   UNL     1       2.709  -6.724  -0.700  0.00  0.00    -0.229 NA
ATOM     16  C   UNL     1       1.865  -7.348  -1.516  0.00  0.00    +0.054 A 
ATOM     17  C   UNL     1       0.572  -6.945  -1.417  0.00  0.00    +0.014 A 
ATOM     18  S   UNL     1       0.650  -5.704  -0.156  0.00  0.00    -0.057 S 
ATOM     19  C   UNL     1      -0.600  -7.446  -2.190  0.00  0.00    +0.044 C 
ATOM     20  C   UNL     1      -0.076  -8.246  -3.393  0.00  0.00    +0.006 C 
ATOM     21  C   UNL     1       1.008  -9.213  -2.908  0.00  0.00    +0.006 C 
ATOM     22  C   UNL     1       2.263  -8.438  -2.502  0.00  0.00    +0.056 C 
ATOM     23  H   UNL     1       2.639  -4.393   1.604  0.00  0.00    +0.157 HD
ENDBRANCH  10  11
BRANCH   1  24
ATOM     24  S   UNL     1       5.943  -3.322  -0.254  0.00  0.00    +0.062 S 
ATOM     25  O   UNL     1       6.154  -1.954  -0.574  0.00  0.00    -0.153 OA
ATOM     26  O   UNL     1       4.792  -4.037  -0.684  0.00  0.00    -0.153 OA
BRANCH  24  32
ATOM     27  C   UNL     1      10.530  -7.549  -2.727  0.00  0.00    +0.001 A 
ATOM     28  C   UNL     1       9.289  -8.182  -2.673  0.00  0.00    +0.001 A 
ATOM     29  C   UNL     1       8.190  -7.529  -2.205  0.00  0.00    +0.008 A 
ATOM     30  C   UNL     1       8.304  -6.198  -1.770  0.00  0.00    -0.016 A 
ATOM     31  C   UNL     1       7.192  -5.492  -1.280  0.00  0.00    +0.037 A 
ATOM     32  C   UNL     1       7.340  -4.204  -0.867  0.00  0.00    +0.106 A 
ATOM     33  C   UNL     1       8.581  -3.572  -0.921  0.00  0.00    +0.029 A 
ATOM     34  C   UNL     1       9.680  -4.224  -1.389  0.00  0.00    +0.010 A 
ATOM     35  C   UNL     1       9.566  -5.555  -1.825  0.00  0.00    -0.018 A 
ATOM     36  C   UNL     1      10.678  -6.261  -2.314  0.00  0.00    +0.008 A 
ENDBRANCH  24  32
ENDBRANCH   1  24
TORSDOF 3
