REMARK  Name = ZINC03238643
REMARK  7 active torsions:
REMARK  status: ('A' for Active; 'I' for Inactive)
REMARK    1  A    between atoms: C_1  and  C_2
REMARK    2  A    between atoms: C_5  and  C_8
REMARK    3  A    between atoms: C_10  and  C_18
REMARK    4  A    between atoms: N_20  and  N_21
REMARK    5  A    between atoms: N_21  and  C_22
REMARK    6  A    between atoms: C_22  and  C_24
REMARK    7  A    between atoms: C_27  and  O_30
REMARK                            x       y       z     vdW  Elec       q    Type
REMARK                         _______ _______ _______ _____ _____    ______ ____
ROOT
ATOM      1  C   UNL     1       3.739  -1.093   0.059  0.00  0.00    +0.072 A 
ATOM      2  C   UNL     1       2.492  -0.450   0.079  0.00  0.00    +0.042 A 
ATOM      3  C   UNL     1       2.438   0.933  -0.016  0.00  0.00    +0.049 A 
ATOM      4  C   UNL     1       3.708   1.649  -0.140  0.00  0.00    +0.013 A 
ATOM      5  C   UNL     1       3.756   3.044  -0.235  0.00  0.00    +0.011 A 
ATOM      6  C   UNL     1       4.962   3.671  -0.343  0.00  0.00    +0.001 A 
ATOM      7  C   UNL     1       6.148   2.940  -0.353  0.00  0.00    +0.002 A 
ATOM      8  C   UNL     1       6.138   1.582  -0.257  0.00  0.00    +0.028 A 
ATOM      9  C   UNL     1       4.912   0.900  -0.144  0.00  0.00    +0.072 A 
ATOM     10  N   UNL     1       4.871  -0.430  -0.048  0.00  0.00    -0.247 NA
ENDROOT
BRANCH   1  15
ATOM     11  C   UNL     1       3.910  -6.835   0.456  0.00  0.00    +0.044 C 
ATOM     12  C   UNL     1       3.865  -5.332   0.352  0.00  0.00    -0.050 A 
ATOM     13  C   UNL     1       5.042  -4.614   0.240  0.00  0.00    +0.004 A 
ATOM     14  C   UNL     1       5.007  -3.238   0.144  0.00  0.00    +0.010 A 
ATOM     15  C   UNL     1       3.783  -2.572   0.161  0.00  0.00    +0.000 A 
ATOM     16  C   UNL     1       2.600  -3.300   0.281  0.00  0.00    +0.010 A 
ATOM     17  C   UNL     1       2.647  -4.676   0.370  0.00  0.00    +0.004 A 
ENDBRANCH   1  15
BRANCH   3  18
ATOM     18  C   UNL     1       1.147   1.655   0.000  0.00  0.00    +0.261 C 
ATOM     19  O   UNL     1       1.130   2.871   0.019  0.00  0.00    -0.269 OA
ATOM     20  N   UNL     1      -0.011   0.966  -0.007  0.00  0.00    -0.232 N 
ATOM     21  H   UNL     1       0.002  -0.004  -0.022  0.00  0.00    +0.173 HD
BRANCH  20  22
ATOM     22  N   UNL     1      -1.234   1.650   0.003  0.00  0.00    -0.264 N 
ATOM     23  H   UNL     1      -1.247   2.620   0.018  0.00  0.00    +0.170 HD
BRANCH  22  24
ATOM     24  C   UNL     1      -2.433   0.936  -0.010  0.00  0.00    +0.044 C 
ATOM     25  C   UNL     1      -2.415  -0.397  -0.032  0.00  0.00    +0.035 C 
BRANCH  24  26
ATOM     26  C   UNL     1      -3.725   1.659  -0.000  0.00  0.00    -0.003 A 
ATOM     27  C   UNL     1      -3.745   3.054   0.028  0.00  0.00    +0.013 A 
ATOM     28  C   UNL     1      -4.950   3.724   0.032  0.00  0.00    +0.046 A 
ATOM     29  C   UNL     1      -6.143   3.012   0.019  0.00  0.00    +0.117 A 
ATOM     30  C   UNL     1      -6.126   1.623  -0.004  0.00  0.00    +0.046 A 
ATOM     31  C   UNL     1      -4.924   0.947  -0.013  0.00  0.00    +0.013 A 
BRANCH  29  32
ATOM     32  O   UNL     1      -7.328   3.675   0.028  0.00  0.00    -0.507 OA
ATOM     33  H   UNL     1      -7.673   3.853   0.914  0.00  0.00    +0.292 HD
ENDBRANCH  29  32
ENDBRANCH  24  26
ENDBRANCH  22  24
ENDBRANCH  20  22
ENDBRANCH   3  18
TORSDOF 6
