REMARK  Name = ZINC45252163
REMARK  9 active torsions:
REMARK  status: ('A' for Active; 'I' for Inactive)
REMARK    1  A    between atoms: C_1  and  C_2
REMARK    2  A    between atoms: C_5  and  C_8
REMARK    3  A    between atoms: C_11  and  S_14
REMARK    4  A    between atoms: S_14  and  C_15
REMARK    5  A    between atoms: C_15  and  C_17
REMARK    6  A    between atoms: C_15  and  C_23
REMARK    7  A    between atoms: N_25  and  C_26
REMARK    8  A    between atoms: C_29  and  C_35
REMARK    9  A    between atoms: C_31  and  N_32
REMARK                            x       y       z     vdW  Elec       q    Type
REMARK                         _______ _______ _______ _____ _____    ______ ____
ROOT
ATOM      1  C   UNL     1       0.101  -6.966   3.434  0.00  0.00    +0.170 C 
ENDROOT
BRANCH   1   2
ATOM      2  C   UNL     1       1.370  -6.181   3.642  0.00  0.00    -0.025 A 
ATOM      3  C   UNL     1       2.596  -6.815   3.562  0.00  0.00    +0.005 A 
ATOM      4  C   UNL     1       3.760  -6.095   3.752  0.00  0.00    +0.000 A 
ATOM      5  C   UNL     1       3.699  -4.741   4.023  0.00  0.00    +0.000 A 
ATOM      6  C   UNL     1       2.474  -4.107   4.103  0.00  0.00    +0.000 A 
ATOM      7  C   UNL     1       1.309  -4.826   3.908  0.00  0.00    +0.005 A 
ENDBRANCH   1   2
BRANCH   1   8
ATOM      8  C   UNL     1       0.009  -8.057   4.470  0.00  0.00    +0.235 C 
ATOM      9  O   UNL     1       0.401  -9.175   4.209  0.00  0.00    -0.274 OA
ATOM     10  N   UNL     1      -0.508  -7.790   5.686  0.00  0.00    -0.282 N 
ATOM     11  H   UNL     1      -0.746  -6.880   5.922  0.00  0.00    +0.155 HD
BRANCH  10  12
ATOM     12  C   UNL     1      -0.700  -8.826   6.606  0.00  0.00    +0.064 A 
ATOM     13  C   UNL     1      -0.873 -10.130   6.161  0.00  0.00    +0.026 A 
ATOM     14  C   UNL     1      -1.063 -11.150   7.072  0.00  0.00    +0.005 A 
ATOM     15  C   UNL     1      -1.081 -10.874   8.428  0.00  0.00    -0.048 A 
ATOM     16  C   UNL     1      -0.909  -9.577   8.874  0.00  0.00    +0.038 A 
ATOM     17  C   UNL     1      -0.713  -8.553   7.968  0.00  0.00    +0.148 A 
ATOM     18  C   UNL     1      -1.288 -11.990   9.419  0.00  0.00    +0.044 C 
BRANCH  17  19
ATOM     19  N   UNL     1      -0.522  -7.166   8.447  0.00  0.00    +0.058 N 
ATOM     20  O   UNL     1      -0.444  -6.941   9.632  0.00  0.00    -0.126 OA
ATOM     21  O   UNL     1      -0.445  -6.257   7.653  0.00  0.00    -0.126 OA
ENDBRANCH  17  19
ENDBRANCH  10  12
ENDBRANCH   1   8
BRANCH   1  22
ATOM     22  S   UNL     1       0.111  -7.705   1.777  0.00  0.00    -0.069 S 
BRANCH  22  26
ATOM     23  C   UNL     1       0.017  -4.272  -0.036  0.00  0.00    +0.182 A 
ATOM     24  N   UNL     1       0.042  -5.053   1.054  0.00  0.00    -0.201 NA
ATOM     25  H   UNL     1       0.083  -7.163  -1.211  0.00  0.00    +0.191 HD
ATOM     26  C   UNL     1       0.071  -6.317   0.692  0.00  0.00    +0.186 A 
ATOM     27  N   UNL     1       0.065  -6.365  -0.659  0.00  0.00    -0.253 N 
ATOM     28  N   UNL     1       0.025  -5.035  -1.105  0.00  0.00    -0.152 NA
BRANCH  23  33
ATOM     29  C   UNL     1      -0.128   1.485  -0.027  0.00  0.00    +0.044 C 
ATOM     30  C   UNL     1      -0.090  -0.021  -0.029  0.00  0.00    -0.050 A 
ATOM     31  C   UNL     1      -0.078  -0.709  -1.230  0.00  0.00    +0.004 A 
ATOM     32  C   UNL     1      -0.043  -2.088  -1.238  0.00  0.00    +0.012 A 
ATOM     33  C   UNL     1      -0.020  -2.789  -0.033  0.00  0.00    +0.021 A 
ATOM     34  C   UNL     1      -0.032  -2.091   1.173  0.00  0.00    +0.012 A 
ATOM     35  C   UNL     1      -0.061  -0.712   1.169  0.00  0.00    +0.004 A 
ENDBRANCH  23  33
ENDBRANCH  22  26
ENDBRANCH   1  22
TORSDOF 7
