REMARK  Name = ZINC44740423
REMARK  6 active torsions:
REMARK  status: ('A' for Active; 'I' for Inactive)
REMARK    1  A    between atoms: C_1  and  C_2
REMARK    2  A    between atoms: C_9  and  C_11
REMARK    3  A    between atoms: C_11  and  N_12
REMARK    4  A    between atoms: N_15  and  C_18
REMARK    5  A    between atoms: C_18  and  C_19
REMARK    6  A    between atoms: N_21  and  C_22
REMARK                            x       y       z     vdW  Elec       q    Type
REMARK                         _______ _______ _______ _____ _____    ______ ____
ROOT
ATOM      1  N   UNL     1       3.048   0.974   3.675  0.00  0.00    +0.387 N 
ATOM      2  C   UNL     1       3.925   1.691   2.740  0.00  0.00    -0.063 C 
ATOM      3  C   UNL     1       4.573   2.878   3.456  0.00  0.00    +0.066 C 
ATOM      4  N   UNL     1       5.348   2.389   4.605  0.00  0.00    -0.298 NA
ATOM      5  C   UNL     1       4.488   1.648   5.538  0.00  0.00    +0.066 C 
ATOM      6  C   UNL     1       3.841   0.471   4.804  0.00  0.00    -0.063 C 
ATOM      7  H   UNL     1       2.336   1.602   4.017  0.00  0.00    -0.081 HD
ENDROOT
BRANCH   1   8
ATOM      8  C   UNL     1       2.412  -0.154   2.982  0.00  0.00    +0.019 C 
BRANCH   8  16
ATOM      9  C   UNL     1      -0.017   1.526   0.009  0.00  0.00    +0.028 C 
ATOM     10  C   UNL     1       0.003  -0.004   0.001  0.00  0.00    +0.073 C 
ATOM     11  C   UNL     1      -1.426  -0.537   0.144  0.00  0.00    +0.022 C 
ATOM     12  C   UNL     1      -1.387  -2.061   0.276  0.00  0.00    +0.003 C 
ATOM     13  C   UNL     1      -0.600  -2.447   1.530  0.00  0.00    +0.019 C 
ATOM     14  C   UNL     1       0.839  -1.935   1.403  0.00  0.00    +0.108 C 
ATOM     15  N   UNL     1       0.808  -0.492   1.130  0.00  0.00    -0.300 N 
ATOM     16  C   UNL     1       1.502   0.368   1.901  0.00  0.00    +0.199 C 
ATOM     17  O   UNL     1       1.393   1.563   1.725  0.00  0.00    -0.278 OA
ENDBRANCH   8  16
ENDBRANCH   1   8
BRANCH   4  18
ATOM     18  C   UNL     1       6.033   3.495   5.287  0.00  0.00    +0.180 C 
BRANCH  18  19
ATOM     19  C   UNL     1       7.004   2.939   6.296  0.00  0.00    +0.227 C 
ATOM     20  O   UNL     1       7.115   1.739   6.434  0.00  0.00    -0.274 OA
ATOM     21  N   UNL     1       7.750   3.775   7.045  0.00  0.00    -0.311 N 
ATOM     22  H   UNL     1       7.662   4.735   6.935  0.00  0.00    +0.149 HD
BRANCH  21  23
ATOM     23  C   UNL     1       8.694   3.234   8.027  0.00  0.00    +0.073 C 
ATOM     24  C   UNL     1       7.959   2.950   9.338  0.00  0.00    +0.022 C 
ATOM     25  C   UNL     1       8.817   2.036  10.215  0.00  0.00    +0.002 C 
ATOM     26  C   UNL     1       9.406   0.913   9.360  0.00  0.00    +0.000 C 
ATOM     27  C   UNL     1      10.925   1.081   9.271  0.00  0.00    +0.000 C 
ATOM     28  C   UNL     1      11.255   2.215   8.298  0.00  0.00    +0.000 C 
ATOM     29  C   UNL     1      10.983   3.561   8.972  0.00  0.00    +0.002 C 
ATOM     30  C   UNL     1       9.809   4.252   8.277  0.00  0.00    +0.022 C 
ENDBRANCH  21  23
ENDBRANCH  18  19
ENDBRANCH   4  18
TORSDOF 5
