REMARK  Name = ZINC34756635
REMARK  6 active torsions:
REMARK  status: ('A' for Active; 'I' for Inactive)
REMARK    1  A    between atoms: C_1  and  C_2
REMARK    2  A    between atoms: C_2  and  C_4
REMARK    3  A    between atoms: C_4  and  N_5
REMARK    4  A    between atoms: C_18  and  S_20
REMARK    5  A    between atoms: S_20  and  C_21
REMARK    6  A    between atoms: C_21  and  C_22
REMARK                            x       y       z     vdW  Elec       q    Type
REMARK                         _______ _______ _______ _____ _____    ______ ____
ROOT
ATOM      1  N   UNL     1      -2.345  -0.235  -1.003  0.00  0.00    +0.384 N 
ATOM      2  C   UNL     1      -3.800  -0.186  -1.197  0.00  0.00    -0.059 C 
ATOM      3  C   UNL     1      -4.161  -0.869  -2.520  0.00  0.00    +0.088 C 
ATOM      4  N   UNL     1      -3.384  -0.238  -3.598  0.00  0.00    -0.318 N 
ATOM      5  C   UNL     1      -1.931  -0.098  -3.414  0.00  0.00    +0.088 C 
ATOM      6  C   UNL     1      -1.675   0.549  -2.049  0.00  0.00    -0.059 C 
ATOM      7  C   UNL     1      -4.001   0.209  -4.752  0.00  0.00    +0.134 A 
ATOM      8  C   UNL     1      -4.049  -0.618  -5.909  0.00  0.00    +0.051 A 
ATOM      9  C   UNL     1      -3.509  -1.967  -6.093  0.00  0.00    -0.025 A 
ATOM     10  C   UNL     1      -3.690  -2.539  -7.300  0.00  0.00    -0.004 A 
ATOM     11  S   UNL     1      -4.577  -1.337  -8.254  0.00  0.00    -0.073 S 
ATOM     12  C   UNL     1      -4.704  -0.062  -7.026  0.00  0.00    +0.115 A 
ATOM     13  N   UNL     1      -5.231   1.146  -6.988  0.00  0.00    -0.214 NA
ATOM     14  C   UNL     1      -5.156   1.873  -5.881  0.00  0.00    +0.191 A 
ATOM     15  N   UNL     1      -4.558   1.407  -4.790  0.00  0.00    -0.206 NA
ATOM     16  C   UNL     1      -3.236  -3.898  -7.738  0.00  0.00    +0.043 C 
ATOM     17  C   UNL     1      -2.201  -4.413  -6.726  0.00  0.00    +0.005 C 
ATOM     18  C   UNL     1      -2.751  -4.201  -5.313  0.00  0.00    +0.005 C 
ATOM     19  C   UNL     1      -2.771  -2.709  -4.982  0.00  0.00    +0.037 C 
ATOM     20  H   UNL     1      -2.034  -1.193  -1.052  0.00  0.00    -0.081 HD
ENDROOT
BRANCH   1  21
ATOM     21  C   UNL     1      -2.009   0.321   0.314  0.00  0.00    -0.048 C 
BRANCH  21  23
ATOM     22  C   UNL     1      -1.826  -1.797   1.828  0.00  0.00    +0.036 C 
ATOM     23  C   UNL     1      -2.577  -0.565   1.393  0.00  0.00    -0.096 C 
ATOM     24  C   UNL     1      -3.722  -0.265   1.952  0.00  0.00    +0.005 C 
ENDBRANCH  21  23
ENDBRANCH   1  21
BRANCH  14  25
ATOM     25  S   UNL     1      -5.868   3.484  -5.855  0.00  0.00    -0.077 S 
BRANCH  25  26
ATOM     26  C   UNL     1      -6.561   3.685  -7.520  0.00  0.00    +0.173 C 
BRANCH  26  27
ATOM     27  C   UNL     1      -7.210   5.040  -7.634  0.00  0.00    +0.226 C 
ATOM     28  O   UNL     1      -7.205   5.797  -6.686  0.00  0.00    -0.275 OA
ATOM     29  N   UNL     1      -7.795   5.412  -8.790  0.00  0.00    -0.301 N 
ATOM     30  C   UNL     1      -7.814   4.505  -9.945  0.00  0.00    +0.108 C 
ATOM     31  C   UNL     1      -9.261   4.342 -10.421  0.00  0.00    +0.019 C 
ATOM     32  C   UNL     1      -9.860   5.723 -10.697  0.00  0.00    +0.003 C 
ATOM     33  C   UNL     1      -9.866   6.546  -9.406  0.00  0.00    +0.019 C 
ATOM     34  C   UNL     1      -8.431   6.730  -8.917  0.00  0.00    +0.108 C 
ENDBRANCH  26  27
ENDBRANCH  25  26
ENDBRANCH  14  25
TORSDOF 5
