REMARK  Name = ZINC03154837
REMARK  4 active torsions:
REMARK  status: ('A' for Active; 'I' for Inactive)
REMARK    1  A    between atoms: C_1  and  C_2
REMARK    2  A    between atoms: C_5  and  N_8
REMARK    3  A    between atoms: C_17  and  C_31
REMARK    4  A    between atoms: C_31  and  C_33
REMARK                            x       y       z     vdW  Elec       q    Type
REMARK                         _______ _______ _______ _____ _____    ______ ____
ROOT
ATOM      1  N   UNL     1       0.059  -4.172  -0.021  0.00  0.00    -0.210 N 
ATOM      2  C   UNL     1      -0.030  -4.892  -1.147  0.00  0.00    +0.231 C 
ATOM      3  O   UNL     1      -0.134  -4.437  -2.265  0.00  0.00    -0.274 OA
ATOM      4  C   UNL     1       0.019  -6.364  -0.799  0.00  0.00    +0.101 C 
ATOM      5  C   UNL     1       0.156  -6.371   0.733  0.00  0.00    +0.111 C 
ATOM      6  C   UNL     1       0.172  -4.902   1.096  0.00  0.00    +0.232 C 
ATOM      7  O   UNL     1       0.270  -4.456   2.219  0.00  0.00    -0.274 OA
ATOM      8  C   UNL     1       1.491  -7.011   1.170  0.00  0.00    +0.091 C 
ATOM      9  C   UNL     1       2.573  -6.228   0.443  0.00  0.00    -0.025 A 
ATOM     10  C   UNL     1       3.599  -5.565   1.054  0.00  0.00    +0.005 A 
ATOM     11  C   UNL     1       4.521  -4.887   0.266  0.00  0.00    +0.000 A 
ATOM     12  C   UNL     1       4.398  -4.885  -1.111  0.00  0.00    +0.000 A 
ATOM     13  C   UNL     1       3.352  -5.561  -1.725  0.00  0.00    +0.004 A 
ATOM     14  C   UNL     1       2.449  -6.225  -0.945  0.00  0.00    -0.035 A 
ATOM     15  C   UNL     1       1.252  -6.993  -1.484  0.00  0.00    +0.062 C 
ATOM     16  C   UNL     1       1.396  -8.377  -0.870  0.00  0.00    -0.035 A 
ATOM     17  C   UNL     1       1.505  -8.392   0.533  0.00  0.00    -0.025 A 
ATOM     18  C   UNL     1       1.626  -9.566   1.219  0.00  0.00    +0.005 A 
ATOM     19  C   UNL     1       1.623 -10.760   0.510  0.00  0.00    +0.000 A 
ATOM     20  C   UNL     1       1.499 -10.756  -0.867  0.00  0.00    +0.000 A 
ATOM     21  C   UNL     1       1.394  -9.546  -1.575  0.00  0.00    +0.004 A 
ENDROOT
BRANCH   1  26
ATOM     22  C   UNL     1      -0.016   1.503   0.009  0.00  0.00    +0.044 C 
ATOM     23  C   UNL     1       0.004  -0.004   0.001  0.00  0.00    -0.050 A 
ATOM     24  C   UNL     1       1.156  -0.681   0.357  0.00  0.00    +0.005 A 
ATOM     25  C   UNL     1       1.177  -2.062   0.351  0.00  0.00    +0.024 A 
ATOM     26  C   UNL     1       0.040  -2.771  -0.013  0.00  0.00    +0.044 A 
ATOM     27  C   UNL     1      -1.115  -2.088  -0.370  0.00  0.00    +0.024 A 
ATOM     28  C   UNL     1      -1.132  -0.707  -0.358  0.00  0.00    +0.005 A 
ENDBRANCH   1  26
BRANCH   8  29
ATOM     29  C   UNL     1       1.667  -7.049   2.666  0.00  0.00    +0.146 C 
ATOM     30  O   UNL     1       0.806  -6.604   3.386  0.00  0.00    -0.296 OA
ATOM     31  C   UNL     1       2.917  -7.643   3.263  0.00  0.00    +0.087 C 
ENDBRANCH   8  29
TORSDOF 2
