REMARK  Name = ZINC03357393
REMARK  10 active torsions:
REMARK  status: ('A' for Active; 'I' for Inactive)
REMARK    1  A    between atoms: C_1  and  C_2
REMARK    2  A    between atoms: C_2  and  C_4
REMARK    3  A    between atoms: C_2  and  O_17
REMARK    4  A    between atoms: N_6  and  C_7
REMARK    5  A    between atoms: C_10  and  S_13
REMARK    6  A    between atoms: S_13  and  N_16
REMARK    7  A    between atoms: O_17  and  C_18
REMARK    8  A    between atoms: C_18  and  C_20
REMARK    9  A    between atoms: C_20  and  C_21
REMARK   10  A    between atoms: C_21  and  N_22
REMARK                            x       y       z     vdW  Elec       q    Type
REMARK                         _______ _______ _______ _____ _____    ______ ____
ROOT
ATOM      1  O   UNL     1      -0.451   1.389   3.712  0.00  0.00    -0.452 OA
ENDROOT
BRANCH   1   3
ATOM      2  C   UNL     1       1.389   1.871   5.233  0.00  0.00    +0.062 C 
ATOM      3  C   UNL     1       0.300   0.870   4.841  0.00  0.00    +0.259 C 
BRANCH   3   4
ATOM      4  C   UNL     1      -0.630   0.657   6.008  0.00  0.00    +0.258 C 
ATOM      5  O   UNL     1      -1.810   0.917   5.899  0.00  0.00    -0.271 OA
ATOM      6  N   UNL     1      -0.150   0.178   7.173  0.00  0.00    -0.282 N 
ATOM      7  H   UNL     1       0.778  -0.093   7.240  0.00  0.00    +0.155 HD
BRANCH   6   8
ATOM      8  C   UNL     1      -0.993   0.071   8.285  0.00  0.00    +0.034 A 
ATOM      9  C   UNL     1      -0.492   0.292   9.561  0.00  0.00    +0.025 A 
ATOM     10  C   UNL     1      -1.327   0.192  10.656  0.00  0.00    +0.030 A 
ATOM     11  C   UNL     1      -2.658  -0.140  10.484  0.00  0.00    +0.105 A 
ATOM     12  C   UNL     1      -3.159  -0.367   9.215  0.00  0.00    +0.030 A 
ATOM     13  C   UNL     1      -2.330  -0.262   8.115  0.00  0.00    +0.025 A 
BRANCH  11  14
ATOM     14  S   UNL     1      -3.719  -0.274  11.885  0.00  0.00    +0.056 S 
ATOM     15  O   UNL     1      -3.139   0.519  12.911  0.00  0.00    -0.153 OA
ATOM     16  O   UNL     1      -5.043  -0.060  11.414  0.00  0.00    -0.153 OA
BRANCH  14  17
ATOM     17  N   UNL     1      -3.649  -1.845  12.404  0.00  0.00    -0.204 NA
ATOM     18  H   UNL     1      -3.776  -2.051  13.343  0.00  0.00    +0.144 HD
ATOM     19  H   UNL     1      -3.482  -2.558  11.769  0.00  0.00    +0.144 HD
ENDBRANCH  14  17
ENDBRANCH  11  14
ENDBRANCH   6   8
ENDBRANCH   3   4
ENDBRANCH   1   3
BRANCH   1  20
ATOM     20  C   UNL     1      -0.005   1.073   2.486  0.00  0.00    +0.309 C 
ATOM     21  O   UNL     1       0.981   0.385   2.361  0.00  0.00    -0.251 OA
BRANCH  20  22
ATOM     22  C   UNL     1      -0.734   1.575   1.266  0.00  0.00    +0.140 C 
BRANCH  22  23
ATOM     23  C   UNL     1      -0.024   1.075   0.006  0.00  0.00    +0.122 C 
BRANCH  23  24
ATOM     24  N   UNL     1      -0.732   1.564  -1.179  0.00  0.00    -0.298 N 
ATOM     25  C   UNL     1      -1.756   0.784  -1.729  0.00  0.00    +0.048 A 
ATOM     26  C   UNL     1      -1.653  -0.595  -1.754  0.00  0.00    +0.024 A 
ATOM     27  C   UNL     1      -2.672  -1.356  -2.297  0.00  0.00    +0.002 A 
ATOM     28  C   UNL     1      -3.801  -0.749  -2.814  0.00  0.00    +0.001 A 
ATOM     29  C   UNL     1      -3.918   0.631  -2.790  0.00  0.00    +0.017 A 
ATOM     30  C   UNL     1      -2.903   1.396  -2.248  0.00  0.00    +0.034 A 
ATOM     31  S   UNL     1      -3.024   3.157  -2.204  0.00  0.00    -0.086 S 
ATOM     32  C   UNL     1      -1.331   3.653  -2.257  0.00  0.00    +0.034 A 
ATOM     33  C   UNL     1      -0.361   2.793  -1.734  0.00  0.00    +0.048 A 
ATOM     34  C   UNL     1       0.972   3.171  -1.770  0.00  0.00    +0.024 A 
ATOM     35  C   UNL     1       1.331   4.389  -2.321  0.00  0.00    +0.002 A 
ATOM     36  C   UNL     1       0.369   5.235  -2.837  0.00  0.00    +0.001 A 
ATOM     37  C   UNL     1      -0.967   4.868  -2.806  0.00  0.00    +0.017 A 
ENDBRANCH  23  24
ENDBRANCH  22  23
ENDBRANCH  20  22
ENDBRANCH   1  20
TORSDOF 9
