REMARK  Name = ZINC03535355
REMARK  8 active torsions:
REMARK  status: ('A' for Active; 'I' for Inactive)
REMARK    1  A    between atoms: C_1  and  C_2
REMARK    2  A    between atoms: C_2  and  C_3
REMARK    3  A    between atoms: C_2  and  C_4
REMARK    4  A    between atoms: C_4  and  C_5
REMARK    5  A    between atoms: C_4  and  C_6
REMARK    6  A    between atoms: C_4  and  N_8
REMARK    7  A    between atoms: C_9  and  C_11
REMARK    8  A    between atoms: C_11  and  N_12
REMARK                            x       y       z     vdW  Elec       q    Type
REMARK                         _______ _______ _______ _____ _____    ______ ____
ROOT
ATOM      1  N   UNL     1      -3.631   2.171   0.050  0.00  0.00    -0.194 N 
ATOM      2  C   UNL     1      -2.480   1.365   0.034  0.00  0.00    +0.061 A 
ATOM      3  C   UNL     1      -2.411  -0.027   0.025  0.00  0.00    +0.025 A 
ATOM      4  C   UNL     1      -1.184  -0.678   0.010  0.00  0.00    +0.002 A 
ATOM      5  C   UNL     1       0.002  -0.004   0.002  0.00  0.00    +0.009 A 
ATOM      6  C   UNL     1      -0.017   1.401   0.010  0.00  0.00    -0.014 A 
ATOM      7  C   UNL     1      -1.268   2.053   0.031  0.00  0.00    +0.031 A 
ATOM      8  C   UNL     1      -1.327   3.451   0.035  0.00  0.00    +0.118 A 
ATOM      9  C   UNL     1      -0.199   4.184   0.028  0.00  0.00    +0.029 A 
ATOM     10  C   UNL     1       1.048   3.546   0.012  0.00  0.00    +0.003 A 
ATOM     11  C   UNL     1       1.148   2.186   0.003  0.00  0.00    +0.009 A 
ATOM     12  S   UNL     1      -3.072   3.751   0.054  0.00  0.00    +0.076 S 
ATOM     13  O   UNL     1      -3.424   4.339  -1.191  0.00  0.00    -0.150 OA
ATOM     14  O   UNL     1      -3.400   4.324   1.312  0.00  0.00    -0.150 OA
ENDROOT
BRANCH   1  15
ATOM     15  C   UNL     1      -5.026   1.723   0.060  0.00  0.00    +0.227 C 
BRANCH  15  17
ATOM     16  N   UNL     1      -6.706   1.016   1.732  0.00  0.00    -0.296 N 
ATOM     17  C   UNL     1      -5.453   1.443   1.478  0.00  0.00    +0.233 C 
ATOM     18  O   UNL     1      -4.670   1.601   2.389  0.00  0.00    -0.274 OA
ATOM     19  H   UNL     1      -7.333   0.890   1.002  0.00  0.00    +0.150 HD
BRANCH  16  20
ATOM     20  C   UNL     1      -7.121   0.744   3.110  0.00  0.00    +0.121 C 
ATOM     21  C   UNL     1      -6.989   2.019   3.944  0.00  0.00    +0.048 C 
BRANCH  20  23
ATOM     22  C   UNL     1      -8.689  -1.064   2.392  0.00  0.00    +0.010 C 
ATOM     23  C   UNL     1      -8.578   0.277   3.121  0.00  0.00    +0.020 C 
ATOM     24  C   UNL     1      -9.050   0.112   4.567  0.00  0.00    +0.010 C 
ENDBRANCH  20  23
BRANCH  20  25
ATOM     25  C   UNL     1      -6.265  -0.308   3.682  0.00  0.00    +0.088 C 
ATOM     26  N   UNL     1      -5.604  -1.119   4.123  0.00  0.00    -0.194 NA
ENDBRANCH  20  25
ENDBRANCH  16  20
ENDBRANCH  15  17
ENDBRANCH   1  15
TORSDOF 5
