REMARK  Name = ZINC21231672
REMARK  11 active torsions:
REMARK  status: ('A' for Active; 'I' for Inactive)
REMARK    1  A    between atoms: C_1  and  C_2
REMARK    2  A    between atoms: C_2  and  C_3
REMARK    3  A    between atoms: C_3  and  C_5
REMARK    4  A    between atoms: C_3  and  C_6
REMARK    5  A    between atoms: C_9  and  N_12
REMARK    6  A    between atoms: C_22  and  S_23
REMARK    7  A    between atoms: S_23  and  C_24
REMARK    8  A    between atoms: C_24  and  C_26
REMARK    9  A    between atoms: C_24  and  C_29
REMARK   10  A    between atoms: C_26  and  C_27
REMARK   11  A    between atoms: C_26  and  C_28
REMARK                            x       y       z     vdW  Elec       q    Type
REMARK                         _______ _______ _______ _____ _____    ______ ____
ROOT
ATOM      1  N   UNL     1       3.126  -5.694   1.297  0.00  0.00    -0.255 N 
ATOM      2  C   UNL     1       2.476  -6.722   1.892  0.00  0.00    +0.267 A 
ATOM      3  O   UNL     1       2.932  -7.270   2.879  0.00  0.00    -0.267 OA
ATOM      4  C   UNL     1       1.204  -7.154   1.299  0.00  0.00    +0.065 A 
ATOM      5  C   UNL     1       0.462  -8.207   1.834  0.00  0.00    +0.015 A 
ATOM      6  C   UNL     1      -0.716  -8.570   1.242  0.00  0.00    +0.001 A 
ATOM      7  C   UNL     1      -1.181  -7.902   0.117  0.00  0.00    +0.002 A 
ATOM      8  C   UNL     1      -0.474  -6.867  -0.428  0.00  0.00    +0.028 A 
ATOM      9  C   UNL     1       0.734  -6.472   0.153  0.00  0.00    +0.079 A 
ATOM     10  N   UNL     1       1.466  -5.453  -0.354  0.00  0.00    -0.223 NA
ATOM     11  C   UNL     1       2.599  -5.085   0.193  0.00  0.00    +0.177 A 
ENDROOT
BRANCH   1  15
ATOM     12  C   UNL     1       6.756  -4.366   2.856  0.00  0.00    -0.044 A 
ATOM     13  C   UNL     1       6.741  -5.359   1.894  0.00  0.00    +0.006 A 
ATOM     14  C   UNL     1       5.539  -5.801   1.375  0.00  0.00    +0.026 A 
ATOM     15  C   UNL     1       4.346  -5.248   1.821  0.00  0.00    +0.052 A 
ATOM     16  C   UNL     1       4.366  -4.247   2.784  0.00  0.00    +0.026 A 
ATOM     17  C   UNL     1       5.570  -3.813   3.303  0.00  0.00    +0.006 A 
BRANCH  12  18
ATOM     18  C   UNL     1       8.069  -3.885   3.420  0.00  0.00    +0.016 C 
ATOM     19  C   UNL     1       8.227  -2.390   3.138  0.00  0.00    +0.012 C 
BRANCH  18  21
ATOM     20  C   UNL     1       9.470  -3.753   5.484  0.00  0.00    +0.004 C 
ATOM     21  C   UNL     1       8.093  -4.125   4.931  0.00  0.00    +0.004 C 
ENDBRANCH  18  21
ENDBRANCH  12  18
ENDBRANCH   1  15
BRANCH  11  22
ATOM     22  S   UNL     1       3.487  -3.747  -0.534  0.00  0.00    -0.074 S 
BRANCH  22  23
ATOM     23  C   UNL     1       2.387  -3.354  -1.916  0.00  0.00    +0.143 C 
BRANCH  23  24
ATOM     24  C   UNL     1       1.094  -2.789  -1.385  0.00  0.00    +0.234 C 
ATOM     25  O   UNL     1       1.070  -2.247  -0.301  0.00  0.00    -0.274 OA
ATOM     26  N   UNL     1      -0.035  -2.888  -2.114  0.00  0.00    -0.239 N 
ATOM     27  C   UNL     1      -1.190  -2.384  -1.639  0.00  0.00    +0.303 C 
ATOM     28  O   UNL     1      -1.215  -1.840  -0.552  0.00  0.00    -0.253 OA
ATOM     29  N   UNL     1      -2.318  -2.477  -2.371  0.00  0.00    -0.313 N 
ATOM     30  H   UNL     1      -0.013  -3.380  -3.098  0.00  0.00    +0.159 HD
ATOM     31  H   UNL     1      -3.261  -2.065  -1.983  0.00  0.00    +0.146 HD
ATOM     32  H   UNL     1      -2.295  -2.966  -3.356  0.00  0.00    +0.146 HD
ENDBRANCH  23  24
BRANCH  23  33
ATOM     33  C   UNL     1       3.058  -2.322  -2.825  0.00  0.00    +0.005 C 
ATOM     34  C   UNL     1       4.359  -2.903  -3.382  0.00  0.00    +0.009 C 
ATOM     35  C   UNL     1       2.119  -1.972  -3.980  0.00  0.00    +0.009 C 
ENDBRANCH  23  33
ENDBRANCH  22  23
ENDBRANCH  11  22
TORSDOF 7
