REMARK  Name = ZINC16429130
REMARK  8 active torsions:
REMARK  status: ('A' for Active; 'I' for Inactive)
REMARK    1  A    between atoms: C_6  and  S_7
REMARK    2  A    between atoms: S_7  and  N_10
REMARK    3  A    between atoms: N_10  and  C_11
REMARK    4  A    between atoms: C_11  and  C_12
REMARK    5  A    between atoms: C_17  and  C_20
REMARK    6  A    between atoms: C_20  and  N_21
REMARK    7  A    between atoms: N_21  and  S_22
REMARK    8  A    between atoms: S_22  and  C_25
REMARK                            x       y       z     vdW  Elec       q    Type
REMARK                         _______ _______ _______ _____ _____    ______ ____
ROOT
ATOM      1  C   UNL     1      -0.729   1.579   1.267  0.00  0.00    +0.005 C 
ATOM      2  C   UNL     1      -0.641   3.105   1.339  0.00  0.00    +0.005 C 
ATOM      3  C   UNL     1      -1.357   3.598   2.597  0.00  0.00    +0.001 C 
ATOM      4  C   UNL     1      -0.692   2.990   3.834  0.00  0.00    +0.005 C 
ATOM      5  C   UNL     1      -0.780   1.465   3.762  0.00  0.00    +0.005 C 
ATOM      6  C   UNL     1      -0.064   0.971   2.503  0.00  0.00    +0.009 C 
ENDROOT
BRANCH   1   7
ATOM      7  C   UNL     1      -0.013   1.086   0.008  0.00  0.00    +0.109 C 
BRANCH   7   8
ATOM      8  N   UNL     1      -0.721   1.571  -1.179  0.00  0.00    -0.190 NA
ATOM      9  H   UNL     1      -1.621   1.925  -1.096  0.00  0.00    +0.148 HD
BRANCH   8  10
ATOM     10  S   UNL     1       0.013   1.515  -2.662  0.00  0.00    +0.058 S 
ATOM     11  O   UNL     1      -0.926   2.024  -3.599  0.00  0.00    -0.153 OA
ATOM     12  O   UNL     1       1.306   2.080  -2.496  0.00  0.00    -0.153 OA
BRANCH  10  18
ATOM     13  C   UNL     1       1.422  -0.822  -2.692  0.00  0.00    +0.030 A 
ATOM     14  C   UNL     1       1.609  -2.156  -3.001  0.00  0.00    +0.022 A 
ATOM     15  C   UNL     1       0.629  -2.851  -3.688  0.00  0.00    +0.041 A 
ATOM     16  C   UNL     1      -0.539  -2.210  -4.062  0.00  0.00    +0.022 A 
ATOM     17  C   UNL     1      -0.727  -0.877  -3.748  0.00  0.00    +0.030 A 
ATOM     18  C   UNL     1       0.253  -0.184  -3.061  0.00  0.00    +0.105 A 
ATOM     19 CL   UNL     1       0.866  -4.524  -4.083  0.00  0.00    -0.084 Cl
ENDBRANCH  10  18
ENDBRANCH   8  10
ENDBRANCH   7   8
ENDBRANCH   1   7
BRANCH   5  20
ATOM     20  C   UNL     1      -0.115   0.857   4.999  0.00  0.00    +0.109 C 
BRANCH  20  21
ATOM     21  N   UNL     1      -0.872   1.233   6.195  0.00  0.00    -0.190 NA
ATOM     22  H   UNL     1      -1.523   1.951   6.152  0.00  0.00    +0.148 HD
BRANCH  21  23
ATOM     23  S   UNL     1      -0.618   0.432   7.622  0.00  0.00    +0.058 S 
ATOM     24  O   UNL     1      -1.469   1.037   8.585  0.00  0.00    -0.153 OA
ATOM     25  O   UNL     1      -0.671  -0.957   7.323  0.00  0.00    -0.153 OA
BRANCH  23  26
ATOM     26  C   UNL     1       1.036   0.776   8.125  0.00  0.00    +0.105 A 
ATOM     27  C   UNL     1       2.067  -0.051   7.720  0.00  0.00    +0.030 A 
ATOM     28  C   UNL     1       3.365   0.222   8.110  0.00  0.00    +0.022 A 
ATOM     29  C   UNL     1       3.630   1.315   8.914  0.00  0.00    +0.041 A 
ATOM     30  C   UNL     1       2.597   2.139   9.324  0.00  0.00    +0.022 A 
ATOM     31  C   UNL     1       1.300   1.869   8.929  0.00  0.00    +0.030 A 
ATOM     32 CL   UNL     1       5.259   1.655   9.409  0.00  0.00    -0.084 Cl
ENDBRANCH  23  26
ENDBRANCH  21  23
ENDBRANCH  20  21
ENDBRANCH   5  20
TORSDOF 8
