REMARK  Name = ZINC14668608
REMARK  15 active torsions:
REMARK  status: ('A' for Active; 'I' for Inactive)
REMARK    1  A    between atoms: C_1  and  C_2
REMARK    2  A    between atoms: C_2  and  C_3
REMARK    3  A    between atoms: C_3  and  C_5
REMARK    4  A    between atoms: C_3  and  C_6
REMARK    5  A    between atoms: C_11  and  O_12
REMARK    6  A    between atoms: O_12  and  C_13
REMARK    7  A    between atoms: C_13  and  C_14
REMARK    8  A    between atoms: N_16  and  N_17
REMARK    9  A    between atoms: N_17  and  C_18
REMARK   10  A    between atoms: C_18  and  N_20
REMARK   11  A    between atoms: C_21  and  C_23
REMARK   12  A    between atoms: C_28  and  O_29
REMARK   13  A    between atoms: O_29  and  C_30
REMARK   14  A    between atoms: C_30  and  C_31
REMARK   15  A    between atoms: C_30  and  C_32
REMARK                            x       y       z     vdW  Elec       q    Type
REMARK                         _______ _______ _______ _____ _____    ______ ____
ROOT
ATOM      1  N   UNL     1      -1.515   0.790  -3.631  0.00  0.00    -0.245 N 
ATOM      2  H   UNL     1      -2.387   1.203  -3.539  0.00  0.00    +0.172 HD
ENDROOT
BRANCH   1   5
ATOM      3  C   UNL     1      -1.395   0.455  -1.277  0.00  0.00    +0.267 C 
ATOM      4  O   UNL     1      -2.486   0.972  -1.162  0.00  0.00    -0.271 OA
ATOM      5  N   UNL     1      -0.836   0.327  -2.497  0.00  0.00    -0.232 N 
ATOM      6  H   UNL     1       0.037  -0.087  -2.589  0.00  0.00    +0.173 HD
BRANCH   3   7
ATOM      7  C   UNL     1      -0.664  -0.043  -0.057  0.00  0.00    +0.326 C 
BRANCH   7   8
ATOM      8  O   UNL     1      -1.456   0.205   1.107  0.00  0.00    -0.482 OA
BRANCH   8  14
ATOM      9  C   UNL     1      -1.651   0.029   3.471  0.00  0.00    -0.003 A 
ATOM     10  C   UNL     1      -1.124  -0.376   4.683  0.00  0.00    +0.007 A 
ATOM     11  C   UNL     1       0.116  -0.985   4.730  0.00  0.00    +0.001 A 
ATOM     12  C   UNL     1       0.831  -1.195   3.565  0.00  0.00    +0.004 A 
ATOM     13  C   UNL     1       0.306  -0.798   2.351  0.00  0.00    +0.046 A 
ATOM     14  C   UNL     1      -0.938  -0.187   2.300  0.00  0.00    +0.125 A 
BRANCH   9  15
ATOM     15  C   UNL     1      -3.000   0.698   3.420  0.00  0.00    +0.019 C 
ATOM     16  C   UNL     1      -4.059  -0.247   3.992  0.00  0.00    +0.012 C 
BRANCH  15  18
ATOM     17  C   UNL     1      -4.292   2.726   4.097  0.00  0.00    +0.004 C 
ATOM     18  C   UNL     1      -2.963   1.983   4.249  0.00  0.00    +0.004 C 
ENDBRANCH  15  18
ENDBRANCH   9  15
ENDBRANCH   8  14
ENDBRANCH   7   8
ENDBRANCH   3   7
ENDBRANCH   1   5
BRANCH   1  19
ATOM     19  C   UNL     1      -0.956   0.661  -4.851  0.00  0.00    +0.153 C 
ATOM     20  S   UNL     1      -1.785   1.227  -6.237  0.00  0.00    -0.017 S 
BRANCH  19  21
ATOM     21  N   UNL     1       0.257   0.087  -4.979  0.00  0.00    -0.263 N 
ATOM     22  C   UNL     1       0.816  -0.042  -6.198  0.00  0.00    +0.253 C 
ATOM     23  O   UNL     1       0.227   0.360  -7.183  0.00  0.00    -0.270 OA
ATOM     24  H   UNL     1       0.727  -0.234  -4.193  0.00  0.00    +0.157 HD
BRANCH  22  25
ATOM     25  C   UNL     1       2.143  -0.670  -6.339  0.00  0.00    +0.080 A 
ATOM     26  C   UNL     1       2.824  -1.134  -5.210  0.00  0.00    +0.032 A 
ATOM     27  C   UNL     1       4.063  -1.721  -5.348  0.00  0.00    +0.019 A 
ATOM     28  C   UNL     1       4.638  -1.853  -6.602  0.00  0.00    +0.019 A 
ATOM     29  C   UNL     1       3.976  -1.400  -7.726  0.00  0.00    +0.047 A 
ATOM     30  C   UNL     1       2.725  -0.811  -7.606  0.00  0.00    +0.133 A 
ATOM     31 BR   UNL     1       4.983  -2.348  -3.820  0.00  0.00    -0.050 Br
BRANCH  30  32
ATOM     32  O   UNL     1       2.071  -0.370  -8.709  0.00  0.00    -0.489 OA
BRANCH  32  33
ATOM     33  C   UNL     1       2.672  -0.651  -9.975  0.00  0.00    +0.167 C 
ATOM     34  C   UNL     1       1.593  -0.669 -11.059  0.00  0.00    +0.051 C 
ATOM     35  C   UNL     1       3.704   0.431 -10.301  0.00  0.00    +0.051 C 
ENDBRANCH  32  33
ENDBRANCH  30  32
ENDBRANCH  22  25
ENDBRANCH  19  21
ENDBRANCH   1  19
TORSDOF 11
