REMARK  Name = ZINC58258353
REMARK  5 active torsions:
REMARK  status: ('A' for Active; 'I' for Inactive)
REMARK    1  A    between atoms: C_1  and  C_2
REMARK    2  A    between atoms: C_2  and  C_3
REMARK    3  A    between atoms: C_6  and  N_9
REMARK    4  A    between atoms: C_11  and  C_16
REMARK    5  A    between atoms: C_26  and  C_28
REMARK                            x       y       z     vdW  Elec       q    Type
REMARK                         _______ _______ _______ _____ _____    ______ ____
ROOT
ATOM      1  N   UNL     1       3.059  -1.689   4.587  0.00  0.00    -0.271 N 
ATOM      2  C   UNL     1       2.363  -1.935   5.856  0.00  0.00    +0.127 C 
ATOM      3  C   UNL     1       3.293  -2.869   6.662  0.00  0.00    +0.102 C 
ATOM      4  C   UNL     1       4.676  -2.533   6.059  0.00  0.00    +0.110 C 
ATOM      5  C   UNL     1       4.360  -2.016   4.673  0.00  0.00    +0.221 C 
ATOM      6  O   UNL     1       5.163  -1.910   3.770  0.00  0.00    -0.275 OA
ENDROOT
BRANCH   3   7
ATOM      7  C   UNL     1       3.249  -2.537   8.131  0.00  0.00    +0.221 C 
ATOM      8  O   UNL     1       2.542  -1.634   8.528  0.00  0.00    -0.275 OA
ATOM      9  N   UNL     1       3.994  -3.242   9.004  0.00  0.00    -0.294 N 
ATOM     10  C   UNL     1       4.931  -4.270   8.524  0.00  0.00    +0.113 C 
ATOM     11  C   UNL     1       6.359  -3.822   8.872  0.00  0.00    +0.061 C 
ATOM     12  C   UNL     1       6.365  -3.278  10.263  0.00  0.00    -0.004 A 
ATOM     13  C   UNL     1       5.299  -2.888  11.013  0.00  0.00    -0.017 A 
ATOM     14  C   UNL     1       5.576  -2.404  12.291  0.00  0.00    +0.013 A 
ATOM     15  C   UNL     1       6.854  -2.347  12.730  0.00  0.00    +0.046 A 
ATOM     16  S   UNL     1       7.754  -2.987  11.326  0.00  0.00    -0.101 S 
ATOM     17  C   UNL     1       3.888  -2.991  10.447  0.00  0.00    +0.104 C 
ATOM     18  C   UNL     1       3.136  -1.682  10.692  0.00  0.00    +0.033 C 
ENDBRANCH   3   7
BRANCH   1  22
ATOM     19  C   UNL     1       1.233  -0.187   1.157  0.00  0.00    -0.048 A 
ATOM     20  C   UNL     1       2.602  -0.381   1.181  0.00  0.00    +0.005 A 
ATOM     21  C   UNL     1       3.211  -0.878   2.317  0.00  0.00    +0.024 A 
ATOM     22  C   UNL     1       2.446  -1.184   3.435  0.00  0.00    +0.036 A 
ATOM     23  C   UNL     1       1.071  -0.988   3.407  0.00  0.00    +0.024 A 
ATOM     24  C   UNL     1       0.470  -0.486   2.270  0.00  0.00    +0.005 A 
BRANCH  19  26
ATOM     25  C   UNL     1       0.537   1.884  -0.016  0.00  0.00    +0.009 C 
ATOM     26  C   UNL     1       0.573   0.356  -0.084  0.00  0.00    +0.032 C 
ENDBRANCH  19  26
ENDBRANCH   1  22
TORSDOF 3
