REMARK  Name = ZINC13279012
REMARK  4 active torsions:
REMARK  status: ('A' for Active; 'I' for Inactive)
REMARK    1  A    between atoms: C_4  and  S_9
REMARK    2  A    between atoms: C_6  and  C_7
REMARK    3  A    between atoms: S_9  and  N_12
REMARK    4  A    between atoms: N_12  and  C_13
REMARK                            x       y       z     vdW  Elec       q    Type
REMARK                         _______ _______ _______ _____ _____    ______ ____
ROOT
ATOM      1  N   UNL     1       3.417   3.591   1.411  0.00  0.00    -0.216 N 
ATOM      2  H   UNL     1       3.481   4.214   2.151  0.00  0.00    +0.174 HD
ENDROOT
BRANCH   1   3
ATOM      3  C   UNL     1       3.861   2.273   1.566  0.00  0.00    +0.052 A 
ATOM      4  C   UNL     1       4.650   1.686   0.586  0.00  0.00    +0.028 A 
ATOM      5  C   UNL     1       5.089   0.384   0.738  0.00  0.00    +0.051 A 
ATOM      6  C   UNL     1       4.744  -0.338   1.868  0.00  0.00    +0.167 A 
ATOM      7  C   UNL     1       3.951   0.247   2.853  0.00  0.00    +0.169 A 
ATOM      8  C   UNL     1       3.517   1.554   2.703  0.00  0.00    +0.074 A 
ATOM      9  O   UNL     1       3.752  -0.662   3.852  0.00  0.00    -0.447 OA
ATOM     10  C   UNL     1       4.103  -1.933   3.287  0.00  0.00    +0.254 C 
ATOM     11  O   UNL     1       5.045  -1.616   2.252  0.00  0.00    -0.448 OA
ATOM     12  C   UNL     1       4.752  -2.824   4.340  0.00  0.00    +0.093 C 
ATOM     13  C   UNL     1       5.148  -4.160   3.708  0.00  0.00    +0.008 C 
ATOM     14  C   UNL     1       3.903  -4.842   3.138  0.00  0.00    +0.000 C 
ATOM     15  C   UNL     1       3.274  -3.947   2.067  0.00  0.00    +0.008 C 
ATOM     16  C   UNL     1       2.871  -2.610   2.694  0.00  0.00    +0.093 C 
ENDBRANCH   1   3
BRANCH   1  17
ATOM     17  S   UNL     1       2.783   4.086  -0.036  0.00  0.00    +0.073 S 
ATOM     18  O   UNL     1       2.406   5.446   0.130  0.00  0.00    -0.150 OA
ATOM     19  O   UNL     1       1.859   3.084  -0.439  0.00  0.00    -0.150 OA
BRANCH  17  23
ATOM     20  C   UNL     1       6.165   4.052  -3.060  0.00  0.00    +0.016 A 
ATOM     21  C   UNL     1       6.219   4.893  -1.968  0.00  0.00    +0.018 A 
ATOM     22  C   UNL     1       5.184   4.903  -1.048  0.00  0.00    +0.044 A 
ATOM     23  C   UNL     1       4.093   4.066  -1.214  0.00  0.00    +0.123 A 
ATOM     24  C   UNL     1       4.030   3.217  -2.298  0.00  0.00    +0.045 A 
ATOM     25  C   UNL     1       5.070   3.202  -3.231  0.00  0.00    +0.065 A 
ATOM     26 BR   UNL     1       5.262   6.064   0.443  0.00  0.00    -0.048 Br
BRANCH  25  27
ATOM     27  C   UNL     1       5.010   2.296  -4.395  0.00  0.00    +0.387 C 
ATOM     28  O   UNL     1       4.054   1.561  -4.543  0.00  0.00    -0.241 OA
ATOM     29  O   UNL     1       6.014   2.284  -5.292  0.00  0.00    -0.241 OA
ENDBRANCH  25  27
ENDBRANCH  17  23
ENDBRANCH   1  17
TORSDOF 4
