REMARK  Name = ZINC66146597
REMARK  8 active torsions:
REMARK  status: ('A' for Active; 'I' for Inactive)
REMARK    1  A    between atoms: C_1  and  C_2
REMARK    2  A    between atoms: C_7  and  C_10
REMARK    3  A    between atoms: N_12  and  C_13
REMARK    4  A    between atoms: C_18  and  O_19
REMARK    5  A    between atoms: O_19  and  C_20
REMARK    6  A    between atoms: C_20  and  C_21
REMARK    7  A    between atoms: C_21  and  O_22
REMARK    8  A    between atoms: O_22  and  C_23
REMARK                            x       y       z     vdW  Elec       q    Type
REMARK                         _______ _______ _______ _____ _____    ______ ____
ROOT
ATOM      1  C   UNL     1       2.634  -4.249   3.538  0.00  0.00    +0.076 A 
ATOM      2  C   UNL     1       3.158  -3.382   4.486  0.00  0.00    +0.027 A 
ATOM      3  C   UNL     1       3.957  -3.871   5.502  0.00  0.00    +0.002 A 
ATOM      4  C   UNL     1       4.236  -5.223   5.577  0.00  0.00    +0.004 A 
ATOM      5  C   UNL     1       3.717  -6.093   4.637  0.00  0.00    +0.047 A 
ATOM      6  C   UNL     1       2.911  -5.612   3.618  0.00  0.00    +0.142 A 
ENDROOT
BRANCH   1   9
ATOM      7  C   UNL     1       2.068  -2.539   1.981  0.00  0.00    +0.203 C 
ATOM      8  O   UNL     1       2.938  -1.838   2.453  0.00  0.00    -0.277 OA
ATOM      9  N   UNL     1       1.823  -3.756   2.507  0.00  0.00    -0.284 N 
ATOM     10  H   UNL     1       1.086  -4.290   2.172  0.00  0.00    +0.155 HD
BRANCH   7  16
ATOM     11  C   UNL     1       1.531   1.106  -1.208  0.00  0.00    -0.014 C 
ATOM     12  C   UNL     1       0.991  -0.257  -0.768  0.00  0.00    -0.074 C 
ATOM     13  C   UNL     1      -0.499  -0.133  -0.443  0.00  0.00    -0.016 C 
ATOM     14  C   UNL     1      -1.035  -1.499  -0.005  0.00  0.00    -0.003 C 
ATOM     15  C   UNL     1      -0.219  -1.996   1.192  0.00  0.00    -0.007 C 
ATOM     16  C   UNL     1       1.260  -2.051   0.806  0.00  0.00    +0.017 C 
ATOM     17  N   UNL     1       1.719  -0.710   0.423  0.00  0.00    +0.388 N 
ATOM     18  H   UNL     1       2.707  -0.739   0.221  0.00  0.00    -0.084 HD
ATOM     19  H   UNL     1       1.552  -0.068   1.183  0.00  0.00    -0.084 HD
ENDBRANCH   7  16
ENDBRANCH   1   9
BRANCH   6  20
ATOM     20  O   UNL     1       2.395  -6.467   2.695  0.00  0.00    -0.487 OA
BRANCH  20  21
ATOM     21  C   UNL     1       2.722  -7.851   2.840  0.00  0.00    +0.270 C 
BRANCH  21  22
ATOM     22  C   UNL     1       2.056  -8.651   1.718  0.00  0.00    +0.270 C 
BRANCH  22  23
ATOM     23  O   UNL     1       2.611  -8.261   0.461  0.00  0.00    -0.489 OA
BRANCH  23  24
ATOM     24  C   UNL     1       2.126  -8.882  -0.647  0.00  0.00    +0.121 A 
ATOM     25  C   UNL     1       1.132  -9.842  -0.526  0.00  0.00    +0.045 A 
ATOM     26  C   UNL     1       0.640 -10.471  -1.654  0.00  0.00    +0.004 A 
ATOM     27  C   UNL     1       1.138 -10.144  -2.902  0.00  0.00    +0.000 A 
ATOM     28  C   UNL     1       2.129  -9.188  -3.025  0.00  0.00    +0.004 A 
ATOM     29  C   UNL     1       2.620  -8.552  -1.901  0.00  0.00    +0.045 A 
ENDBRANCH  23  24
ENDBRANCH  22  23
ENDBRANCH  21  22
ENDBRANCH  20  21
ENDBRANCH   6  20
TORSDOF 7
