REMARK  Name = ZINC40374101
REMARK  16 active torsions:
REMARK  status: ('A' for Active; 'I' for Inactive)
REMARK    1  A    between atoms: C_1  and  C_2
REMARK    2  A    between atoms: C_2  and  N_3
REMARK    3  A    between atoms: N_3  and  C_4
REMARK    4  A    between atoms: N_3  and  C_6
REMARK    5  A    between atoms: C_4  and  C_5
REMARK    6  A    between atoms: C_6  and  C_8
REMARK    7  A    between atoms: C_6  and  C_26
REMARK    8  A    between atoms: C_8  and  N_9
REMARK    9  A    between atoms: N_9  and  C_10
REMARK   10  A    between atoms: C_11  and  C_24
REMARK   11  A    between atoms: C_13  and  C_15
REMARK   12  A    between atoms: C_20  and  N_21
REMARK   13  A    between atoms: C_29  and  C_32
REMARK   14  A    between atoms: C_32  and  C_33
REMARK   15  A    between atoms: C_32  and  C_34
REMARK   16  A    between atoms: C_32  and  C_35
REMARK                            x       y       z     vdW  Elec       q    Type
REMARK                         _______ _______ _______ _____ _____    ______ ____
ROOT
ATOM      1  C   UNL     1       1.216  -0.248   2.411  0.00  0.00    +0.094 C 
ENDROOT
BRANCH   1   2
ATOM      2  N   UNL     1       0.242   0.793   2.073  0.00  0.00    -0.314 N 
ATOM      3  H   UNL     1      -0.108   0.855   1.171  0.00  0.00    +0.149 HD
BRANCH   2   4
ATOM      4  C   UNL     1      -0.176   1.683   3.038  0.00  0.00    +0.225 A 
ATOM      5  C   UNL     1      -1.159   2.652   2.899  0.00  0.00    +0.201 A 
ATOM      6  N   UNL     1      -1.246   3.300   4.091  0.00  0.00    -0.196 NA
ATOM      7  C   UNL     1      -0.379   2.774   4.916  0.00  0.00    +0.233 A 
ATOM      8  O   UNL     1       0.285   1.778   4.298  0.00  0.00    -0.420 OA
BRANCH   7   9
ATOM      9  C   UNL     1      -0.164   3.201   6.315  0.00  0.00    +0.067 A 
ATOM     10  C   UNL     1      -1.239   3.254   7.205  0.00  0.00    +0.015 A 
ATOM     11  C   UNL     1      -1.032   3.653   8.508  0.00  0.00    +0.001 A 
ATOM     12  C   UNL     1       0.238   4.002   8.935  0.00  0.00    +0.002 A 
ATOM     13  C   UNL     1       1.307   3.953   8.058  0.00  0.00    +0.033 A 
ATOM     14  C   UNL     1       1.114   3.549   6.753  0.00  0.00    +0.138 A 
BRANCH  14  15
ATOM     15  N   UNL     1       2.261   3.491   5.818  0.00  0.00    +0.057 N 
ATOM     16  O   UNL     1       3.382   3.692   6.223  0.00  0.00    -0.126 OA
ATOM     17  O   UNL     1       2.076   3.243   4.649  0.00  0.00    -0.126 OA
ENDBRANCH  14  15
ENDBRANCH   7   9
BRANCH   5  18
ATOM     18  C   UNL     1      -1.935   2.919   1.726  0.00  0.00    +0.124 C 
ATOM     19  N   UNL     1      -2.550   3.131   0.794  0.00  0.00    -0.189 NA
ENDBRANCH   5  18
ENDBRANCH   2   4
ENDBRANCH   1   2
BRANCH   1  20
ATOM     20  C   UNL     1       1.601  -1.015   1.145  0.00  0.00    -0.020 C 
BRANCH  20  21
ATOM     21  C   UNL     1       2.477  -2.185   1.513  0.00  0.00    -0.059 A 
ATOM     22  C   UNL     1       2.397  -2.738   2.778  0.00  0.00    +0.002 A 
ATOM     23  C   UNL     1       3.200  -3.810   3.116  0.00  0.00    +0.004 A 
ATOM     24  C   UNL     1       4.084  -4.331   2.189  0.00  0.00    -0.042 A 
ATOM     25  C   UNL     1       4.164  -3.779   0.924  0.00  0.00    +0.004 A 
ATOM     26  C   UNL     1       3.357  -2.709   0.585  0.00  0.00    +0.002 A 
BRANCH  24  27
ATOM     27  C   UNL     1       4.960  -5.500   2.558  0.00  0.00    -0.013 C 
ATOM     28  C   UNL     1       4.084  -6.693   2.944  0.00  0.00    +0.015 C 
ATOM     29  C   UNL     1       5.838  -5.877   1.363  0.00  0.00    +0.015 C 
ATOM     30  C   UNL     1       5.850  -5.117   3.743  0.00  0.00    +0.015 C 
ENDBRANCH  24  27
ENDBRANCH  20  21
BRANCH  20  31
ATOM     31  N   UNL     1       0.386  -1.504   0.479  0.00  0.00    +0.385 N 
ATOM     32  H   UNL     1      -0.236  -0.730   0.305  0.00  0.00    -0.081 HD
BRANCH  31  34
ATOM     33  C   UNL     1       1.307  -1.082  -1.750  0.00  0.00    -0.017 C 
ATOM     34  C   UNL     1       0.748  -2.138  -0.796  0.00  0.00    -0.081 C 
ENDBRANCH  31  34
BRANCH  31  35
ATOM     35  C   UNL     1      -0.283  -2.486   1.342  0.00  0.00    -0.081 C 
ATOM     36  C   UNL     1      -1.257  -1.765   2.276  0.00  0.00    -0.017 C 
ENDBRANCH  31  35
ENDBRANCH  20  31
ENDBRANCH   1  20
TORSDOF 11
