REMARK  Name = ZINC35070069
REMARK  10 active torsions:
REMARK  status: ('A' for Active; 'I' for Inactive)
REMARK    1  A    between atoms: C_1  and  C_2
REMARK    2  A    between atoms: C_2  and  C_3
REMARK    3  A    between atoms: C_3  and  C_5
REMARK    4  A    between atoms: C_3  and  N_23
REMARK    5  A    between atoms: N_15  and  C_16
REMARK    6  A    between atoms: N_23  and  C_24
REMARK    7  A    between atoms: N_27  and  C_28
REMARK    8  A    between atoms: C_28  and  C_29
REMARK    9  A    between atoms: C_28  and  C_30
REMARK   10  A    between atoms: C_28  and  C_31
REMARK                            x       y       z     vdW  Elec       q    Type
REMARK                         _______ _______ _______ _____ _____    ______ ____
ROOT
ATOM      1  C   UNL     1       1.202  -2.099  -1.509  0.00  0.00    +0.138 A 
ATOM      2  N   UNL     1       1.645  -2.720  -0.458  0.00  0.00    -0.231 NA
ATOM      3  C   UNL     1       1.255  -3.986  -0.164  0.00  0.00    +0.078 A 
ATOM      4  C   UNL     1       1.731  -4.654   0.966  0.00  0.00    +0.028 A 
ATOM      5  C   UNL     1       1.308  -5.938   1.227  0.00  0.00    +0.002 A 
ATOM      6  C   UNL     1       0.415  -6.579   0.379  0.00  0.00    +0.001 A 
ATOM      7  C   UNL     1      -0.068  -5.941  -0.742  0.00  0.00    +0.015 A 
ATOM      8  C   UNL     1       0.346  -4.641  -1.024  0.00  0.00    +0.065 A 
ATOM      9  C   UNL     1      -0.136  -3.910  -2.205  0.00  0.00    +0.266 A 
ATOM     10  O   UNL     1      -0.921  -4.417  -2.985  0.00  0.00    -0.267 OA
ATOM     11  N   UNL     1       0.322  -2.650  -2.388  0.00  0.00    -0.263 N 
ENDROOT
BRANCH  11  12
ATOM     12  C   UNL     1      -0.110  -1.908  -3.495  0.00  0.00    +0.051 A 
ATOM     13  C   UNL     1       0.470  -2.114  -4.740  0.00  0.00    +0.027 A 
ATOM     14  C   UNL     1       0.042  -1.381  -5.830  0.00  0.00    +0.017 A 
ATOM     15  C   UNL     1      -0.963  -0.442  -5.682  0.00  0.00    +0.018 A 
ATOM     16  C   UNL     1      -1.542  -0.234  -4.443  0.00  0.00    +0.017 A 
ATOM     17  C   UNL     1      -1.123  -0.969  -3.351  0.00  0.00    +0.027 A 
ATOM     18 BR   UNL     1      -1.545   0.559  -7.176  0.00  0.00    -0.050 Br
ENDBRANCH  11  12
BRANCH   1  19
ATOM     19  C   UNL     1       1.684  -0.694  -1.765  0.00  0.00    +0.143 C 
BRANCH  19  20
ATOM     20  N   UNL     1       3.110  -0.601  -1.446  0.00  0.00    -0.279 N 
ATOM     21  C   UNL     1       3.578  -0.893  -0.088  0.00  0.00    +0.134 C 
ATOM     22  C   UNL     1       3.993  -0.246  -2.400  0.00  0.00    +0.303 C 
ATOM     23  O   UNL     1       3.605  -0.003  -3.527  0.00  0.00    -0.253 OA
ATOM     24  N   UNL     1       5.305  -0.160  -2.107  0.00  0.00    -0.294 N 
ATOM     25  H   UNL     1       5.615  -0.354  -1.208  0.00  0.00    +0.151 HD
BRANCH  24  26
ATOM     26  C   UNL     1       6.265   0.226  -3.144  0.00  0.00    +0.028 C 
ATOM     27  C   UNL     1       5.912   1.618  -3.672  0.00  0.00    +0.031 C 
ATOM     28  C   UNL     1       7.676   0.247  -2.553  0.00  0.00    +0.031 C 
ATOM     29  C   UNL     1       6.208  -0.784  -4.292  0.00  0.00    +0.031 C 
ENDBRANCH  24  26
ENDBRANCH  19  20
BRANCH  19  31
ATOM     30  C   UNL     1       1.329   1.715  -1.206  0.00  0.00    +0.006 C 
ATOM     31  C   UNL     1       0.899   0.282  -0.885  0.00  0.00    +0.027 C 
ENDBRANCH  19  31
ENDBRANCH   1  19
TORSDOF 5
