REMARK  Name = ZINC21294402
REMARK  8 active torsions:
REMARK  status: ('A' for Active; 'I' for Inactive)
REMARK    1  A    between atoms: C_1  and  C_2
REMARK    2  A    between atoms: C_2  and  N_3
REMARK    3  A    between atoms: N_11  and  C_12
REMARK    4  A    between atoms: C_12  and  C_14
REMARK    5  A    between atoms: C_17  and  S_23
REMARK    6  A    between atoms: C_18  and  N_20
REMARK    7  A    between atoms: S_23  and  C_24
REMARK    8  A    between atoms: C_26  and  C_29
REMARK                            x       y       z     vdW  Elec       q    Type
REMARK                         _______ _______ _______ _____ _____    ______ ____
ROOT
ATOM      1  C   UNL     1      -3.762   3.757   7.217  0.00  0.00    +0.041 A 
ATOM      2  C   UNL     1      -3.822   3.300   5.896  0.00  0.00    +0.014 A 
ATOM      3  C   UNL     1      -2.675   2.955   5.239  0.00  0.00    +0.018 A 
ATOM      4  C   UNL     1      -1.444   3.046   5.883  0.00  0.00    +0.045 A 
ATOM      5  C   UNL     1      -1.375   3.500   7.199  0.00  0.00    +0.141 A 
ATOM      6  C   UNL     1      -2.526   3.854   7.864  0.00  0.00    +0.047 A 
ENDROOT
BRANCH   5   7
ATOM      7  N   UNL     1      -0.064   3.600   7.880  0.00  0.00    +0.058 N 
ATOM      8  O   UNL     1      -0.005   3.997   9.030  0.00  0.00    -0.126 OA
ATOM      9  O   UNL     1       0.954   3.286   7.290  0.00  0.00    -0.126 OA
ENDBRANCH   5   7
BRANCH   1  10
ATOM     10  C   UNL     1      -4.999   4.135   7.924  0.00  0.00    +0.270 C 
ATOM     11  O   UNL     1      -4.945   4.532   9.072  0.00  0.00    -0.268 OA
BRANCH  10  20
ATOM     12  N   UNL     1     -11.325   5.376  10.644  0.00  0.00    -0.297 NA
ATOM     13  C   UNL     1     -10.315   6.309  11.164  0.00  0.00    +0.091 C 
ATOM     14  C   UNL     1      -8.925   5.670  11.115  0.00  0.00    +0.069 C 
ATOM     15  C   UNL     1      -8.691   5.147   9.701  0.00  0.00    +0.030 A 
ATOM     16  C   UNL     1      -9.755   4.968   8.873  0.00  0.00    +0.026 A 
ATOM     17  S   UNL     1      -8.995   4.368   7.390  0.00  0.00    -0.056 S 
ATOM     18  C   UNL     1      -7.354   4.397   7.965  0.00  0.00    +0.164 A 
ATOM     19  N   UNL     1      -7.501   4.839   9.198  0.00  0.00    -0.339 N 
ATOM     20  N   UNL     1      -6.189   4.041   7.299  0.00  0.00    -0.152 NA
ATOM     21  C   UNL     1     -11.190   5.225   9.181  0.00  0.00    +0.128 C 
ATOM     22  H   UNL     1      -6.597   4.950   9.816  0.00  0.00    +0.167 HD
BRANCH  12  24
ATOM     23  C   UNL     1     -12.921   7.226  10.468  0.00  0.00    +0.020 C 
ATOM     24  C   UNL     1     -12.680   5.813  11.005  0.00  0.00    +0.081 C 
ENDBRANCH  12  24
ENDBRANCH  10  20
ENDBRANCH   1  10
BRANCH   4  25
ATOM     25  S   UNL     1       0.030   2.593   5.031  0.00  0.00    -0.061 S 
BRANCH  25  26
ATOM     26  C   UNL     1       0.426   1.004   5.680  0.00  0.00    +0.139 A 
ATOM     27  N   UNL     1       1.489   0.255   5.449  0.00  0.00    -0.238 NA
ATOM     28  C   UNL     1       1.631  -0.924   6.023  0.00  0.00    +0.047 A 
ATOM     29  C   UNL     1       0.654  -1.359   6.856  0.00  0.00    +0.070 A 
ATOM     30  S   UNL     1      -0.481   0.019   6.786  0.00  0.00    -0.069 S 
ATOM     31  C   UNL     1       2.847  -1.771   5.753  0.00  0.00    +0.066 C 
ENDBRANCH  25  26
ENDBRANCH   4  25
TORSDOF 6
