REMARK  Name = ZINC66570493
REMARK  5 active torsions:
REMARK  status: ('A' for Active; 'I' for Inactive)
REMARK    1  A    between atoms: N_12  and  C_13
REMARK    2  A    between atoms: C_13  and  C_14
REMARK    3  A    between atoms: N_16  and  N_17
REMARK    4  A    between atoms: C_18  and  C_20
REMARK    5  A    between atoms: C_20  and  C_21
REMARK                            x       y       z     vdW  Elec       q    Type
REMARK                         _______ _______ _______ _____ _____    ______ ____
ROOT
ATOM      1  C   UNL     1       4.556  -1.151   2.113  0.00  0.00    +0.247 C 
ATOM      2  O   UNL     1       3.645  -1.945   2.216  0.00  0.00    -0.273 OA
ATOM      3  N   UNL     1       5.445  -1.011   3.117  0.00  0.00    -0.233 N 
ATOM      4  H   UNL     1       6.173  -0.376   3.035  0.00  0.00    +0.173 HD
ENDROOT
BRANCH   3   5
ATOM      5  N   UNL     1       5.316  -1.783   4.279  0.00  0.00    -0.234 N 
ATOM      6  C   UNL     1       6.204  -1.643   5.283  0.00  0.00    +0.229 C 
ATOM      7  O   UNL     1       7.115  -0.849   5.180  0.00  0.00    -0.274 OA
ATOM      8  H   UNL     1       4.587  -2.418   4.362  0.00  0.00    +0.173 HD
BRANCH   6   9
ATOM      9  C   UNL     1       6.066  -2.473   6.533  0.00  0.00    +0.101 C 
BRANCH   9  10
ATOM     10  C   UNL     1       7.194  -2.123   7.506  0.00  0.00    -0.002 C 
ATOM     11  C   UNL     1       8.537  -2.529   6.897  0.00  0.00    +0.004 C 
ATOM     12  C   UNL     1       9.665  -2.178   7.870  0.00  0.00    +0.000 C 
ATOM     13  C   UNL     1       9.454  -2.928   9.187  0.00  0.00    +0.000 C 
ATOM     14  C   UNL     1       8.111  -2.522   9.795  0.00  0.00    +0.000 C 
ATOM     15  C   UNL     1       6.983  -2.873   8.823  0.00  0.00    +0.004 C 
ENDBRANCH   9  10
ENDBRANCH   6   9
ENDBRANCH   3   5
BRANCH   1  16
ATOM     16  C   UNL     1       4.695  -0.321   0.863  0.00  0.00    +0.210 C 
BRANCH  16  28
ATOM     17  C   UNL     1      -0.017   1.379   0.010  0.00  0.00    +0.000 A 
ATOM     18  C   UNL     1       1.168   2.092   0.002  0.00  0.00    +0.002 A 
ATOM     19  C   UNL     1       2.378   1.423  -0.019  0.00  0.00    +0.024 A 
ATOM     20  C   UNL     1       2.397   0.036  -0.029  0.00  0.00    +0.040 A 
ATOM     21  C   UNL     1       1.208  -0.677  -0.011  0.00  0.00    -0.026 A 
ATOM     22  C   UNL     1       0.002  -0.004   0.002  0.00  0.00    +0.005 A 
ATOM     23  C   UNL     1       1.239  -2.182   0.014  0.00  0.00    +0.037 C 
ATOM     24  C   UNL     1       1.569  -2.728  -1.377  0.00  0.00    +0.014 C 
ATOM     25  C   UNL     1       2.700  -1.905  -1.994  0.00  0.00    +0.097 C 
ATOM     26  C   UNL     1       3.773  -1.637  -0.977  0.00  0.00    +0.220 C 
ATOM     27  O   UNL     1       4.785  -2.306  -0.974  0.00  0.00    -0.275 OA
ATOM     28  N   UNL     1       3.615  -0.657  -0.068  0.00  0.00    -0.262 N 
ENDBRANCH  16  28
ENDBRANCH   1  16
TORSDOF 5
