REMARK  Name = ZINC50638988
REMARK  5 active torsions:
REMARK  status: ('A' for Active; 'I' for Inactive)
REMARK    1  A    between atoms: C_3  and  N_8
REMARK    2  A    between atoms: C_9  and  C_11
REMARK    3  A    between atoms: C_11  and  N_12
REMARK    4  A    between atoms: C_13  and  C_15
REMARK    5  A    between atoms: C_16  and  C_17
REMARK                            x       y       z     vdW  Elec       q    Type
REMARK                         _______ _______ _______ _____ _____    ______ ____
ROOT
ATOM      1  N   UNL     1       7.173   1.315   0.252  0.00  0.00    -0.303 N 
ATOM      2  C   UNL     1       8.432   1.785   0.353  0.00  0.00    +0.237 C 
ATOM      3  O   UNL     1       8.633   2.985   0.376  0.00  0.00    -0.271 OA
ATOM      4  H   UNL     1       7.013   0.358   0.234  0.00  0.00    +0.149 HD
ENDROOT
BRANCH   2   5
ATOM      5  C   UNL     1       9.557   0.854   0.434  0.00  0.00    +0.068 C 
ATOM      6  C   UNL     1      10.818   1.325   0.535  0.00  0.00    +0.013 C 
BRANCH   6   7
ATOM      7  C   UNL     1      11.948   0.388   0.617  0.00  0.00    -0.020 A 
ATOM      8  C   UNL     1      13.256   0.874   0.727  0.00  0.00    +0.057 A 
ATOM      9  C   UNL     1      14.314  -0.009   0.804  0.00  0.00    +0.168 A 
ATOM     10  C   UNL     1      14.080  -1.384   0.772  0.00  0.00    +0.184 A 
ATOM     11  C   UNL     1      12.781  -1.867   0.662  0.00  0.00    +0.087 A 
ATOM     12  C   UNL     1      11.719  -0.992   0.590  0.00  0.00    +0.031 A 
ATOM     13 CL   UNL     1      12.496  -3.579   0.621  0.00  0.00    -0.080 Cl
ATOM     14  O   UNL     1      15.277  -2.032   0.862  0.00  0.00    -0.451 OA
ATOM     15  C   UNL     1      16.274  -1.045   0.538  0.00  0.00    +0.466 C 
ATOM     16  O   UNL     1      15.659   0.201   0.915  0.00  0.00    -0.453 OA
ENDBRANCH   6   7
ENDBRANCH   2   5
BRANCH   1  17
ATOM     17  C   UNL     1       6.047   2.248   0.171  0.00  0.00    +0.200 C 
BRANCH  17  19
ATOM     18  N   UNL     1       3.584   2.127  -0.021  0.00  0.00    -0.284 N 
ATOM     19  C   UNL     1       4.759   1.473   0.066  0.00  0.00    +0.234 C 
ATOM     20  O   UNL     1       4.779   0.260   0.060  0.00  0.00    -0.274 OA
ATOM     21  H   UNL     1       3.571   3.094  -0.093  0.00  0.00    +0.155 HD
BRANCH  18  24
ATOM     22  C   UNL     1       1.088  -0.461   0.751  0.00  0.00    +0.005 A 
ATOM     23  C   UNL     1       2.276   0.244   0.738  0.00  0.00    +0.023 A 
ATOM     24  C   UNL     1       2.381   1.411  -0.007  0.00  0.00    +0.036 A 
ATOM     25  C   UNL     1       1.292   1.866  -0.739  0.00  0.00    +0.061 A 
ATOM     26  C   UNL     1       0.106   1.156  -0.722  0.00  0.00    +0.125 A 
ATOM     27  C   UNL     1       0.004  -0.007   0.023  0.00  0.00    +0.038 A 
ATOM     28  F   UNL     1      -0.955   1.598  -1.433  0.00  0.00    -0.205 F 
ENDBRANCH  18  24
ENDBRANCH  17  19
ENDBRANCH   1  17
TORSDOF 5
