REMARK  Name = ZINC41642731
REMARK  10 active torsions:
REMARK  status: ('A' for Active; 'I' for Inactive)
REMARK    1  A    between atoms: C_4  and  S_24
REMARK    2  A    between atoms: C_5  and  N_7
REMARK    3  A    between atoms: C_8  and  C_10
REMARK    4  A    between atoms: N_12  and  C_13
REMARK    5  A    between atoms: C_13  and  C_14
REMARK    6  A    between atoms: C_14  and  C_16
REMARK    7  A    between atoms: C_14  and  O_23
REMARK    8  A    between atoms: C_16  and  N_17
REMARK    9  A    between atoms: S_24  and  C_25
REMARK   10  A    between atoms: C_25  and  C_26
REMARK                            x       y       z     vdW  Elec       q    Type
REMARK                         _______ _______ _______ _____ _____    ______ ____
ROOT
ATOM      1  N   UNL     1       1.207  -2.024   0.481  0.00  0.00    -0.277 N 
ATOM      2  C   UNL     1       0.059  -2.728   0.524  0.00  0.00    +0.303 C 
ATOM      3  O   UNL     1      -1.008  -2.148   0.564  0.00  0.00    -0.265 OA
ATOM      4  H   UNL     1       2.054  -2.484   0.371  0.00  0.00    +0.155 HD
ENDROOT
BRANCH   1   9
ATOM      5  C   UNL     1       0.091   1.371   1.347  0.00  0.00    +0.002 A 
ATOM      6  C   UNL     1       1.118   2.132   0.820  0.00  0.00    +0.001 A 
ATOM      7  C   UNL     1       2.179   1.520   0.179  0.00  0.00    +0.016 A 
ATOM      8  C   UNL     1       2.215   0.138   0.062  0.00  0.00    +0.029 A 
ATOM      9  C   UNL     1       1.178  -0.630   0.595  0.00  0.00    +0.047 A 
ATOM     10  C   UNL     1       0.118  -0.006   1.237  0.00  0.00    +0.024 A 
BRANCH   8  11
ATOM     11  S   UNL     1       3.565  -0.645  -0.755  0.00  0.00    -0.114 S 
BRANCH  11  12
ATOM     12  C   UNL     1       4.630   0.733  -1.262  0.00  0.00    +0.187 C 
BRANCH  12  13
ATOM     13  C   UNL     1       5.858   0.186  -1.994  0.00  0.00    +0.399 C 
ATOM     14  F   UNL     1       5.447  -0.527  -3.125  0.00  0.00    -0.170 F 
ATOM     15  F   UNL     1       6.679   1.249  -2.384  0.00  0.00    -0.170 F 
ATOM     16  F   UNL     1       6.569  -0.664  -1.140  0.00  0.00    -0.170 F 
ENDBRANCH  12  13
ENDBRANCH  11  12
ENDBRANCH   8  11
ENDBRANCH   1   9
BRANCH   2  17
ATOM     17  C   UNL     1       0.097  -4.221   0.524  0.00  0.00    +0.299 C 
ATOM     18  O   UNL     1       1.163  -4.800   0.485  0.00  0.00    -0.265 OA
ATOM     19  N   UNL     1      -1.051  -4.925   0.567  0.00  0.00    -0.305 N 
ATOM     20  H   UNL     1      -1.903  -4.461   0.599  0.00  0.00    +0.149 HD
BRANCH  19  21
ATOM     21  C   UNL     1      -1.013  -6.389   0.567  0.00  0.00    +0.134 C 
BRANCH  21  22
ATOM     22  C   UNL     1      -2.441  -6.936   0.620  0.00  0.00    +0.115 C 
BRANCH  22  23
ATOM     23  O   UNL     1      -3.135  -6.576  -0.576  0.00  0.00    -0.392 OA
ATOM     24  H   UNL     1      -2.728  -6.917  -1.384  0.00  0.00    +0.210 HD
ENDBRANCH  22  23
BRANCH  22  25
ATOM     25  C   UNL     1      -2.399  -8.460   0.746  0.00  0.00    -0.046 C 
BRANCH  25  26
ATOM     26  N   UNL     1      -3.768  -8.991   0.734  0.00  0.00    +0.381 N 
ATOM     27  C   UNL     1      -3.723 -10.458   0.706  0.00  0.00    -0.079 C 
ATOM     28  C   UNL     1      -5.146 -11.014   0.612  0.00  0.00    -0.019 C 
ATOM     29  C   UNL     1      -5.951 -10.550   1.829  0.00  0.00    -0.004 C 
ATOM     30  C   UNL     1      -5.929  -9.020   1.890  0.00  0.00    -0.019 C 
ATOM     31  C   UNL     1      -4.478  -8.537   1.936  0.00  0.00    -0.079 C 
ATOM     32  H   UNL     1      -4.251  -8.656  -0.086  0.00  0.00    -0.082 HD
ENDBRANCH  25  26
ENDBRANCH  22  25
ENDBRANCH  21  22
ENDBRANCH  19  21
ENDBRANCH   2  17
TORSDOF 10
