REMARK  Name = ZINC02634326
REMARK  11 active torsions:
REMARK  status: ('A' for Active; 'I' for Inactive)
REMARK    1  A    between atoms: C_1  and  C_2
REMARK    2  A    between atoms: C_2  and  C_3
REMARK    3  A    between atoms: C_2  and  C_4
REMARK    4  A    between atoms: C_4  and  C_5
REMARK    5  A    between atoms: C_5  and  C_6
REMARK    6  A    between atoms: C_6  and  N_8
REMARK    7  A    between atoms: N_8  and  N_9
REMARK    8  A    between atoms: C_10  and  C_12
REMARK    9  A    between atoms: C_15  and  C_18
REMARK   10  A    between atoms: C_18  and  S_19
REMARK   11  A    between atoms: S_19  and  C_20
REMARK                            x       y       z     vdW  Elec       q    Type
REMARK                         _______ _______ _______ _____ _____    ______ ____
ROOT
ATOM      1  C   UNL     1      -5.255  11.346   0.119  0.00  0.00    +0.038 A 
ATOM      2  C   UNL     1      -4.995  10.707  -1.095  0.00  0.00    +0.013 A 
ATOM      3  C   UNL     1      -4.458   9.436  -1.100  0.00  0.00    +0.005 A 
ATOM      4  C   UNL     1      -4.179   8.795   0.093  0.00  0.00    -0.037 A 
ATOM      5  C   UNL     1      -4.439   9.420   1.300  0.00  0.00    +0.005 A 
ATOM      6  C   UNL     1      -4.970  10.693   1.319  0.00  0.00    +0.013 A 
ENDROOT
BRANCH   1   8
ATOM      7  N   UNL     1      -6.079  13.323   1.306  0.00  0.00    -0.233 N 
ATOM      8  C   UNL     1      -5.829  12.709   0.132  0.00  0.00    +0.260 C 
ATOM      9  O   UNL     1      -6.075  13.275  -0.915  0.00  0.00    -0.269 OA
ATOM     10  H   UNL     1      -5.882  12.871   2.141  0.00  0.00    +0.173 HD
BRANCH   7  11
ATOM     11  N   UNL     1      -6.623  14.614   1.319  0.00  0.00    -0.269 N 
ATOM     12  H   UNL     1      -6.819  15.066   0.483  0.00  0.00    +0.170 HD
BRANCH  11  13
ATOM     13  C   UNL     1      -6.880  15.247   2.528  0.00  0.00    +0.015 C 
ATOM     14  C   UNL     1      -6.613  14.632   3.665  0.00  0.00    +0.030 C 
BRANCH  13  15
ATOM     15  C   UNL     1      -7.466  16.636   2.542  0.00  0.00    +0.052 C 
BRANCH  15  16
ATOM     16  C   UNL     1      -6.341  17.664   2.411  0.00  0.00    +0.009 C 
BRANCH  16  18
ATOM     17  C   UNL     1      -7.574  19.345   3.788  0.00  0.00    +0.007 C 
ATOM     18  C   UNL     1      -6.935  19.074   2.425  0.00  0.00    -0.017 C 
ATOM     19  C   UNL     1      -5.826  20.097   2.169  0.00  0.00    +0.007 C 
ENDBRANCH  16  18
ENDBRANCH  15  16
ENDBRANCH  13  15
ENDBRANCH  11  13
ENDBRANCH   7  11
ENDBRANCH   1   8
BRANCH   4  20
ATOM     20  C   UNL     1      -3.593   7.406   0.080  0.00  0.00    +0.111 C 
BRANCH  20  21
ATOM     21  S   UNL     1      -1.786   7.513   0.062  0.00  0.00    -0.094 S 
BRANCH  21  22
ATOM     22  C   UNL     1      -1.378   5.799   0.048  0.00  0.00    +0.136 A 
ATOM     23  N   UNL     1      -0.191   5.235   0.033  0.00  0.00    -0.233 NA
ATOM     24  C   UNL     1      -0.027   3.894   0.023  0.00  0.00    +0.079 A 
ATOM     25  C   UNL     1       1.184   3.163   0.007  0.00  0.00    +0.029 A 
ATOM     26  C   UNL     1       1.175   1.793   0.001  0.00  0.00    +0.002 A 
ATOM     27  C   UNL     1      -0.013   1.076   0.008  0.00  0.00    +0.001 A 
ATOM     28  C   UNL     1      -1.216   1.758   0.017  0.00  0.00    +0.017 A 
ATOM     29  C   UNL     1      -1.216   3.130   0.031  0.00  0.00    +0.040 A 
ATOM     30  S   UNL     1      -2.473   4.386   0.051  0.00  0.00    -0.061 S 
ENDBRANCH  21  22
ENDBRANCH  20  21
ENDBRANCH   4  20
TORSDOF 9
