REMARK  Name = ZINC59398682
REMARK  12 active torsions:
REMARK  status: ('A' for Active; 'I' for Inactive)
REMARK    1  A    between atoms: C_1  and  C_2
REMARK    2  A    between atoms: C_2  and  C_3
REMARK    3  A    between atoms: C_3  and  C_5
REMARK    4  A    between atoms: C_6  and  C_39
REMARK    5  A    between atoms: C_13  and  C_14
REMARK    6  A    between atoms: C_25  and  C_27
REMARK    7  A    between atoms: C_29  and  O_37
REMARK    8  A    between atoms: C_30  and  O_35
REMARK    9  A    between atoms: C_31  and  O_33
REMARK   10  A    between atoms: O_33  and  C_34
REMARK   11  A    between atoms: O_35  and  C_36
REMARK   12  A    between atoms: O_37  and  C_38
REMARK                            x       y       z     vdW  Elec       q    Type
REMARK                         _______ _______ _______ _____ _____    ______ ____
ROOT
ATOM      1  C   UNL     1      -1.768  -2.011   1.090  0.00  0.00    +0.043 C 
ATOM      2  C   UNL     1      -3.061  -2.457   0.881  0.00  0.00    +0.050 C 
ATOM      3  N   UNL     1      -3.287  -3.703   0.499  0.00  0.00    -0.228 NA
ATOM      4  C   UNL     1      -2.355  -4.606   0.287  0.00  0.00    +0.178 A 
ATOM      5  N   UNL     1      -1.012  -4.368   0.437  0.00  0.00    -0.275 N 
ATOM      6  C   UNL     1      -0.160  -5.375   0.190  0.00  0.00    +0.268 A 
ATOM      7  O   UNL     1       1.044  -5.235   0.304  0.00  0.00    -0.266 OA
ATOM      8  C   UNL     1      -0.734  -6.612  -0.209  0.00  0.00    +0.081 A 
ATOM      9  C   UNL     1      -0.120  -7.788  -0.521  0.00  0.00    +0.030 C 
ATOM     10  S   UNL     1      -2.471  -6.211  -0.195  0.00  0.00    -0.046 S 
ATOM     11  C   UNL     1      -0.639  -2.990   0.860  0.00  0.00    +0.158 C 
ATOM     12  C   UNL     1      -4.220  -1.517   1.091  0.00  0.00    +0.066 C 
ENDROOT
BRANCH   9  13
ATOM     13  C   UNL     1       1.337  -7.847  -0.626  0.00  0.00    +0.001 A 
ATOM     14  C   UNL     1       2.165  -6.862  -1.088  0.00  0.00    +0.091 A 
ATOM     15  N   UNL     1       3.453  -7.286  -1.034  0.00  0.00    -0.360 N 
ATOM     16  H   UNL     1       4.221  -6.760  -1.309  0.00  0.00    +0.165 HD
ATOM     17  C   UNL     1       3.517  -8.570  -0.534  0.00  0.00    +0.047 A 
ATOM     18  C   UNL     1       2.204  -8.980  -0.250  0.00  0.00    +0.007 A 
ATOM     19  C   UNL     1       1.966 -10.246   0.277  0.00  0.00    +0.010 A 
ATOM     20  C   UNL     1       3.025 -11.093   0.522  0.00  0.00    +0.001 A 
ATOM     21  C   UNL     1       4.323 -10.689   0.246  0.00  0.00    +0.002 A 
ATOM     22  C   UNL     1       4.572  -9.441  -0.284  0.00  0.00    +0.026 A 
ENDBRANCH   9  13
BRANCH  11  23
ATOM     23  C   UNL     1       0.146  -3.101   2.142  0.00  0.00    -0.013 A 
ATOM     24  C   UNL     1      -0.327  -3.887   3.175  0.00  0.00    +0.055 A 
ATOM     25  C   UNL     1       0.393  -3.991   4.356  0.00  0.00    +0.166 A 
ATOM     26  C   UNL     1       1.592  -3.303   4.499  0.00  0.00    +0.204 A 
ATOM     27  C   UNL     1       2.065  -2.514   3.458  0.00  0.00    +0.166 A 
ATOM     28  C   UNL     1       1.342  -2.420   2.278  0.00  0.00    +0.055 A 
BRANCH  27  29
ATOM     29  O   UNL     1       3.238  -1.839   3.593  0.00  0.00    -0.491 OA
ATOM     30  C   UNL     1       3.663  -1.047   2.482  0.00  0.00    +0.277 C 
ENDBRANCH  27  29
BRANCH  26  31
ATOM     31  O   UNL     1       2.301  -3.402   5.656  0.00  0.00    -0.488 OA
ATOM     32  C   UNL     1       3.269  -4.450   5.736  0.00  0.00    +0.277 C 
ENDBRANCH  26  31
BRANCH  25  33
ATOM     33  O   UNL     1      -0.074  -4.764   5.372  0.00  0.00    -0.491 OA
ATOM     34  C   UNL     1      -1.314  -5.442   5.155  0.00  0.00    +0.277 C 
ENDBRANCH  25  33
ENDBRANCH  11  23
BRANCH   1  35
ATOM     35  C   UNL     1      -1.514  -0.702   1.492  0.00  0.00    +0.163 C 
ATOM     36  O   UNL     1      -1.855  -0.329   2.599  0.00  0.00    -0.292 OA
BRANCH  35  38
ATOM     37  C   UNL     1      -0.782   1.647   1.185  0.00  0.00    +0.012 C 
ATOM     38  C   UNL     1      -0.817   0.253   0.557  0.00  0.00    +0.076 C 
ENDBRANCH  35  38
ENDBRANCH   1  35
TORSDOF 7
