REMARK  Name = ZINC67513593
REMARK  8 active torsions:
REMARK  status: ('A' for Active; 'I' for Inactive)
REMARK    1  A    between atoms: C_1  and  N_2
REMARK    2  A    between atoms: C_5  and  N_8
REMARK    3  A    between atoms: N_11  and  C_18
REMARK    4  A    between atoms: C_13  and  C_15
REMARK    5  A    between atoms: C_15  and  C_16
REMARK    6  A    between atoms: C_16  and  O_17
REMARK    7  A    between atoms: C_18  and  C_19
REMARK    8  A    between atoms: C_22  and  C_25
REMARK                            x       y       z     vdW  Elec       q    Type
REMARK                         _______ _______ _______ _____ _____    ______ ____
ROOT
ATOM      1  N   UNL     1      -0.537  -4.029   1.000  0.00  0.00    -0.300 NA
ATOM      2  C   UNL     1       0.268  -4.271  -0.205  0.00  0.00    +0.066 C 
ATOM      3  C   UNL     1       0.560  -5.768  -0.327  0.00  0.00    -0.063 C 
ATOM      4  N   UNL     1       1.284  -6.224   0.867  0.00  0.00    +0.384 N 
ATOM      5  C   UNL     1       0.457  -5.998   2.059  0.00  0.00    -0.059 C 
ATOM      6  C   UNL     1       0.164  -4.503   2.201  0.00  0.00    +0.042 C 
ATOM      7  H   UNL     1       2.148  -5.709   0.954  0.00  0.00    -0.081 HD
ENDROOT
BRANCH   1  12
ATOM      8  C   UNL     1      -1.113   1.495  -0.010  0.00  0.00    -0.096 C 
ATOM      9  N   UNL     1      -0.820   0.056  -0.018  0.00  0.00    +0.378 N 
ATOM     10  C   UNL     1      -2.078  -0.699   0.037  0.00  0.00    -0.078 C 
ATOM     11  C   UNL     1      -1.782  -2.198  -0.052  0.00  0.00    +0.000 C 
ATOM     12  C   UNL     1      -0.887  -2.607   1.121  0.00  0.00    +0.053 C 
ATOM     13  C   UNL     1       0.389  -1.761   1.097  0.00  0.00    +0.000 C 
ATOM     14  C   UNL     1       0.013  -0.279   1.143  0.00  0.00    -0.078 C 
ATOM     15  H   UNL     1      -0.325  -0.181  -0.865  0.00  0.00    -0.082 HD
ENDBRANCH   1  12
BRANCH   6  16
ATOM     16  C   UNL     1      -0.715  -4.269   3.431  0.00  0.00    +0.045 C 
BRANCH  16  17
ATOM     17  C   UNL     1       0.055  -4.670   4.691  0.00  0.00    +0.157 C 
BRANCH  17  18
ATOM     18  O   UNL     1      -0.749  -4.410   5.843  0.00  0.00    -0.395 OA
ATOM     19  H   UNL     1      -0.324  -4.640   6.681  0.00  0.00    +0.209 HD
ENDBRANCH  17  18
ENDBRANCH  16  17
ENDBRANCH   6  16
BRANCH   4  20
ATOM     20  C   UNL     1       1.581  -7.658   0.742  0.00  0.00    -0.043 C 
BRANCH  20  21
ATOM     21  C   UNL     1       2.530  -7.876  -0.408  0.00  0.00    -0.064 A 
ATOM     22  C   UNL     1       2.032  -8.098  -1.680  0.00  0.00    +0.002 A 
ATOM     23  C   UNL     1       2.896  -8.299  -2.737  0.00  0.00    +0.012 A 
ATOM     24  C   UNL     1       4.275  -8.277  -2.521  0.00  0.00    +0.017 A 
ATOM     25  C   UNL     1       4.770  -8.053  -1.235  0.00  0.00    +0.012 A 
ATOM     26  C   UNL     1       3.896  -7.848  -0.188  0.00  0.00    +0.002 A 
BRANCH  24  27
ATOM     27  C   UNL     1       5.206  -8.492  -3.648  0.00  0.00    +0.135 A 
ATOM     28  C   UNL     1       6.563  -8.502  -3.571  0.00  0.00    +0.050 A 
ATOM     29  C   UNL     1       7.042  -8.740  -4.875  0.00  0.00    +0.042 A 
ATOM     30  C   UNL     1       5.965  -8.863  -5.675  0.00  0.00    +0.196 A 
ATOM     31  O   UNL     1       4.857  -8.719  -4.929  0.00  0.00    -0.463 OA
ENDBRANCH  24  27
ENDBRANCH  20  21
ENDBRANCH   4  20
TORSDOF 7
