REMARK  Name = ZINC38650560
REMARK  15 active torsions:
REMARK  status: ('A' for Active; 'I' for Inactive)
REMARK    1  A    between atoms: C_1  and  C_2
REMARK    2  A    between atoms: C_2  and  O_3
REMARK    3  A    between atoms: O_3  and  C_4
REMARK    4  A    between atoms: C_9  and  C_10
REMARK    5  A    between atoms: C_15  and  O_24
REMARK    6  A    between atoms: C_19  and  N_23
REMARK    7  A    between atoms: C_20  and  C_21
REMARK    8  A    between atoms: O_24  and  C_25
REMARK    9  A    between atoms: C_25  and  C_27
REMARK   10  A    between atoms: C_27  and  C_29
REMARK   11  A    between atoms: C_27  and  O_30
REMARK   12  A    between atoms: O_30  and  C_31
REMARK   13  A    between atoms: C_34  and  C_37
REMARK   14  A    between atoms: C_37  and  C_38
REMARK   15  A    between atoms: C_37  and  C_39
REMARK                            x       y       z     vdW  Elec       q    Type
REMARK                         _______ _______ _______ _____ _____    ______ ____
ROOT
ATOM      1  C   UNL     1      -4.139  -1.678   0.199  0.00  0.00    +0.101 C 
ATOM      2  C   UNL     1      -4.931  -1.889  -1.064  0.00  0.00    +0.008 A 
ATOM      3  C   UNL     1      -4.524  -1.275  -2.235  0.00  0.00    +0.012 A 
ATOM      4  C   UNL     1      -5.238  -1.458  -3.402  0.00  0.00    +0.047 A 
ATOM      5  C   UNL     1      -6.370  -2.260  -3.404  0.00  0.00    +0.135 A 
ATOM      6  C   UNL     1      -6.781  -2.877  -2.233  0.00  0.00    +0.093 A 
ATOM      7  C   UNL     1      -6.061  -2.693  -1.060  0.00  0.00    +0.138 A 
ATOM      8  O   UNL     1      -6.477  -3.303   0.077  0.00  0.00    -0.441 OA
ATOM      9  C   UNL     1      -6.056  -2.853   1.271  0.00  0.00    +0.199 C 
ATOM     10  C   UNL     1      -4.955  -2.080   1.395  0.00  0.00    +0.098 C 
ENDROOT
BRANCH   1  16
ATOM     11  C   UNL     1      -1.641  -1.900   0.207  0.00  0.00    +0.125 A 
ATOM     12  C   UNL     1      -0.488  -2.671   0.164  0.00  0.00    +0.046 A 
ATOM     13  C   UNL     1      -0.582  -4.045   0.056  0.00  0.00    +0.004 A 
ATOM     14  C   UNL     1      -1.822  -4.652  -0.010  0.00  0.00    +0.001 A 
ATOM     15  C   UNL     1      -2.972  -3.886   0.033  0.00  0.00    +0.008 A 
ATOM     16  C   UNL     1      -2.885  -2.512   0.146  0.00  0.00    +0.007 A 
BRANCH  11  17
ATOM     17  O   UNL     1      -1.552  -0.548   0.314  0.00  0.00    -0.492 OA
BRANCH  17  19
ATOM     18  C   UNL     1      -0.340   1.535   0.489  0.00  0.00    +0.048 C 
ATOM     19  C   UNL     1      -0.239   0.013   0.371  0.00  0.00    +0.225 C 
ENDBRANCH  17  19
ENDBRANCH  11  17
ENDBRANCH   1  16
BRANCH   9  20
ATOM     20  N   UNL     1      -6.765  -3.190   2.397  0.00  0.00    -0.328 N 
ATOM     21  H   UNL     1      -7.557  -3.745   2.323  0.00  0.00    +0.145 HD
ATOM     22  H   UNL     1      -6.474  -2.873   3.266  0.00  0.00    +0.145 HD
ENDBRANCH   9  20
BRANCH  10  23
ATOM     23  C   UNL     1      -4.559  -1.635   2.697  0.00  0.00    +0.101 C 
ATOM     24  N   UNL     1      -4.244  -1.282   3.729  0.00  0.00    -0.191 NA
ENDBRANCH  10  23
BRANCH   5  25
ATOM     25  O   UNL     1      -7.075  -2.441  -4.552  0.00  0.00    -0.423 OA
BRANCH  25  26
ATOM     26  C   UNL     1      -8.312  -1.924  -4.620  0.00  0.00    +0.353 C 
ATOM     27  O   UNL     1      -8.731  -1.238  -3.718  0.00  0.00    -0.246 OA
BRANCH  26  28
ATOM     28  C   UNL     1      -9.180  -2.200  -5.821  0.00  0.00    +0.279 C 
ATOM     29  C   UNL     1      -9.504  -3.694  -5.883  0.00  0.00    +0.064 C 
BRANCH  28  30
ATOM     30  O   UNL     1     -10.393  -1.454  -5.714  0.00  0.00    -0.478 OA
BRANCH  30  31
ATOM     31  C   UNL     1     -11.063  -1.197  -6.869  0.00  0.00    +0.122 A 
ATOM     32  C   UNL     1     -12.284  -0.538  -6.832  0.00  0.00    +0.046 A 
ATOM     33  C   UNL     1     -12.962  -0.278  -8.007  0.00  0.00    +0.007 A 
ATOM     34  C   UNL     1     -12.426  -0.673  -9.218  0.00  0.00    -0.045 A 
ATOM     35  C   UNL     1     -11.210  -1.330  -9.258  0.00  0.00    +0.007 A 
ATOM     36  C   UNL     1     -10.524  -1.587  -8.086  0.00  0.00    +0.046 A 
BRANCH  34  37
ATOM     37  C   UNL     1     -13.169  -0.388 -10.498  0.00  0.00    +0.013 C 
ATOM     38  C   UNL     1     -12.304   0.490 -11.405  0.00  0.00    +0.012 C 
ATOM     39  C   UNL     1     -13.482  -1.705 -11.210  0.00  0.00    +0.012 C 
ENDBRANCH  34  37
ENDBRANCH  30  31
ENDBRANCH  28  30
ENDBRANCH  26  28
ENDBRANCH  25  26
ENDBRANCH   5  25
TORSDOF 11
