REMARK  Name = ZINC16609822
REMARK  11 active torsions:
REMARK  status: ('A' for Active; 'I' for Inactive)
REMARK    1  A    between atoms: C_1  and  C_2
REMARK    2  A    between atoms: C_2  and  N_3
REMARK    3  A    between atoms: C_4  and  C_33
REMARK    4  A    between atoms: C_5  and  C_28
REMARK    5  A    between atoms: C_6  and  C_11
REMARK    6  A    between atoms: C_15  and  N_17
REMARK    7  A    between atoms: C_18  and  C_20
REMARK    8  A    between atoms: C_21  and  C_22
REMARK    9  A    between atoms: C_28  and  O_30
REMARK   10  A    between atoms: O_30  and  C_31
REMARK   11  A    between atoms: C_31  and  C_32
REMARK                            x       y       z     vdW  Elec       q    Type
REMARK                         _______ _______ _______ _____ _____    ______ ____
ROOT
ATOM      1  C   UNL     1       1.249   3.323  -0.750  0.00  0.00    -0.021 A 
ATOM      2  C   UNL     1       0.756   3.059  -2.015  0.00  0.00    +0.006 A 
ATOM      3  C   UNL     1       0.478   4.099  -2.883  0.00  0.00    +0.002 A 
ATOM      4  C   UNL     1       0.691   5.406  -2.489  0.00  0.00    +0.023 A 
ATOM      5  C   UNL     1       1.185   5.674  -1.219  0.00  0.00    +0.034 A 
ATOM      6  C   UNL     1       1.459   4.627  -0.348  0.00  0.00    +0.029 A 
ENDROOT
BRANCH   1  10
ATOM      7  N   UNL     1       2.099  -0.427  -0.529  0.00  0.00    -0.286 N 
ATOM      8  C   UNL     1       3.154   0.431  -0.422  0.00  0.00    +0.021 C 
ATOM      9  C   UNL     1       2.969   1.724  -0.074  0.00  0.00    +0.078 C 
ATOM     10  C   UNL     1       1.551   2.187   0.192  0.00  0.00    +0.141 C 
ATOM     11  N   UNL     1       0.484   1.182   0.049  0.00  0.00    -0.315 N 
ATOM     12  C   UNL     1       0.827  -0.072  -0.305  0.00  0.00    +0.138 C 
ATOM     13  S   UNL     1      -0.404  -1.250  -0.476  0.00  0.00    -0.018 S 
ATOM     14  C   UNL     1       4.548  -0.071  -0.695  0.00  0.00    +0.061 C 
ATOM     15  H   UNL     1      -0.444   1.419   0.202  0.00  0.00    +0.149 HD
BRANCH   7  17
ATOM     16  C   UNL     1       2.748  -2.621   0.334  0.00  0.00    +0.025 C 
ATOM     17  C   UNL     1       2.372  -1.815  -0.910  0.00  0.00    +0.109 C 
ENDBRANCH   7  17
BRANCH   9  18
ATOM     18  C   UNL     1       4.062   2.614   0.037  0.00  0.00    +0.339 C 
ATOM     19  O   UNL     1       5.193   2.221  -0.182  0.00  0.00    -0.245 OA
BRANCH  18  20
ATOM     20  O   UNL     1       3.852   3.901   0.385  0.00  0.00    -0.462 OA
BRANCH  20  21
ATOM     21  C   UNL     1       5.001   4.744   0.478  0.00  0.00    +0.229 C 
ATOM     22  C   UNL     1       4.567   6.155   0.882  0.00  0.00    +0.048 C 
ENDBRANCH  20  21
ENDBRANCH  18  20
ENDBRANCH   9  18
ENDBRANCH   1  10
BRANCH   5  23
ATOM     23  N   UNL     1       1.402   6.996  -0.816  0.00  0.00    -0.282 N 
ATOM     24  C   UNL     1       1.786   7.920  -1.718  0.00  0.00    +0.241 C 
ATOM     25  O   UNL     1       2.038   7.588  -2.861  0.00  0.00    -0.270 OA
ATOM     26  H   UNL     1       1.276   7.247   0.112  0.00  0.00    +0.155 HD
BRANCH  24  27
ATOM     27  C   UNL     1       1.902   9.325  -1.322  0.00  0.00    +0.068 C 
ATOM     28  C   UNL     1       2.286  10.250  -2.225  0.00  0.00    +0.013 C 
BRANCH  28  29
ATOM     29  C   UNL     1       2.402  11.663  -1.827  0.00  0.00    -0.025 A 
ATOM     30  C   UNL     1       2.109  12.050  -0.515  0.00  0.00    +0.008 A 
ATOM     31  C   UNL     1       2.224  13.374  -0.149  0.00  0.00    +0.001 A 
ATOM     32  C   UNL     1       2.620  14.321  -1.078  0.00  0.00    +0.000 A 
ATOM     33  C   UNL     1       2.907  13.946  -2.379  0.00  0.00    +0.001 A 
ATOM     34  C   UNL     1       2.801  12.625  -2.760  0.00  0.00    +0.008 A 
ENDBRANCH  28  29
ENDBRANCH  24  27
ENDBRANCH   5  23
TORSDOF 8
