REMARK  Name = ZINC36340197
REMARK  10 active torsions:
REMARK  status: ('A' for Active; 'I' for Inactive)
REMARK    1  A    between atoms: C_1  and  C_2
REMARK    2  A    between atoms: C_3  and  C_31
REMARK    3  A    between atoms: C_4  and  N_14
REMARK    4  A    between atoms: C_6  and  C_8
REMARK    5  A    between atoms: N_17  and  C_20
REMARK    6  A    between atoms: C_20  and  C_21
REMARK    7  A    between atoms: C_21  and  C_23
REMARK    8  A    between atoms: C_21  and  O_30
REMARK    9  A    between atoms: C_23  and  C_24
REMARK   10  A    between atoms: C_31  and  C_32
REMARK                            x       y       z     vdW  Elec       q    Type
REMARK                         _______ _______ _______ _____ _____    ______ ____
ROOT
ATOM      1  C   UNL     1      -2.330  -1.067   1.750  0.00  0.00    +0.066 C 
ATOM      2  C   UNL     1      -1.102  -1.340   0.921  0.00  0.00    +0.047 A 
ATOM      3  C   UNL     1      -1.221  -1.864  -0.352  0.00  0.00    +0.018 A 
ATOM      4  C   UNL     1      -0.057  -2.102  -1.087  0.00  0.00    +0.129 A 
ATOM      5  N   UNL     1       1.120  -1.819  -0.540  0.00  0.00    -0.212 NA
ATOM      6  C   UNL     1       1.192  -1.317   0.685  0.00  0.00    +0.162 A 
ATOM      7  N   UNL     1       0.103  -1.076   1.402  0.00  0.00    -0.232 NA
ENDROOT
BRANCH   6   8
ATOM      8  C   UNL     1       2.522  -1.012   1.265  0.00  0.00    +0.019 A 
ATOM      9  C   UNL     1       3.679  -1.248   0.524  0.00  0.00    +0.011 A 
ATOM     10  C   UNL     1       4.914  -0.962   1.068  0.00  0.00    +0.001 A 
ATOM     11  C   UNL     1       5.006  -0.443   2.347  0.00  0.00    +0.000 A 
ATOM     12  C   UNL     1       3.861  -0.207   3.087  0.00  0.00    +0.001 A 
ATOM     13  C   UNL     1       2.620  -0.484   2.551  0.00  0.00    +0.011 A 
ENDBRANCH   6   8
BRANCH   4  14
ATOM     14  N   UNL     1      -0.129  -2.627  -2.367  0.00  0.00    -0.312 N 
ATOM     15  C   UNL     1      -0.060  -1.752  -3.547  0.00  0.00    +0.122 C 
ATOM     16  C   UNL     1       1.008  -2.300  -4.499  0.00  0.00    +0.103 C 
ATOM     17  N   UNL     1       0.724  -3.711  -4.789  0.00  0.00    -0.297 NA
ATOM     18  C   UNL     1       0.802  -4.531  -3.572  0.00  0.00    +0.103 C 
ATOM     19  C   UNL     1      -0.269  -4.075  -2.583  0.00  0.00    +0.122 C 
BRANCH  17  20
ATOM     20  C   UNL     1       1.623  -4.227  -5.829  0.00  0.00    +0.116 C 
BRANCH  20  21
ATOM     21  C   UNL     1       1.143  -5.608  -6.281  0.00  0.00    +0.133 C 
BRANCH  21  22
ATOM     22  O   UNL     1      -0.134  -5.485  -6.911  0.00  0.00    -0.390 OA
ATOM     23  H   UNL     1      -0.134  -4.914  -7.691  0.00  0.00    +0.210 HD
ENDBRANCH  21  22
BRANCH  21  24
ATOM     24  C   UNL     1       2.147  -6.198  -7.273  0.00  0.00    +0.067 C 
BRANCH  24  25
ATOM     25  C   UNL     1       1.739  -7.606  -7.623  0.00  0.00    -0.045 A 
ATOM     26  C   UNL     1       2.202  -8.668  -6.869  0.00  0.00    +0.004 A 
ATOM     27  C   UNL     1       1.828  -9.959  -7.191  0.00  0.00    +0.000 A 
ATOM     28  C   UNL     1       0.989 -10.188  -8.266  0.00  0.00    +0.000 A 
ATOM     29  C   UNL     1       0.525  -9.126  -9.019  0.00  0.00    +0.000 A 
ATOM     30  C   UNL     1       0.896  -7.834  -8.695  0.00  0.00    +0.004 A 
ENDBRANCH  24  25
ENDBRANCH  21  24
ENDBRANCH  20  21
ENDBRANCH  17  20
ENDBRANCH   4  14
BRANCH   3  31
ATOM     31  C   UNL     1      -2.576  -2.172  -0.935  0.00  0.00    +0.075 C 
BRANCH  31  32
ATOM     32  C   UNL     1      -3.160  -0.920  -1.538  0.00  0.00    -0.040 A 
ATOM     33  C   UNL     1      -3.820  -0.009  -0.734  0.00  0.00    +0.004 A 
ATOM     34  C   UNL     1      -4.356   1.140  -1.286  0.00  0.00    +0.003 A 
ATOM     35  C   UNL     1      -4.233   1.378  -2.642  0.00  0.00    +0.038 A 
ATOM     36  C   UNL     1      -3.573   0.466  -3.448  0.00  0.00    +0.124 A 
ATOM     37  C   UNL     1      -3.031  -0.681  -2.893  0.00  0.00    +0.042 A 
ATOM     38  F   UNL     1      -3.453   0.698  -4.773  0.00  0.00    -0.205 F 
ENDBRANCH  31  32
ENDBRANCH   3  31
TORSDOF 9
