REMARK  Name = ZINC09414211
REMARK  7 active torsions:
REMARK  status: ('A' for Active; 'I' for Inactive)
REMARK    1  A    between atoms: C_1  and  C_2
REMARK    2  A    between atoms: C_2  and  O_3
REMARK    3  A    between atoms: O_3  and  C_4
REMARK    4  A    between atoms: C_7  and  C_10
REMARK    5  A    between atoms: C_17  and  N_31
REMARK    6  A    between atoms: C_18  and  C_29
REMARK    7  A    between atoms: C_19  and  C_21
REMARK                            x       y       z     vdW  Elec       q    Type
REMARK                         _______ _______ _______ _____ _____    ______ ____
ROOT
ATOM      1  C   UNL     1       1.098  -6.056  -1.864  0.00  0.00    +0.074 A 
ATOM      2  C   UNL     1       2.195  -6.709  -2.318  0.00  0.00    +0.054 A 
ATOM      3  C   UNL     1       1.908  -8.088  -2.334  0.00  0.00    +0.245 A 
ATOM      4  N   UNL     1       0.689  -8.258  -1.907  0.00  0.00    -0.135 NA
ATOM      5  N   UNL     1       0.148  -7.001  -1.595  0.00  0.00    -0.273 N 
ATOM      6  H   UNL     1      -0.743  -6.832  -1.252  0.00  0.00    +0.189 HD
ATOM      7  O   UNL     1       2.822  -9.010  -2.742  0.00  0.00    -0.421 OA
ATOM      8  C   UNL     1       4.099  -8.602  -2.876  0.00  0.00    +0.201 C 
ATOM      9  C   UNL     1       4.492  -7.311  -2.888  0.00  0.00    +0.098 C 
ATOM     10  C   UNL     1       3.528  -6.158  -2.756  0.00  0.00    +0.106 C 
ENDROOT
BRANCH  10  11
ATOM     11  C   UNL     1       3.380  -5.463  -4.085  0.00  0.00    +0.019 A 
ATOM     12  C   UNL     1       2.814  -6.132  -5.157  0.00  0.00    +0.129 A 
ATOM     13  C   UNL     1       2.679  -5.492  -6.377  0.00  0.00    +0.039 A 
ATOM     14  C   UNL     1       3.109  -4.186  -6.524  0.00  0.00    +0.004 A 
ATOM     15  C   UNL     1       3.674  -3.519  -5.454  0.00  0.00    +0.020 A 
ATOM     16  C   UNL     1       3.805  -4.155  -4.232  0.00  0.00    +0.048 A 
ATOM     17 CL   UNL     1       4.508  -3.314  -2.887  0.00  0.00    -0.083 Cl
ATOM     18  F   UNL     1       2.394  -7.407  -5.012  0.00  0.00    -0.205 F 
ENDBRANCH  10  11
BRANCH   1  22
ATOM     19  C   UNL     1       0.695  -1.857  -1.351  0.00  0.00    +0.121 A 
ATOM     20  C   UNL     1      -0.301  -2.574  -2.002  0.00  0.00    +0.046 A 
ATOM     21  C   UNL     1      -0.173  -3.936  -2.170  0.00  0.00    +0.013 A 
ATOM     22  C   UNL     1       0.958  -4.594  -1.686  0.00  0.00    +0.000 A 
ATOM     23  C   UNL     1       1.956  -3.870  -1.033  0.00  0.00    +0.013 A 
ATOM     24  C   UNL     1       1.824  -2.507  -0.873  0.00  0.00    +0.046 A 
BRANCH  19  25
ATOM     25  O   UNL     1       0.566  -0.514  -1.187  0.00  0.00    -0.492 OA
BRANCH  25  27
ATOM     26  C   UNL     1      -0.588   1.596  -1.427  0.00  0.00    +0.048 C 
ATOM     27  C   UNL     1      -0.621   0.091  -1.703  0.00  0.00    +0.225 C 
ENDBRANCH  25  27
ENDBRANCH  19  25
ENDBRANCH   1  22
BRANCH   8  28
ATOM     28  N   UNL     1       5.067  -9.565  -3.009  0.00  0.00    -0.328 N 
ATOM     29  H   UNL     1       4.822 -10.504  -3.005  0.00  0.00    +0.145 HD
ATOM     30  H   UNL     1       5.997  -9.308  -3.107  0.00  0.00    +0.145 HD
ENDBRANCH   8  28
BRANCH   9  31
ATOM     31  C   UNL     1       5.887  -7.022  -3.034  0.00  0.00    +0.101 C 
ATOM     32  N   UNL     1       6.993  -6.793  -3.149  0.00  0.00    -0.191 NA
ENDBRANCH   9  31
TORSDOF 6
