REMARK  Name = ZINC21481173
REMARK  9 active torsions:
REMARK  status: ('A' for Active; 'I' for Inactive)
REMARK    1  A    between atoms: C_3  and  S_23
REMARK    2  A    between atoms: C_6  and  C_7
REMARK    3  A    between atoms: C_7  and  C_8
REMARK    4  A    between atoms: C_8  and  C_9
REMARK    5  A    between atoms: C_9  and  O_11
REMARK    6  A    between atoms: O_11  and  C_12
REMARK    7  A    between atoms: C_12  and  C_13
REMARK    8  A    between atoms: N_15  and  C_16
REMARK    9  A    between atoms: S_23  and  N_26
REMARK                            x       y       z     vdW  Elec       q    Type
REMARK                         _______ _______ _______ _____ _____    ______ ____
ROOT
ATOM      1  C   UNL     1      -3.035  -1.808  -1.420  0.00  0.00    +0.308 C 
ATOM      2  O   UNL     1      -3.539  -2.131  -0.370  0.00  0.00    -0.251 OA
ENDROOT
BRANCH   1   3
ATOM      3  C   UNL     1      -1.742  -1.034  -1.428  0.00  0.00    +0.125 C 
BRANCH   3   4
ATOM      4  C   UNL     1      -1.285  -0.789   0.011  0.00  0.00    +0.046 C 
BRANCH   4  10
ATOM      5  C   UNL     1      -0.014   1.367   0.019  0.00  0.00    +0.005 A 
ATOM      6  C   UNL     1       1.172   2.077   0.011  0.00  0.00    +0.029 A 
ATOM      7  C   UNL     1       2.380   1.405  -0.012  0.00  0.00    +0.105 A 
ATOM      8  C   UNL     1       2.402   0.023  -0.028  0.00  0.00    +0.029 A 
ATOM      9  C   UNL     1       1.216  -0.687  -0.019  0.00  0.00    +0.005 A 
ATOM     10  C   UNL     1       0.008  -0.015   0.003  0.00  0.00    -0.047 A 
BRANCH   7  11
ATOM     11  S   UNL     1       3.892   2.310  -0.022  0.00  0.00    +0.056 S 
ATOM     12  O   UNL     1       4.872   1.456  -0.596  0.00  0.00    -0.153 OA
ATOM     13  O   UNL     1       3.593   3.593  -0.556  0.00  0.00    -0.153 OA
BRANCH  11  14
ATOM     14  N   UNL     1       4.333   2.545   1.556  0.00  0.00    -0.204 NA
ATOM     15  H   UNL     1       5.271   2.612   1.793  0.00  0.00    +0.144 HD
ATOM     16  H   UNL     1       3.653   2.615   2.245  0.00  0.00    +0.144 HD
ENDBRANCH  11  14
ENDBRANCH   7  11
ENDBRANCH   4  10
ENDBRANCH   3   4
ENDBRANCH   1   3
BRANCH   1  17
ATOM     17  O   UNL     1      -3.626  -2.140  -2.578  0.00  0.00    -0.455 OA
BRANCH  17  18
ATOM     18  C   UNL     1      -4.850  -2.873  -2.495  0.00  0.00    +0.328 C 
BRANCH  18  19
ATOM     19  C   UNL     1      -5.363  -3.153  -3.885  0.00  0.00    +0.255 C 
ATOM     20  O   UNL     1      -4.742  -2.763  -4.851  0.00  0.00    -0.272 OA
ATOM     21  N   UNL     1      -6.511  -3.838  -4.054  0.00  0.00    -0.283 N 
ATOM     22  H   UNL     1      -6.973  -4.208  -3.285  0.00  0.00    +0.155 HD
BRANCH  21  23
ATOM     23  C   UNL     1      -7.038  -4.014  -5.338  0.00  0.00    +0.034 A 
ATOM     24  C   UNL     1      -8.413  -4.015  -5.532  0.00  0.00    +0.024 A 
ATOM     25  C   UNL     1      -8.931  -4.188  -6.801  0.00  0.00    +0.017 A 
ATOM     26  C   UNL     1      -8.080  -4.362  -7.878  0.00  0.00    +0.018 A 
ATOM     27  C   UNL     1      -6.710  -4.362  -7.688  0.00  0.00    +0.017 A 
ATOM     28  C   UNL     1      -6.187  -4.183  -6.422  0.00  0.00    +0.024 A 
ATOM     29 BR   UNL     1      -8.792  -4.600  -9.614  0.00  0.00    -0.050 Br
ENDBRANCH  21  23
ENDBRANCH  18  19
ENDBRANCH  17  18
ENDBRANCH   1  17
TORSDOF 9
