REMARK  Name = ZINC63383500
REMARK  10 active torsions:
REMARK  status: ('A' for Active; 'I' for Inactive)
REMARK    1  A    between atoms: C_1  and  C_2
REMARK    2  A    between atoms: C_2  and  C_3
REMARK    3  A    between atoms: C_3  and  N_4
REMARK    4  A    between atoms: C_5  and  C_7
REMARK    5  A    between atoms: C_7  and  C_9
REMARK    6  A    between atoms: C_7  and  N_14
REMARK    7  A    between atoms: C_9  and  C_11
REMARK    8  A    between atoms: C_9  and  C_12
REMARK    9  A    between atoms: C_12  and  C_13
REMARK   10  A    between atoms: C_15  and  C_17
REMARK                            x       y       z     vdW  Elec       q    Type
REMARK                         _______ _______ _______ _____ _____    ______ ____
ROOT
ATOM      1  C   UNL     1      -3.065  -7.239   0.599  0.00  0.00    +0.167 C 
ATOM      2  C   UNL     1      -3.897  -6.787   1.815  0.00  0.00    +0.065 C 
ATOM      3  C   UNL     1      -3.580  -7.736   2.944  0.00  0.00    -0.034 C 
ATOM      4  C   UNL     1      -4.387  -8.434   3.737  0.00  0.00    -0.001 A 
ATOM      5  C   UNL     1      -5.853  -8.461   3.860  0.00  0.00    +0.010 A 
ATOM      6  C   UNL     1      -6.362  -9.321   4.781  0.00  0.00    +0.001 A 
ATOM      7  C   UNL     1      -5.568 -10.148   5.582  0.00  0.00    +0.002 A 
ATOM      8  C   UNL     1      -4.212 -10.184   5.541  0.00  0.00    +0.026 A 
ATOM      9  C   UNL     1      -3.561  -9.318   4.615  0.00  0.00    +0.043 A 
ATOM     10  N   UNL     1      -2.296  -9.135   4.380  0.00  0.00    -0.375 N 
ATOM     11  C   UNL     1      -2.161  -8.082   3.373  0.00  0.00    +0.131 C 
ATOM     12  C   UNL     1      -1.417  -8.568   2.130  0.00  0.00    +0.134 C 
ATOM     13  N   UNL     1      -2.329  -8.453   0.974  0.00  0.00    -0.276 N 
ATOM     14  C   UNL     1      -2.378  -9.643   0.346  0.00  0.00    +0.248 C 
ATOM     15  O   UNL     1      -2.941  -9.850  -0.712  0.00  0.00    -0.270 OA
ATOM     16  C   UNL     1      -1.655 -10.651   1.123  0.00  0.00    +0.042 A 
ATOM     17  C   UNL     1      -1.038 -10.008   2.243  0.00  0.00    -0.013 A 
ATOM     18  C   UNL     1      -0.280 -10.690   3.169  0.00  0.00    +0.006 A 
ATOM     19  C   UNL     1      -0.115 -12.057   2.966  0.00  0.00    +0.000 A 
ATOM     20  C   UNL     1      -0.682 -12.707   1.888  0.00  0.00    +0.001 A 
ATOM     21  C   UNL     1      -1.496 -12.024   0.915  0.00  0.00    +0.013 A 
ATOM     22  H   UNL     1      -1.565  -9.615   4.801  0.00  0.00    +0.160 HD
ENDROOT
BRANCH   1  24
ATOM     23  N   UNL     1      -2.550  -4.939  -0.152  0.00  0.00    -0.302 N 
ATOM     24  C   UNL     1      -2.093  -6.152   0.216  0.00  0.00    +0.235 C 
ATOM     25  O   UNL     1      -0.900  -6.370   0.240  0.00  0.00    -0.274 OA
ATOM     26  H   UNL     1      -3.498  -4.742  -0.103  0.00  0.00    +0.150 HD
BRANCH  23  27
ATOM     27  C   UNL     1      -1.613  -3.918  -0.628  0.00  0.00    +0.162 C 
BRANCH  27  29
ATOM     28  N   UNL     1      -1.305  -1.474  -0.398  0.00  0.00    -0.314 N 
ATOM     29  C   UNL     1      -2.051  -2.564  -0.130  0.00  0.00    +0.234 C 
ATOM     30  O   UNL     1      -3.074  -2.456   0.513  0.00  0.00    -0.274 OA
ATOM     31  H   UNL     1      -0.447  -1.570  -0.840  0.00  0.00    +0.149 HD
BRANCH  28  32
ATOM     32  C   UNL     1      -1.790  -0.144  -0.022  0.00  0.00    +0.104 C 
BRANCH  32  34
ATOM     33  C   UNL     1      -1.268   2.299  -0.044  0.00  0.00    +0.005 C 
ATOM     34  C   UNL     1      -0.762   0.910  -0.436  0.00  0.00    +0.015 C 
ENDBRANCH  32  34
ENDBRANCH  28  32
ENDBRANCH  27  29
BRANCH  27  35
ATOM     35  C   UNL     1      -1.594  -3.916  -2.158  0.00  0.00    +0.015 C 
ATOM     36  C   UNL     1      -0.989  -5.228  -2.662  0.00  0.00    +0.010 C 
BRANCH  35  37
ATOM     37  C   UNL     1      -3.024  -3.778  -2.686  0.00  0.00    +0.002 C 
ATOM     38  C   UNL     1      -3.561  -2.386  -2.346  0.00  0.00    +0.004 C 
ENDBRANCH  35  37
ENDBRANCH  27  35
ENDBRANCH  23  27
ENDBRANCH   1  24
TORSDOF 7
