REMARK  Name = ZINC35266790
REMARK  11 active torsions:
REMARK  status: ('A' for Active; 'I' for Inactive)
REMARK    1  A    between atoms: C_1  and  C_2
REMARK    2  A    between atoms: C_2  and  C_3
REMARK    3  A    between atoms: C_3  and  C_5
REMARK    4  A    between atoms: C_3  and  C_6
REMARK    5  A    between atoms: C_6  and  C_8
REMARK    6  A    between atoms: C_6  and  N_23
REMARK    7  A    between atoms: C_14  and  C_16
REMARK    8  A    between atoms: C_24  and  C_26
REMARK    9  A    between atoms: C_26  and  C_27
REMARK   10  A    between atoms: C_26  and  C_28
REMARK   11  A    between atoms: C_26  and  C_29
REMARK                            x       y       z     vdW  Elec       q    Type
REMARK                         _______ _______ _______ _____ _____    ______ ____
ROOT
ATOM      1  C   UNL     1      -2.395   1.214   1.607  0.00  0.00    +0.239 C 
ATOM      2  O   UNL     1      -3.525   1.647   1.689  0.00  0.00    -0.273 OA
ATOM      3  N   UNL     1      -1.345   2.058   1.650  0.00  0.00    -0.262 N 
ATOM      4  C   UNL     1      -1.550   3.410   1.896  0.00  0.00    +0.188 A 
ATOM      5  N   UNL     1      -2.677   4.074   2.119  0.00  0.00    -0.125 NA
ATOM      6  N   UNL     1      -2.687   5.318   2.327  0.00  0.00    -0.140 NA
ATOM      7  C   UNL     1      -1.571   6.037   2.336  0.00  0.00    +0.134 A 
ATOM      8  S   UNL     1      -0.369   4.750   2.010  0.00  0.00    -0.030 S 
ATOM      9  H   UNL     1      -0.446   1.721   1.509  0.00  0.00    +0.157 HD
ENDROOT
BRANCH   7  10
ATOM     10  C   UNL     1      -1.375   7.485   2.558  0.00  0.00    +0.009 A 
ATOM     11  C   UNL     1      -0.092   8.034   2.515  0.00  0.00    +0.012 A 
ATOM     12  C   UNL     1       0.084   9.386   2.724  0.00  0.00    +0.020 A 
ATOM     13  C   UNL     1      -1.009  10.199   2.974  0.00  0.00    +0.041 A 
ATOM     14  C   UNL     1      -2.284   9.660   3.018  0.00  0.00    +0.020 A 
ATOM     15  C   UNL     1      -2.473   8.311   2.805  0.00  0.00    +0.012 A 
ATOM     16 CL   UNL     1      -0.779  11.899   3.236  0.00  0.00    -0.084 Cl
ENDBRANCH   7  10
BRANCH   1  17
ATOM     17  C   UNL     1      -2.165  -0.268   1.456  0.00  0.00    +0.162 C 
BRANCH  17  18
ATOM     18  N   UNL     1      -3.369  -0.993   1.867  0.00  0.00    -0.303 N 
ATOM     19  C   UNL     1      -3.275  -2.266   2.301  0.00  0.00    +0.220 C 
ATOM     20  O   UNL     1      -2.192  -2.810   2.351  0.00  0.00    -0.275 OA
ATOM     21  H   UNL     1      -4.235  -0.558   1.826  0.00  0.00    +0.149 HD
BRANCH  19  22
ATOM     22  C   UNL     1      -4.514  -3.012   2.724  0.00  0.00    +0.055 C 
ATOM     23  C   UNL     1      -5.182  -2.274   3.885  0.00  0.00    +0.022 C 
ATOM     24  C   UNL     1      -5.486  -3.095   1.545  0.00  0.00    +0.022 C 
BRANCH  22  25
ATOM     25  C   UNL     1      -4.131  -4.425   3.170  0.00  0.00    +0.124 C 
ATOM     26 CL   UNL     1      -5.614  -5.318   3.675  0.00  0.00    -0.124 Cl
ENDBRANCH  22  25
ENDBRANCH  19  22
ENDBRANCH  17  18
BRANCH  17  27
ATOM     27  C   UNL     1      -1.850  -0.589  -0.007  0.00  0.00    +0.015 C 
ATOM     28  C   UNL     1      -3.089  -0.325  -0.865  0.00  0.00    +0.010 C 
BRANCH  27  30
ATOM     29  C   UNL     1      -0.128  -2.292   0.608  0.00  0.00    +0.004 C 
ATOM     30  C   UNL     1      -1.448  -2.060  -0.131  0.00  0.00    +0.002 C 
ENDBRANCH  27  30
ENDBRANCH  17  27
ENDBRANCH   1  17
TORSDOF 7
