REMARK  Name = ZINC10698822
REMARK  6 active torsions:
REMARK  status: ('A' for Active; 'I' for Inactive)
REMARK    1  A    between atoms: C_1  and  C_2
REMARK    2  A    between atoms: C_5  and  C_8
REMARK    3  A    between atoms: C_8  and  C_9
REMARK    4  A    between atoms: C_9  and  N_11
REMARK    5  A    between atoms: N_13  and  C_24
REMARK    6  A    between atoms: C_24  and  C_25
REMARK                            x       y       z     vdW  Elec       q    Type
REMARK                         _______ _______ _______ _____ _____    ______ ____
ROOT
ATOM      1  N   UNL     1       1.395  -1.985  -0.022  0.00  0.00    -0.156 NA
ATOM      2  C   UNL     1       1.187  -0.670  -0.013  0.00  0.00    +0.167 A 
ATOM      3  N   UNL     1       0.002  -0.004   0.002  0.00  0.00    -0.309 N 
ATOM      4  C   UNL     1      -0.017   1.380   0.010  0.00  0.00    +0.062 A 
ATOM      5  C   UNL     1      -1.131   2.233   0.019  0.00  0.00    +0.076 A 
ATOM      6  C   UNL     1      -0.975   3.604   0.031  0.00  0.00    +0.168 A 
ATOM      7  C   UNL     1       0.298   4.175   0.023  0.00  0.00    +0.167 A 
ATOM      8  C   UNL     1       1.412   3.352   0.007  0.00  0.00    +0.066 A 
ATOM      9  C   UNL     1       1.247   1.986   0.001  0.00  0.00    +0.043 A 
ATOM     10  S   UNL     1       2.362   0.605  -0.018  0.00  0.00    -0.052 S 
ATOM     11  O   UNL     1       0.172   5.533   0.033  0.00  0.00    -0.453 OA
ATOM     12  C   UNL     1      -1.179   5.790   0.459  0.00  0.00    +0.466 C 
ATOM     13  O   UNL     1      -1.898   4.613   0.044  0.00  0.00    -0.453 OA
ENDROOT
BRANCH   1  14
ATOM     14  C   UNL     1       2.635  -2.461  -0.036  0.00  0.00    +0.243 C 
ATOM     15  O   UNL     1       3.580  -1.696  -0.041  0.00  0.00    -0.273 OA
BRANCH  14  16
ATOM     16  C   UNL     1       2.870  -3.950  -0.046  0.00  0.00    +0.133 C 
BRANCH  16  21
ATOM     17  C   UNL     1       8.553  -5.000  -0.106  0.00  0.00    +0.044 C 
ATOM     18  C   UNL     1       7.071  -4.726  -0.091  0.00  0.00    -0.050 A 
ATOM     19  C   UNL     1       6.403  -4.607   1.114  0.00  0.00    +0.003 A 
ATOM     20  C   UNL     1       5.043  -4.355   1.128  0.00  0.00    +0.004 A 
ATOM     21  C   UNL     1       4.352  -4.223  -0.062  0.00  0.00    -0.039 A 
ATOM     22  C   UNL     1       5.019  -4.348  -1.266  0.00  0.00    +0.004 A 
ATOM     23  C   UNL     1       6.379  -4.596  -1.281  0.00  0.00    +0.003 A 
ENDBRANCH  16  21
ENDBRANCH  14  16
ENDBRANCH   1  14
BRANCH   3  24
ATOM     24  C   UNL     1      -1.257  -0.753   0.011  0.00  0.00    +0.212 C 
BRANCH  24  25
ATOM     25  C   UNL     1      -1.693  -0.996  -1.374  0.00  0.00    -0.084 C 
ATOM     26  C   UNL     1      -2.040  -1.190  -2.479  0.00  0.00    +0.005 C 
ENDBRANCH  24  25
ENDBRANCH   3  24
TORSDOF 5
