REMARK  Name = ZINC08764275
REMARK  8 active torsions:
REMARK  status: ('A' for Active; 'I' for Inactive)
REMARK    1  A    between atoms: C_1  and  C_2
REMARK    2  A    between atoms: C_6  and  O_31
REMARK    3  A    between atoms: C_7  and  O_30
REMARK    4  A    between atoms: C_12  and  C_13
REMARK    5  A    between atoms: C_13  and  C_14
REMARK    6  A    between atoms: N_16  and  C_17
REMARK    7  A    between atoms: C_17  and  C_18
REMARK    8  A    between atoms: C_18  and  C_19
REMARK                            x       y       z     vdW  Elec       q    Type
REMARK                         _______ _______ _______ _____ _____    ______ ____
ROOT
ATOM      1  C   UNL     1       1.111   3.600   0.011  0.00  0.00    +0.138 C 
ENDROOT
BRANCH   1  13
ATOM      2  C   UNL     1       3.663   2.248  -0.020  0.00  0.00    +0.045 C 
ATOM      3  C   UNL     1       2.376   1.463  -0.012  0.00  0.00    -0.029 A 
ATOM      4  C   UNL     1       2.389  -0.002  -0.021  0.00  0.00    +0.025 A 
ATOM      5  C   UNL     1       3.595  -0.712  -0.037  0.00  0.00    +0.015 A 
ATOM      6  C   UNL     1       3.580  -2.077  -0.044  0.00  0.00    +0.050 A 
ATOM      7  C   UNL     1       2.373  -2.770  -0.036  0.00  0.00    +0.162 A 
ATOM      8  C   UNL     1       1.166  -2.084  -0.021  0.00  0.00    +0.202 A 
ATOM      9  C   UNL     1       1.164  -0.693  -0.013  0.00  0.00    +0.184 A 
ATOM     10  O   UNL     1       0.002  -0.004   0.002  0.00  0.00    -0.418 OA
ATOM     11  C   UNL     1      -0.016   1.338   0.009  0.00  0.00    +0.341 A 
ATOM     12  O   UNL     1      -1.088   1.917   0.018  0.00  0.00    -0.245 OA
ATOM     13  C   UNL     1       1.174   2.095   0.002  0.00  0.00    +0.049 A 
BRANCH   8  14
ATOM     14  O   UNL     1      -0.010  -2.769  -0.013  0.00  0.00    -0.501 OA
ATOM     15  H   UNL     1      -0.359  -2.962  -0.894  0.00  0.00    +0.292 HD
ENDBRANCH   8  14
BRANCH   7  16
ATOM     16  O   UNL     1       2.375  -4.129  -0.044  0.00  0.00    -0.503 OA
ATOM     17  H   UNL     1       2.367  -4.517  -0.929  0.00  0.00    +0.292 HD
ENDBRANCH   7  16
ENDBRANCH   1  13
BRANCH   1  18
ATOM     18  C   UNL     1       1.104   4.095   1.434  0.00  0.00    +0.218 C 
ATOM     19  O   UNL     1       1.146   3.302   2.352  0.00  0.00    -0.275 OA
ATOM     20  N   UNL     1       1.052   5.417   1.688  0.00  0.00    -0.315 N 
ATOM     21  H   UNL     1       1.019   6.051   0.955  0.00  0.00    +0.149 HD
BRANCH  20  22
ATOM     22  C   UNL     1       1.045   5.898   3.072  0.00  0.00    +0.109 C 
BRANCH  22  23
ATOM     23  C   UNL     1       0.982   7.426   3.081  0.00  0.00    +0.056 C 
BRANCH  23  24
ATOM     24  C   UNL     1       0.974   7.921   4.504  0.00  0.00    -0.021 A 
ATOM     25  C   UNL     1      -0.108   8.227   5.238  0.00  0.00    +0.087 A 
ATOM     26  N   UNL     1       0.276   8.640   6.484  0.00  0.00    -0.360 N 
ATOM     27  H   UNL     1      -0.330   8.914   7.191  0.00  0.00    +0.165 HD
ATOM     28  C   UNL     1       1.649   8.610   6.586  0.00  0.00    +0.047 A 
ATOM     29  C   UNL     1       2.146   8.153   5.352  0.00  0.00    +0.004 A 
ATOM     30  C   UNL     1       3.523   8.026   5.159  0.00  0.00    +0.030 A 
ATOM     31  C   UNL     1       4.387   8.340   6.185  0.00  0.00    +0.042 A 
ATOM     32  C   UNL     1       3.895   8.787   7.405  0.00  0.00    +0.022 A 
ATOM     33  C   UNL     1       2.539   8.922   7.608  0.00  0.00    +0.027 A 
ATOM     34 CL   UNL     1       6.099   8.178   5.952  0.00  0.00    -0.084 Cl
ENDBRANCH  23  24
ENDBRANCH  22  23
ENDBRANCH  20  22
ENDBRANCH   1  18
TORSDOF 7
