REMARK  Name = ZINC13065165
REMARK  13 active torsions:
REMARK  status: ('A' for Active; 'I' for Inactive)
REMARK    1  A    between atoms: C_1  and  C_2
REMARK    2  A    between atoms: C_2  and  C_3
REMARK    3  A    between atoms: C_3  and  C_5
REMARK    4  A    between atoms: C_3  and  N_71
REMARK    5  A    between atoms: N_9  and  C_10
REMARK    6  A    between atoms: C_10  and  C_11
REMARK    7  A    between atoms: C_10  and  C_12
REMARK    8  A    between atoms: C_10  and  C_13
REMARK    9  A    between atoms: C_14  and  C_15
REMARK   10  A    between atoms: C_14  and  N_71
REMARK   11  A    between atoms: C_18  and  C_28
REMARK   12  A    between atoms: C_21  and  C_27
REMARK   13  A    between atoms: C_29  and  N_71
REMARK                            x       y       z     vdW  Elec       q    Type
REMARK                         _______ _______ _______ _____ _____    ______ ____
ROOT
ATOM      1  N   UNL     1      -2.713   0.904   0.196  0.00  0.00    +0.391 N 
ATOM      2  H   UNL     1      -3.685   0.682   0.445  0.00  0.00    -0.080 HD
ENDROOT
BRANCH   1   3
ATOM      3  C   UNL     1      -2.601   2.358  -0.045  0.00  0.00    -0.067 C 
ATOM      4  C   UNL     1      -1.135   2.761  -0.216  0.00  0.00    -0.015 C 
ATOM      5  C   UNL     1      -1.045   4.269  -0.460  0.00  0.00    -0.002 C 
ATOM      6  C   UNL     1      -1.644   5.016   0.733  0.00  0.00    -0.000 C 
ATOM      7  C   UNL     1      -3.110   4.613   0.904  0.00  0.00    -0.002 C 
ATOM      8  C   UNL     1      -3.199   3.105   1.148  0.00  0.00    -0.015 C 
ENDBRANCH   1   3
BRANCH   1   9
ATOM      9  C   UNL     1      -1.829   0.508   1.312  0.00  0.00    +0.003 C 
BRANCH   9  10
ATOM     10  C   UNL     1      -0.389   0.507   0.869  0.00  0.00    +0.139 A 
ATOM     11  N   UNL     1       0.071   0.124  -0.297  0.00  0.00    -0.115 NA
ATOM     12  N   UNL     1       1.351   0.275  -0.289  0.00  0.00    -0.023 NA
ATOM     13  N   UNL     1       1.720   0.737   0.855  0.00  0.00    -0.043 NA
ATOM     14  N   UNL     1       0.676   0.893   1.597  0.00  0.00    -0.226 N 
BRANCH  14  15
ATOM     15  C   UNL     1       0.654   1.397   2.972  0.00  0.00    +0.059 C 
ATOM     16  C   UNL     1      -0.159   0.444   3.851  0.00  0.00    +0.036 C 
ATOM     17  C   UNL     1       2.085   1.487   3.505  0.00  0.00    +0.036 C 
ATOM     18  C   UNL     1       0.012   2.785   2.996  0.00  0.00    +0.036 C 
ENDBRANCH  14  15
ENDBRANCH   9  10
BRANCH   9  20
ATOM     19  C   UNL     1      -3.639  -0.866   2.352  0.00  0.00    +0.002 C 
ATOM     20  C   UNL     1      -2.222  -0.897   1.775  0.00  0.00    -0.011 C 
ENDBRANCH   9  20
ENDBRANCH   1   9
BRANCH   1  21
ATOM     21  C   UNL     1      -2.349   0.159  -1.027  0.00  0.00    -0.036 C 
BRANCH  21  22
ATOM     22  C   UNL     1      -3.477   0.276  -2.019  0.00  0.00    +0.001 A 
ATOM     23  C   UNL     1      -3.433   1.228  -2.983  0.00  0.00    +0.017 A 
ATOM     24  C   UNL     1      -4.545   1.315  -3.932  0.00  0.00    +0.002 A 
ATOM     25  C   UNL     1      -4.556   2.276  -4.948  0.00  0.00    -0.041 A 
ATOM     26  C   UNL     1      -5.609   2.331  -5.816  0.00  0.00    +0.004 A 
ATOM     27  C   UNL     1      -6.668   1.441  -5.700  0.00  0.00    +0.005 A 
ATOM     28  C   UNL     1      -6.678   0.485  -4.707  0.00  0.00    -0.026 A 
ATOM     29  C   UNL     1      -5.617   0.411  -3.811  0.00  0.00    +0.052 A 
ATOM     30  N   UNL     1      -5.601  -0.535  -2.808  0.00  0.00    -0.322 N 
ATOM     31  H   UNL     1      -6.340  -1.158  -2.726  0.00  0.00    +0.169 HD
ATOM     32  C   UNL     1      -4.573  -0.611  -1.945  0.00  0.00    +0.251 A 
ATOM     33  O   UNL     1      -4.590  -1.463  -1.073  0.00  0.00    -0.268 OA
ATOM     34  C   UNL     1      -7.835  -0.474  -4.592  0.00  0.00    +0.046 C 
ATOM     35  C   UNL     1      -3.412   3.247  -5.083  0.00  0.00    +0.044 C 
ENDBRANCH  21  22
ENDBRANCH   1  21
TORSDOF 7
