REMARK  Name = ZINC02258737
REMARK  4 active torsions:
REMARK  status: ('A' for Active; 'I' for Inactive)
REMARK    1  A    between atoms: C_4  and  C_7
REMARK    2  A    between atoms: C_13  and  S_17
REMARK    3  A    between atoms: S_17  and  C_18
REMARK    4  A    between atoms: C_18  and  C_19
REMARK                            x       y       z     vdW  Elec       q    Type
REMARK                         _______ _______ _______ _____ _____    ______ ____
ROOT
ATOM      1  C   UNL     1       3.834  -1.261  -0.040  0.00  0.00    +0.076 A 
ATOM      2  C   UNL     1       4.464  -0.011  -0.040  0.00  0.00    -0.018 A 
ATOM      3  C   UNL     1       3.714   1.128  -0.028  0.00  0.00    -0.030 A 
ATOM      4  C   UNL     1       2.303   1.034  -0.015  0.00  0.00    +0.037 A 
ATOM      5  C   UNL     1       1.327   2.140   0.001  0.00  0.00    +0.092 A 
ATOM      6  C   UNL     1      -0.022   1.767   0.012  0.00  0.00    +0.072 A 
ATOM      7  C   UNL     1      -1.027   2.725   0.031  0.00  0.00    +0.115 A 
ATOM      8  N   UNL     1      -0.675   4.011   0.029  0.00  0.00    -0.228 NA
ATOM      9  C   UNL     1       0.602   4.346   0.019  0.00  0.00    +0.223 A 
ATOM     10  N   UNL     1       1.576   3.470   0.005  0.00  0.00    -0.234 NA
ATOM     11  S   UNL     1       0.002  -0.004   0.002  0.00  0.00    -0.064 S 
ATOM     12  C   UNL     1       1.759  -0.264  -0.016  0.00  0.00    +0.112 A 
ATOM     13  N   UNL     1       2.510  -1.343  -0.027  0.00  0.00    -0.239 NA
ATOM     14  C   UNL     1       4.608   2.346  -0.031  0.00  0.00    +0.036 C 
ATOM     15  C   UNL     1       5.999   1.821   0.389  0.00  0.00    +0.009 C 
ATOM     16  C   UNL     1       5.936   0.343  -0.053  0.00  0.00    +0.038 C 
ENDROOT
BRANCH   1  20
ATOM     17  C   UNL     1       6.174  -4.810  -0.075  0.00  0.00    +0.000 A 
ATOM     18  C   UNL     1       4.981  -4.779   0.623  0.00  0.00    +0.001 A 
ATOM     19  C   UNL     1       4.217  -3.629   0.639  0.00  0.00    +0.010 A 
ATOM     20  C   UNL     1       4.650  -2.499  -0.052  0.00  0.00    +0.001 A 
ATOM     21  C   UNL     1       5.850  -2.538  -0.759  0.00  0.00    +0.010 A 
ATOM     22  C   UNL     1       6.609  -3.691  -0.762  0.00  0.00    +0.001 A 
ENDBRANCH   1  20
BRANCH   7  23
ATOM     23  S   UNL     1      -2.725   2.254   0.053  0.00  0.00    -0.100 S 
BRANCH  23  24
ATOM     24  C   UNL     1      -3.505   3.887   0.073  0.00  0.00    +0.112 C 
BRANCH  24  25
ATOM     25  C   UNL     1      -5.003   3.728   0.094  0.00  0.00    -0.019 A 
ATOM     26  C   UNL     1      -5.708   3.667  -1.093  0.00  0.00    +0.006 A 
ATOM     27  C   UNL     1      -7.082   3.517  -1.075  0.00  0.00    +0.000 A 
ATOM     28  C   UNL     1      -7.753   3.437   0.132  0.00  0.00    +0.001 A 
ATOM     29  C   UNL     1      -7.050   3.503   1.320  0.00  0.00    +0.020 A 
ATOM     30  C   UNL     1      -5.674   3.648   1.301  0.00  0.00    +0.045 A 
ATOM     31 CL   UNL     1      -4.790   3.732   2.793  0.00  0.00    -0.083 Cl
ENDBRANCH  24  25
ENDBRANCH  23  24
ENDBRANCH   7  23
TORSDOF 4
