REMARK  Name = ZINC27550607
REMARK  11 active torsions:
REMARK  status: ('A' for Active; 'I' for Inactive)
REMARK    1  A    between atoms: C_1  and  C_2
REMARK    2  A    between atoms: C_2  and  S_3
REMARK    3  A    between atoms: S_3  and  C_4
REMARK    4  A    between atoms: C_5  and  C_9
REMARK    5  A    between atoms: C_11  and  C_34
REMARK    6  A    between atoms: C_12  and  N_33
REMARK    7  A    between atoms: N_13  and  C_23
REMARK    8  A    between atoms: C_19  and  C_21
REMARK    9  A    between atoms: C_19  and  C_22
REMARK   10  A    between atoms: C_25  and  N_30
REMARK   11  A    between atoms: C_28  and  C_29
REMARK                            x       y       z     vdW  Elec       q    Type
REMARK                         _______ _______ _______ _____ _____    ______ ____
ROOT
ATOM      1  C   UNL     1       1.202   3.542   0.007  0.00  0.00    +0.099 C 
ATOM      2  C   UNL     1       0.451   4.142   1.159  0.00  0.00    +0.077 C 
ATOM      3  C   UNL     1      -0.808   4.626   1.000  0.00  0.00    +0.107 C 
ATOM      4  N   UNL     1      -1.415   4.579  -0.235  0.00  0.00    -0.260 N 
ATOM      5  C   UNL     1      -0.665   4.435  -1.373  0.00  0.00    +0.025 C 
ATOM      6  C   UNL     1       0.590   3.945  -1.311  0.00  0.00    +0.025 C 
ATOM      7  C   UNL     1       1.368   3.793  -2.474  0.00  0.00    +0.162 C 
ATOM      8  O   UNL     1       2.501   3.362  -2.382  0.00  0.00    -0.292 OA
ATOM      9  C   UNL     1       0.823   4.154  -3.829  0.00  0.00    +0.086 C 
ATOM     10  C   UNL     1      -0.699   3.980  -3.815  0.00  0.00    -0.023 C 
ATOM     11  C   UNL     1      -1.276   4.843  -2.691  0.00  0.00    +0.058 C 
ATOM     12  C   UNL     1      -1.046   2.511  -3.565  0.00  0.00    +0.011 C 
ATOM     13  C   UNL     1      -1.284   4.425  -5.157  0.00  0.00    +0.011 C 
ENDROOT
BRANCH   4  14
ATOM     14  C   UNL     1      -2.808   4.679  -0.330  0.00  0.00    +0.045 A 
ATOM     15  C   UNL     1      -3.592   3.533  -0.293  0.00  0.00    +0.056 A 
ATOM     16  C   UNL     1      -4.966   3.635  -0.381  0.00  0.00    +0.128 A 
ATOM     17  C   UNL     1      -5.561   4.877  -0.516  0.00  0.00    +0.033 A 
ATOM     18  C   UNL     1      -4.783   6.019  -0.558  0.00  0.00    +0.007 A 
ATOM     19  C   UNL     1      -3.408   5.924  -0.465  0.00  0.00    -0.029 A 
ATOM     20  C   UNL     1      -2.561   7.169  -0.512  0.00  0.00    +0.045 C 
BRANCH  16  21
ATOM     21  N   UNL     1      -5.803   2.415  -0.337  0.00  0.00    +0.056 N 
ATOM     22  O   UNL     1      -7.015   2.505  -0.420  0.00  0.00    -0.126 OA
ATOM     23  O   UNL     1      -5.279   1.322  -0.219  0.00  0.00    -0.126 OA
ENDBRANCH  16  21
ENDBRANCH   4  14
BRANCH   1  25
ATOM     24  C   UNL     1       2.323   1.337   0.329  0.00  0.00    +0.049 A 
ATOM     25  C   UNL     1       1.173   2.040   0.127  0.00  0.00    -0.014 A 
ATOM     26  C   UNL     1      -0.022   1.349   0.033  0.00  0.00    +0.013 A 
ATOM     27  C   UNL     1      -0.013  -0.000   0.144  0.00  0.00    +0.046 A 
ATOM     28  S   UNL     1       1.721  -0.343   0.391  0.00  0.00    -0.090 S 
BRANCH  24  29
ATOM     29  S   UNL     1       3.974   1.931   0.488  0.00  0.00    -0.118 S 
BRANCH  29  31
ATOM     30  C   UNL     1       6.434   0.805   0.889  0.00  0.00    +0.015 C 
ATOM     31  C   UNL     1       4.959   0.429   0.735  0.00  0.00    +0.071 C 
ENDBRANCH  29  31
ENDBRANCH  24  29
ENDBRANCH   1  25
BRANCH   3  32
ATOM     32  N   UNL     1      -1.478   5.162   2.073  0.00  0.00    -0.345 N 
ATOM     33  H   UNL     1      -2.498   5.554   1.945  0.00  0.00    +0.144 HD
ATOM     34  H   UNL     1      -0.994   5.199   3.060  0.00  0.00    +0.144 HD
ENDBRANCH   3  32
BRANCH   2  35
ATOM     35  C   UNL     1       1.072   4.206   2.447  0.00  0.00    +0.099 C 
ATOM     36  N   UNL     1       1.565   4.256   3.470  0.00  0.00    -0.191 NA
ENDBRANCH   2  35
TORSDOF 7
