REMARK  Name = ZINC58983167
REMARK  8 active torsions:
REMARK  status: ('A' for Active; 'I' for Inactive)
REMARK    1  A    between atoms: C_1  and  C_2
REMARK    2  A    between atoms: C_2  and  C_9
REMARK    3  A    between atoms: C_13  and  N_15
REMARK    4  A    between atoms: C_16  and  C_18
REMARK    5  A    between atoms: C_25  and  C_28
REMARK    6  A    between atoms: C_28  and  C_29
REMARK    7  A    between atoms: C_28  and  C_30
REMARK    8  A    between atoms: C_28  and  C_31
REMARK                            x       y       z     vdW  Elec       q    Type
REMARK                         _______ _______ _______ _____ _____    ______ ____
ROOT
ATOM      1  N   UNL     1      -4.376  -0.414  -2.196  0.00  0.00    -0.281 N 
ATOM      2  C   UNL     1      -5.594  -0.984  -2.284  0.00  0.00    +0.255 C 
ATOM      3  O   UNL     1      -5.994  -1.708  -1.391  0.00  0.00    -0.269 OA
ATOM      4  H   UNL     1      -4.088   0.223  -2.869  0.00  0.00    +0.155 HD
ENDROOT
BRANCH   2   5
ATOM      5  C   UNL     1      -6.438  -0.732  -3.455  0.00  0.00    +0.075 A 
ATOM      6  C   UNL     1      -7.706  -1.208  -3.736  0.00  0.00    +0.024 A 
ATOM      7  C   UNL     1      -8.276  -0.802  -4.933  0.00  0.00    -0.036 A 
ATOM      8  C   UNL     1      -7.530   0.028  -5.717  0.00  0.00    -0.006 A 
ATOM      9  S   UNL     1      -6.101   0.275  -4.888  0.00  0.00    -0.088 S 
ATOM     10  C   UNL     1      -7.924   0.601  -7.046  0.00  0.00    +0.043 C 
ATOM     11  C   UNL     1      -9.438   0.421  -7.223  0.00  0.00    +0.009 C 
ATOM     12  C   UNL     1      -9.806  -1.024  -6.878  0.00  0.00    -0.001 C 
ATOM     13  C   UNL     1      -9.668  -1.249  -5.372  0.00  0.00    +0.040 C 
BRANCH  12  14
ATOM     14  C   UNL     1     -11.251  -1.296  -7.301  0.00  0.00    -0.035 C 
ATOM     15  C   UNL     1     -11.390  -1.079  -8.809  0.00  0.00    +0.011 C 
ATOM     16  C   UNL     1     -11.620  -2.740  -6.957  0.00  0.00    +0.011 C 
ATOM     17  C   UNL     1     -12.187  -0.339  -6.560  0.00  0.00    +0.011 C 
ENDBRANCH  12  14
ENDBRANCH   2   5
BRANCH   1  22
ATOM     18  C   UNL     1      -1.826  -0.110   0.435  0.00  0.00    -0.014 A 
ATOM     19  C   UNL     1      -1.846  -1.386   0.967  0.00  0.00    +0.006 A 
ATOM     20  C   UNL     1      -2.703  -2.341   0.451  0.00  0.00    +0.002 A 
ATOM     21  C   UNL     1      -3.543  -2.021  -0.598  0.00  0.00    +0.023 A 
ATOM     22  C   UNL     1      -3.527  -0.740  -1.134  0.00  0.00    +0.034 A 
ATOM     23  C   UNL     1      -2.668   0.217  -0.610  0.00  0.00    +0.029 A 
BRANCH  18  25
ATOM     24  C   UNL     1      -1.677   2.130   1.528  0.00  0.00    +0.047 C 
ATOM     25  C   UNL     1      -0.891   0.927   1.001  0.00  0.00    +0.135 C 
ATOM     26  C   UNL     1       0.119   1.365  -0.042  0.00  0.00    +0.248 C 
ATOM     27  O   UNL     1      -0.112   1.902  -1.104  0.00  0.00    -0.273 OA
ATOM     28  N   UNL     1       1.326   1.034   0.458  0.00  0.00    -0.238 N 
ATOM     29  C   UNL     1       1.220   0.454   1.659  0.00  0.00    +0.307 C 
ATOM     30  O   UNL     1       2.172   0.068   2.309  0.00  0.00    -0.252 OA
ATOM     31  N   UNL     1      -0.057   0.346   2.067  0.00  0.00    -0.282 N 
ATOM     32  H   UNL     1       2.167   1.196   0.003  0.00  0.00    +0.159 HD
ATOM     33  H   UNL     1      -0.368  -0.039   2.901  0.00  0.00    +0.152 HD
ENDBRANCH  18  25
ENDBRANCH   1  22
TORSDOF 4
