REMARK  Name = ZINC20927238
REMARK  8 active torsions:
REMARK  status: ('A' for Active; 'I' for Inactive)
REMARK    1  A    between atoms: C_1  and  C_2
REMARK    2  A    between atoms: C_2  and  C_3
REMARK    3  A    between atoms: C_2  and  C_4
REMARK    4  A    between atoms: C_4  and  N_5
REMARK    5  A    between atoms: N_5  and  C_6
REMARK    6  A    between atoms: C_6  and  C_7
REMARK    7  A    between atoms: C_10  and  O_14
REMARK    8  A    between atoms: O_14  and  C_15
REMARK                            x       y       z     vdW  Elec       q    Type
REMARK                         _______ _______ _______ _____ _____    ______ ____
ROOT
ATOM      1  C   UNL     1       1.176   1.783   0.000  0.00  0.00    -0.062 A 
ATOM      2  C   UNL     1      -0.013   1.076   0.008  0.00  0.00    +0.020 A 
ATOM      3  C   UNL     1      -1.219   1.750   0.017  0.00  0.00    +0.061 A 
ATOM      4  C   UNL     1      -1.237   3.138   0.029  0.00  0.00    +0.148 A 
ATOM      5  C   UNL     1      -0.043   3.845   0.022  0.00  0.00    +0.061 A 
ATOM      6  C   UNL     1       1.161   3.165   0.007  0.00  0.00    +0.020 A 
ATOM      7 BR   UNL     1      -0.063   5.735   0.032  0.00  0.00    -0.046 Br
ATOM      8 BR   UNL     1      -2.844   0.782   0.020  0.00  0.00    -0.046 Br
ENDROOT
BRANCH   4   9
ATOM      9  O   UNL     1      -2.423   3.803   0.043  0.00  0.00    -0.493 OA
ATOM     10  C   UNL     1      -3.000   4.127  -1.223  0.00  0.00    +0.277 C 
ENDBRANCH   4   9
BRANCH   1  11
ATOM     11  C   UNL     1       2.490   1.045  -0.016  0.00  0.00    -0.047 C 
BRANCH  11  12
ATOM     12  N   UNL     1       2.903   0.813  -1.406  0.00  0.00    +0.382 N 
ATOM     13  H   UNL     1       3.007   1.785  -1.911  0.00  0.00    -0.085 HD
ATOM     14  H   UNL     1       2.127   0.218  -1.911  0.00  0.00    -0.085 HD
BRANCH  12  15
ATOM     15  C   UNL     1       4.183   0.094  -1.462  0.00  0.00    -0.079 C 
BRANCH  15  17
ATOM     16  C   UNL     1       4.845   1.222  -3.591  0.00  0.00    +0.005 C 
ATOM     17  C   UNL     1       4.580  -0.129  -2.922  0.00  0.00    -0.034 C 
ATOM     18  C   UNL     1       5.847  -0.985  -2.982  0.00  0.00    +0.005 C 
ENDBRANCH  15  17
ENDBRANCH  12  15
ENDBRANCH  11  12
ENDBRANCH   1  11
TORSDOF 5
