REMARK  Name = ZINC32609567
REMARK  4 active torsions:
REMARK  status: ('A' for Active; 'I' for Inactive)
REMARK    1  A    between atoms: C_1  and  C_2
REMARK    2  A    between atoms: C_2  and  C_3
REMARK    3  A    between atoms: C_2  and  C_4
REMARK    4  A    between atoms: C_4  and  N_5
REMARK                            x       y       z     vdW  Elec       q    Type
REMARK                         _______ _______ _______ _____ _____    ______ ____
ROOT
ATOM      1  N   UNL     1      -1.194   1.853   0.018  0.00  0.00    -0.260 N 
ATOM      2  C   UNL     1      -1.272   3.196   0.030  0.00  0.00    +0.265 A 
ATOM      3  O   UNL     1      -2.355   3.751   0.042  0.00  0.00    -0.267 OA
ATOM      4  C   UNL     1      -0.024   3.991   0.022  0.00  0.00    +0.074 A 
ATOM      5  C   UNL     1       0.130   5.446   0.029  0.00  0.00    -0.023 A 
ATOM      6  C   UNL     1       1.397   5.905   0.020  0.00  0.00    -0.004 A 
ATOM      7  S   UNL     1       2.405   4.449   0.002  0.00  0.00    -0.075 S 
ATOM      8  C   UNL     1       1.161   3.256   0.008  0.00  0.00    +0.094 A 
ATOM      9  N   UNL     1       1.151   1.887   0.001  0.00  0.00    -0.301 N 
ATOM     10  H   UNL     1       2.099   1.330  -0.010  0.00  0.00    +0.171 HD
ATOM     11  C   UNL     1      -0.014   1.212   0.009  0.00  0.00    +0.330 A 
ATOM     12  O   UNL     1       0.002  -0.004   0.002  0.00  0.00    -0.246 OA
ATOM     13  C   UNL     1       1.841   7.336   0.022  0.00  0.00    +0.043 C 
ATOM     14  C   UNL     1       0.636   8.216  -0.339  0.00  0.00    +0.005 C 
ATOM     15  C   UNL     1      -0.564   7.781   0.506  0.00  0.00    +0.005 C 
ATOM     16  C   UNL     1      -1.054   6.407   0.046  0.00  0.00    +0.037 C 
ENDROOT
BRANCH   1  17
ATOM     17  C   UNL     1      -2.431   1.069   0.020  0.00  0.00    +0.133 C 
BRANCH  17  19
ATOM     18  C   UNL     1      -4.210   0.078   1.468  0.00  0.00    +0.009 C 
ATOM     19  C   UNL     1      -2.855   0.789   1.463  0.00  0.00    +0.003 C 
ATOM     20  C   UNL     1      -1.810  -0.102   2.138  0.00  0.00    +0.009 C 
ENDBRANCH  17  19
ENDBRANCH   1  17
TORSDOF 2
