REMARK  Name = ZINC11157867
REMARK  5 active torsions:
REMARK  status: ('A' for Active; 'I' for Inactive)
REMARK    1  A    between atoms: C_11  and  C_14
REMARK    2  A    between atoms: C_14  and  C_15
REMARK    3  A    between atoms: C_15  and  O_17
REMARK    4  A    between atoms: O_17  and  C_18
REMARK    5  A    between atoms: C_18  and  C_19
REMARK                            x       y       z     vdW  Elec       q    Type
REMARK                         _______ _______ _______ _____ _____    ______ ____
ROOT
ATOM      1  C   UNL     1      -4.167   5.413  -1.474  0.00  0.00    +0.309 C 
ATOM      2  O   UNL     1      -4.801   5.766  -0.508  0.00  0.00    -0.251 OA
ENDROOT
BRANCH   1   3
ATOM      3  C   UNL     1      -4.684   5.699  -2.861  0.00  0.00    +0.144 C 
BRANCH   3  14
ATOM      4  C   UNL     1      -8.377   2.085  -4.063  0.00  0.00    +0.021 A 
ATOM      5  C   UNL     1      -8.066   2.952  -3.031  0.00  0.00    +0.018 A 
ATOM      6  C   UNL     1      -7.658   4.245  -3.315  0.00  0.00    +0.030 A 
ATOM      7  C   UNL     1      -7.554   4.683  -4.635  0.00  0.00    +0.048 A 
ATOM      8  C   UNL     1      -7.874   3.803  -5.663  0.00  0.00    +0.044 A 
ATOM      9  C   UNL     1      -8.281   2.514  -5.375  0.00  0.00    +0.043 A 
ATOM     10 CL   UNL     1      -8.676   1.425  -6.669  0.00  0.00    -0.083 Cl
ATOM     11  N   UNL     1      -7.126   5.969  -4.951  0.00  0.00    -0.284 N 
ATOM     12  C   UNL     1      -6.492   6.814  -4.145  0.00  0.00    +0.231 C 
ATOM     13  O   UNL     1      -6.284   7.942  -4.540  0.00  0.00    -0.274 OA
ATOM     14  C   UNL     1      -6.019   6.441  -2.764  0.00  0.00    +0.148 C 
ATOM     15  S   UNL     1      -7.266   5.358  -2.002  0.00  0.00    -0.110 S 
ATOM     16  H   UNL     1      -7.309   6.280  -5.851  0.00  0.00    +0.155 HD
ENDBRANCH   3  14
ENDBRANCH   1   3
BRANCH   1  17
ATOM     17  O   UNL     1      -3.002   4.766  -1.313  0.00  0.00    -0.460 OA
BRANCH  17  18
ATOM     18  C   UNL     1      -2.565   4.525   0.051  0.00  0.00    +0.267 C 
BRANCH  18  19
ATOM     19  C   UNL     1      -1.248   3.793   0.034  0.00  0.00    -0.005 A 
ATOM     20  C   UNL     1      -0.063   4.507   0.026  0.00  0.00    +0.056 A 
ATOM     21  C   UNL     1       1.146   3.831   0.011  0.00  0.00    +0.164 A 
ATOM     22  C   UNL     1       1.167   2.444   0.004  0.00  0.00    +0.180 A 
ATOM     23  C   UNL     1      -0.021   1.732   0.012  0.00  0.00    +0.087 A 
ATOM     24  C   UNL     1      -1.228   2.411   0.021  0.00  0.00    +0.031 A 
ATOM     25 CL   UNL     1       0.002  -0.004   0.002  0.00  0.00    -0.080 Cl
ATOM     26  O   UNL     1       2.363   1.787  -0.009  0.00  0.00    -0.487 OA
ATOM     27  C   UNL     1       3.129   1.909  -1.210  0.00  0.00    +0.232 C 
ATOM     28  C   UNL     1       3.956   3.186  -1.195  0.00  0.00    +0.082 C 
ATOM     29  C   UNL     1       3.090   4.436  -1.198  0.00  0.00    +0.232 C 
ATOM     30  O   UNL     1       2.322   4.523   0.003  0.00  0.00    -0.488 OA
ENDBRANCH  18  19
ENDBRANCH  17  18
ENDBRANCH   1  17
TORSDOF 5
