REMARK  Name = ZINC67015432
REMARK  6 active torsions:
REMARK  status: ('A' for Active; 'I' for Inactive)
REMARK    1  A    between atoms: C_1  and  C_2
REMARK    2  A    between atoms: C_8  and  N_10
REMARK    3  A    between atoms: C_14  and  C_16
REMARK    4  A    between atoms: C_16  and  O_17
REMARK    5  A    between atoms: O_17  and  C_18
REMARK    6  A    between atoms: C_21  and  N_25
REMARK                            x       y       z     vdW  Elec       q    Type
REMARK                         _______ _______ _______ _____ _____    ______ ____
ROOT
ATOM      1  N   UNL     1       0.056  -0.038   2.447  0.00  0.00    -0.296 N 
ATOM      2  C   UNL     1       0.738   0.093   3.602  0.00  0.00    +0.306 C 
ATOM      3  O   UNL     1       1.921  -0.180   3.644  0.00  0.00    -0.252 OA
ATOM      4  N   UNL     1       0.107   0.528   4.711  0.00  0.00    -0.237 N 
ATOM      5  C   UNL     1       0.789   0.659   5.866  0.00  0.00    +0.258 C 
ATOM      6  O   UNL     1       1.969   0.387   5.908  0.00  0.00    -0.272 OA
ATOM      7  H   UNL     1      -0.888   0.180   2.413  0.00  0.00    +0.151 HD
ATOM      8  H   UNL     1      -0.838   0.746   4.678  0.00  0.00    +0.159 HD
ENDROOT
BRANCH   1  15
ATOM      9  C   UNL     1      -0.019   1.526   0.010  0.00  0.00    +0.009 C 
ATOM     10  C   UNL     1       0.002  -0.004   0.002  0.00  0.00    +0.006 C 
ATOM     11  C   UNL     1      -1.433  -0.534   0.013  0.00  0.00    +0.005 C 
ATOM     12  C   UNL     1      -1.413  -2.063   0.004  0.00  0.00    +0.000 C 
ATOM     13  C   UNL     1      -0.673  -2.570   1.244  0.00  0.00    +0.002 C 
ATOM     14  C   UNL     1       0.763  -2.041   1.233  0.00  0.00    +0.022 C 
ATOM     15  C   UNL     1       0.742  -0.511   1.242  0.00  0.00    +0.077 C 
ENDBRANCH   1  15
BRANCH   5  16
ATOM     16  C   UNL     1       0.083   1.145   7.106  0.00  0.00    +0.325 C 
BRANCH  16  17
ATOM     17  O   UNL     1       1.011   1.200   8.191  0.00  0.00    -0.483 OA
BRANCH  17  18
ATOM     18  C   UNL     1       0.533   1.621   9.392  0.00  0.00    +0.124 A 
ATOM     19  C   UNL     1      -0.804   1.970   9.523  0.00  0.00    +0.048 A 
ATOM     20  C   UNL     1      -1.290   2.397  10.743  0.00  0.00    +0.039 A 
ATOM     21  C   UNL     1      -0.445   2.480  11.835  0.00  0.00    +0.161 A 
ATOM     22  C   UNL     1       0.890   2.133  11.707  0.00  0.00    +0.157 A 
ATOM     23  C   UNL     1       1.378   1.699  10.488  0.00  0.00    +0.086 A 
ATOM     24  F   UNL     1       1.714   2.215  12.775  0.00  0.00    -0.203 F 
BRANCH  21  25
ATOM     25  N   UNL     1      -0.968   2.939  13.141  0.00  0.00    +0.059 N 
ATOM     26  O   UNL     1      -2.133   3.243  13.253  0.00  0.00    -0.126 OA
ATOM     27  O   UNL     1      -0.230   3.012  14.096  0.00  0.00    -0.126 OA
ENDBRANCH  21  25
ENDBRANCH  17  18
ENDBRANCH  16  17
ENDBRANCH   5  16
TORSDOF 5
