REMARK  Name = ZINC14241840
REMARK  10 active torsions:
REMARK  status: ('A' for Active; 'I' for Inactive)
REMARK    1  A    between atoms: C_1  and  C_2
REMARK    2  A    between atoms: C_5  and  C_8
REMARK    3  A    between atoms: C_12  and  C_13
REMARK    4  A    between atoms: N_15  and  N_16
REMARK    5  A    between atoms: C_17  and  C_19
REMARK    6  A    between atoms: C_19  and  C_20
REMARK    7  A    between atoms: C_20  and  C_21
REMARK    8  A    between atoms: C_20  and  C_27
REMARK    9  A    between atoms: C_20  and  O_31
REMARK   10  A    between atoms: C_24  and  C_26
REMARK                            x       y       z     vdW  Elec       q    Type
REMARK                         _______ _______ _______ _____ _____    ______ ____
ROOT
ATOM      1  N   UNL     1      -1.999  -3.002  -1.214  0.00  0.00    -0.234 N 
ATOM      2  C   UNL     1      -1.103  -2.191  -0.617  0.00  0.00    +0.233 C 
ATOM      3  O   UNL     1      -0.159  -2.665  -0.021  0.00  0.00    -0.274 OA
ATOM      4  H   UNL     1      -2.754  -2.623  -1.690  0.00  0.00    +0.173 HD
ENDROOT
BRANCH   1   7
ATOM      5  C   UNL     1      -2.735  -5.203  -1.744  0.00  0.00    +0.267 C 
ATOM      6  O   UNL     1      -3.683  -4.728  -2.342  0.00  0.00    -0.268 OA
ATOM      7  N   UNL     1      -1.839  -4.392  -1.147  0.00  0.00    -0.230 N 
ATOM      8  H   UNL     1      -1.083  -4.771  -0.671  0.00  0.00    +0.173 HD
BRANCH   5  13
ATOM      9  C   UNL     1      -3.374  -7.661  -2.213  0.00  0.00    +0.001 A 
ATOM     10  C   UNL     1      -2.967  -8.965  -1.992  0.00  0.00    +0.017 A 
ATOM     11  C   UNL     1      -1.841  -9.194  -1.274  0.00  0.00    +0.046 A 
ATOM     12  S   UNL     1      -1.285  -7.602  -0.874  0.00  0.00    -0.091 S 
ATOM     13  C   UNL     1      -2.567  -6.655  -1.675  0.00  0.00    +0.083 A 
BRANCH   9  18
ATOM     14  C   UNL     1      -8.138  -6.446  -5.208  0.00  0.00    +0.044 C 
ATOM     15  C   UNL     1      -6.891  -6.763  -4.425  0.00  0.00    -0.050 A 
ATOM     16  C   UNL     1      -5.957  -7.642  -4.943  0.00  0.00    +0.004 A 
ATOM     17  C   UNL     1      -4.813  -7.938  -4.230  0.00  0.00    +0.009 A 
ATOM     18  C   UNL     1      -4.600  -7.348  -2.984  0.00  0.00    -0.017 A 
ATOM     19  C   UNL     1      -5.548  -6.467  -2.464  0.00  0.00    +0.009 A 
ATOM     20  C   UNL     1      -6.685  -6.175  -3.190  0.00  0.00    +0.004 A 
ENDBRANCH   9  18
ENDBRANCH   5  13
ENDBRANCH   1   7
BRANCH   2  21
ATOM     21  C   UNL     1      -1.275  -0.696  -0.689  0.00  0.00    +0.149 C 
BRANCH  21  22
ATOM     22  C   UNL     1      -0.063  -0.012  -0.053  0.00  0.00    +0.227 C 
BRANCH  22  23
ATOM     23  C   UNL     1       1.195  -0.488  -0.731  0.00  0.00    +0.146 A 
ATOM     24  C   UNL     1       2.408  -0.590  -0.157  0.00  0.00    +0.048 A 
ATOM     25  C   UNL     1       3.291  -1.075  -1.149  0.00  0.00    +0.045 A 
ATOM     26  C   UNL     1       2.565  -1.240  -2.270  0.00  0.00    +0.102 A 
ATOM     27  O   UNL     1       1.296  -0.889  -2.009  0.00  0.00    -0.462 OA
ATOM     28  C   UNL     1       3.087  -1.741  -3.592  0.00  0.00    +0.086 C 
ENDBRANCH  22  23
BRANCH  22  29
ATOM     29  C   UNL     1      -0.189   1.504  -0.218  0.00  0.00    +0.426 C 
ATOM     30  F   UNL     1      -0.344   1.815  -1.573  0.00  0.00    -0.167 F 
ATOM     31  F   UNL     1      -1.302   1.960   0.496  0.00  0.00    -0.167 F 
ATOM     32  F   UNL     1       0.966   2.124   0.273  0.00  0.00    -0.167 F 
ENDBRANCH  22  29
BRANCH  22  33
ATOM     33  O   UNL     1      -0.008  -0.337   1.337  0.00  0.00    -0.373 OA
ATOM     34  H   UNL     1       0.072  -1.284   1.517  0.00  0.00    +0.211 HD
ENDBRANCH  22  33
ENDBRANCH  21  22
ENDBRANCH   2  21
TORSDOF 8
