REMARK  Name = ZINC20722410
REMARK  3 active torsions:
REMARK  status: ('A' for Active; 'I' for Inactive)
REMARK    1  A    between atoms: C_7  and  C_12
REMARK    2  A    between atoms: C_12  and  C_13
REMARK    3  A    between atoms: C_13  and  C_14
REMARK                            x       y       z     vdW  Elec       q    Type
REMARK                         _______ _______ _______ _____ _____    ______ ____
ROOT
ATOM      1  C   UNL     1       0.727  -4.992  -2.442  0.00  0.00    +0.216 C 
ATOM      2  O   UNL     1       0.177  -4.330  -3.296  0.00  0.00    -0.276 OA
ATOM      3  N   UNL     1       0.848  -6.326  -2.597  0.00  0.00    -0.297 N 
ATOM      4  C   UNL     1       1.506  -7.149  -1.571  0.00  0.00    +0.114 C 
ATOM      5  C   UNL     1       0.479  -8.117  -0.972  0.00  0.00    +0.072 C 
ATOM      6  C   UNL     1      -0.314  -8.749  -2.092  0.00  0.00    +0.023 A 
ATOM      7  C   UNL     1      -0.385  -8.250  -3.345  0.00  0.00    -0.002 A 
ATOM      8  C   UNL     1      -1.238  -9.133  -4.111  0.00  0.00    +0.006 A 
ATOM      9  C   UNL     1      -1.668  -9.120  -5.441  0.00  0.00    +0.030 A 
ATOM     10  C   UNL     1      -2.494 -10.145  -5.837  0.00  0.00    +0.042 A 
ATOM     11  C   UNL     1      -2.889 -11.149  -4.967  0.00  0.00    +0.022 A 
ATOM     12  C   UNL     1      -2.478 -11.186  -3.646  0.00  0.00    +0.027 A 
ATOM     13  C   UNL     1      -1.640 -10.159  -3.217  0.00  0.00    +0.047 A 
ATOM     14  N   UNL     1      -1.062  -9.895  -2.009  0.00  0.00    -0.358 N 
ATOM     15  H   UNL     1      -1.165 -10.437  -1.211  0.00  0.00    +0.166 HD
ATOM     16 CL   UNL     1      -3.061 -10.181  -7.477  0.00  0.00    -0.084 Cl
ATOM     17  C   UNL     1       0.321  -6.999  -3.797  0.00  0.00    +0.145 C 
ENDROOT
BRANCH   1  18
ATOM     18  C   UNL     1       1.274  -4.325  -1.206  0.00  0.00    +0.097 C 
BRANCH  18  19
ATOM     19  C   UNL     1       1.007  -2.820  -1.279  0.00  0.00    +0.027 C 
BRANCH  19  26
ATOM     20  C   UNL     1      -0.017   1.380   0.010  0.00  0.00    +0.000 A 
ATOM     21  C   UNL     1       1.174   2.084   0.002  0.00  0.00    +0.002 A 
ATOM     22  C   UNL     1       2.380   1.415  -0.013  0.00  0.00    +0.023 A 
ATOM     23  C   UNL     1       2.407   0.021  -0.021  0.00  0.00    +0.037 A 
ATOM     24  C   UNL     1       1.205  -0.674  -0.013  0.00  0.00    -0.014 A 
ATOM     25  C   UNL     1       0.002  -0.004   0.002  0.00  0.00    +0.006 A 
ATOM     26  C   UNL     1       1.563  -2.143  -0.025  0.00  0.00    +0.107 C 
ATOM     27  C   UNL     1       3.077  -2.152  -0.040  0.00  0.00    +0.225 C 
ATOM     28  O   UNL     1       3.791  -3.132  -0.052  0.00  0.00    -0.275 OA
ATOM     29  N   UNL     1       3.480  -0.870  -0.037  0.00  0.00    -0.285 N 
ATOM     30  H   UNL     1       4.410  -0.596  -0.044  0.00  0.00    +0.155 HD
ENDBRANCH  19  26
ENDBRANCH  18  19
ENDBRANCH   1  18
TORSDOF 3
