REMARK  Name = ZINC20428589
REMARK  5 active torsions:
REMARK  status: ('A' for Active; 'I' for Inactive)
REMARK    1  A    between atoms: C_1  and  N_2
REMARK    2  A    between atoms: C_3  and  C_18
REMARK    3  A    between atoms: N_7  and  C_8
REMARK    4  A    between atoms: C_21  and  S_24
REMARK    5  A    between atoms: S_24  and  N_27
REMARK                            x       y       z     vdW  Elec       q    Type
REMARK                         _______ _______ _______ _____ _____    ______ ____
ROOT
ATOM      1  C   UNL     1       3.106   2.055   1.544  0.00  0.00    +0.151 C 
ATOM      2  N   UNL     1       2.010   1.414   0.813  0.00  0.00    -0.324 N 
ATOM      3  C   UNL     1       1.125   2.161   0.086  0.00  0.00    +0.057 A 
ATOM      4  C   UNL     1       0.120   1.549  -0.575  0.00  0.00    +0.075 A 
ATOM      5  S   UNL     1       0.401  -0.169  -0.175  0.00  0.00    -0.059 S 
ATOM      6  C   UNL     1       1.847   0.050   0.850  0.00  0.00    +0.152 A 
ATOM      7  N   UNL     1       2.570  -0.860   1.479  0.00  0.00    -0.335 N 
ATOM      8  H   UNL     1       3.437  -0.553   2.082  0.00  0.00    +0.168 HD
ENDROOT
BRANCH   7   9
ATOM      9  C   UNL     1       2.242  -2.179   1.379  0.00  0.00    +0.049 A 
ATOM     10  C   UNL     1       1.362  -2.762   2.285  0.00  0.00    +0.026 A 
ATOM     11  C   UNL     1       1.026  -4.104   2.177  0.00  0.00    +0.003 A 
ATOM     12  C   UNL     1       1.545  -4.898   1.201  0.00  0.00    +0.008 A 
ATOM     13  C   UNL     1       2.444  -4.378   0.255  0.00  0.00    -0.016 A 
ATOM     14  C   UNL     1       2.812  -3.012   0.322  0.00  0.00    +0.005 A 
ATOM     15  C   UNL     1       3.707  -2.490  -0.619  0.00  0.00    +0.010 A 
ATOM     16  C   UNL     1       4.215  -3.302  -1.589  0.00  0.00    +0.001 A 
ATOM     17  C   UNL     1       3.856  -4.646  -1.657  0.00  0.00    +0.001 A 
ATOM     18  C   UNL     1       2.987  -5.186  -0.759  0.00  0.00    +0.008 A 
ENDBRANCH   7   9
BRANCH   3  19
ATOM     19  C   UNL     1       1.269   3.631   0.023  0.00  0.00    -0.001 A 
ATOM     20  C   UNL     1       0.138   4.448   0.065  0.00  0.00    +0.012 A 
ATOM     21  C   UNL     1       0.279   5.820   0.012  0.00  0.00    +0.029 A 
ATOM     22  C   UNL     1       1.538   6.385  -0.093  0.00  0.00    +0.106 A 
ATOM     23  C   UNL     1       2.662   5.580  -0.141  0.00  0.00    +0.029 A 
ATOM     24  C   UNL     1       2.535   4.208  -0.084  0.00  0.00    +0.012 A 
BRANCH  22  25
ATOM     25  S   UNL     1       1.709   8.137  -0.168  0.00  0.00    +0.061 S 
ATOM     26  O   UNL     1       0.549   8.685   0.445  0.00  0.00    -0.153 OA
ATOM     27  O   UNL     1       3.022   8.436   0.285  0.00  0.00    -0.153 OA
BRANCH  25  28
ATOM     28  N   UNL     1       1.649   8.568  -1.766  0.00  0.00    -0.177 NA
ATOM     29  C   UNL     1       2.878   8.642  -2.567  0.00  0.00    +0.109 C 
ATOM     30  C   UNL     1       2.696   7.775  -3.822  0.00  0.00    +0.017 C 
ATOM     31  C   UNL     1       1.433   8.220  -4.564  0.00  0.00    +0.003 C 
ATOM     32  C   UNL     1       0.213   8.024  -3.662  0.00  0.00    +0.017 C 
ATOM     33  C   UNL     1       0.366   8.888  -2.407  0.00  0.00    +0.109 C 
ENDBRANCH  25  28
ENDBRANCH  22  25
ENDBRANCH   3  19
TORSDOF 4
