REMARK  Name = ZINC12456700
REMARK  6 active torsions:
REMARK  status: ('A' for Active; 'I' for Inactive)
REMARK    1  A    between atoms: C_4  and  C_7
REMARK    2  A    between atoms: C_7  and  C_8
REMARK    3  A    between atoms: C_8  and  N_59
REMARK    4  A    between atoms: C_9  and  N_59
REMARK    5  A    between atoms: N_20  and  C_23
REMARK    6  A    between atoms: C_23  and  C_24
REMARK                            x       y       z     vdW  Elec       q    Type
REMARK                         _______ _______ _______ _____ _____    ______ ____
ROOT
ATOM      1  C   UNL     1      -6.798  -0.751   5.946  0.00  0.00    -0.067 C 
ATOM      2  C   UNL     1      -5.956   0.154   5.041  0.00  0.00    -0.011 C 
ATOM      3  C   UNL     1      -5.504  -0.623   3.804  0.00  0.00    +0.035 C 
ATOM      4  C   UNL     1      -4.828  -1.915   4.255  0.00  0.00    -0.023 A 
ATOM      5  C   UNL     1      -5.026  -2.399   5.499  0.00  0.00    -0.006 A 
ATOM      6  S   UNL     1      -4.061  -3.885   5.572  0.00  0.00    -0.073 S 
ATOM      7  C   UNL     1      -3.394  -3.849   3.928  0.00  0.00    +0.116 A 
ATOM      8  C   UNL     1      -3.945  -2.682   3.377  0.00  0.00    +0.076 A 
ATOM      9  C   UNL     1      -3.567  -2.396   2.024  0.00  0.00    +0.263 A 
ATOM     10  O   UNL     1      -3.994  -1.405   1.458  0.00  0.00    -0.267 OA
ATOM     11  N   UNL     1      -2.734  -3.242   1.389  0.00  0.00    -0.294 N 
ATOM     12  C   UNL     1      -2.254  -4.354   2.003  0.00  0.00    +0.203 A 
ATOM     13  N   UNL     1      -2.575  -4.638   3.237  0.00  0.00    -0.230 NA
ATOM     14  C   UNL     1      -5.879  -1.806   6.579  0.00  0.00    +0.027 C 
ENDROOT
BRANCH   1  15
ATOM     15  N   UNL     1      -7.421   0.063   7.006  0.00  0.00    +0.381 N 
ATOM     16  H   UNL     1      -6.754   0.184   7.777  0.00  0.00    -0.086 HD
ATOM     17  H   UNL     1      -7.673   0.982   6.623  0.00  0.00    -0.086 HD
BRANCH  15  18
ATOM     18  C   UNL     1      -8.636  -0.601   7.514  0.00  0.00    -0.078 C 
BRANCH  18  19
ATOM     19  C   UNL     1      -9.260   0.265   8.610  0.00  0.00    +0.016 C 
BRANCH  19  23
ATOM     20  C   UNL     1     -12.782  -1.639  10.098  0.00  0.00    +0.000 A 
ATOM     21  C   UNL     1     -11.556  -1.902  10.680  0.00  0.00    +0.000 A 
ATOM     22  C   UNL     1     -10.417  -1.285  10.199  0.00  0.00    +0.003 A 
ATOM     23  C   UNL     1     -10.503  -0.407   9.135  0.00  0.00    -0.049 A 
ATOM     24  C   UNL     1     -11.729  -0.141   8.556  0.00  0.00    +0.003 A 
ATOM     25  C   UNL     1     -12.869  -0.761   9.034  0.00  0.00    +0.000 A 
ENDBRANCH  19  23
ENDBRANCH  18  19
ENDBRANCH  15  18
ENDBRANCH   1  15
BRANCH  11  26
ATOM     26  C   UNL     1      -2.342  -2.960   0.006  0.00  0.00    +0.163 C 
BRANCH  26  27
ATOM     27  C   UNL     1      -1.094  -2.116  -0.000  0.00  0.00    -0.009 A 
ATOM     28  C   UNL     1      -1.189  -0.753   0.009  0.00  0.00    +0.017 A 
ATOM     29  C   UNL     1       0.002  -0.004   0.002  0.00  0.00    +0.001 A 
ATOM     30  C   UNL     1      -0.017   1.400   0.010  0.00  0.00    +0.010 A 
ATOM     31  C   UNL     1       1.157   2.089   0.002  0.00  0.00    +0.001 A 
ATOM     32  C   UNL     1       2.379   1.419  -0.012  0.00  0.00    +0.002 A 
ATOM     33  C   UNL     1       2.435   0.059  -0.020  0.00  0.00    +0.028 A 
ATOM     34  C   UNL     1       1.243  -0.688  -0.013  0.00  0.00    +0.071 A 
ATOM     35  N   UNL     1       1.267  -2.024  -0.022  0.00  0.00    -0.255 NA
ATOM     36  C   UNL     1       0.159  -2.725  -0.016  0.00  0.00    +0.116 A 
ENDBRANCH  26  27
ENDBRANCH  11  26
TORSDOF 6
