REMARK  Name = ZINC02856383
REMARK  10 active torsions:
REMARK  status: ('A' for Active; 'I' for Inactive)
REMARK    1  A    between atoms: C_1  and  C_2
REMARK    2  A    between atoms: C_2  and  O_3
REMARK    3  A    between atoms: O_3  and  C_4
REMARK    4  A    between atoms: C_4  and  C_6
REMARK    5  A    between atoms: C_10  and  N_11
REMARK    6  A    between atoms: N_11  and  C_12
REMARK    7  A    between atoms: C_12  and  N_14
REMARK    8  A    between atoms: C_15  and  C_17
REMARK    9  A    between atoms: C_21  and  N_24
REMARK   10  A    between atoms: C_22  and  C_23
REMARK                            x       y       z     vdW  Elec       q    Type
REMARK                         _______ _______ _______ _____ _____    ______ ____
ROOT
ATOM      1  N   UNL     1      -1.883  -1.391   0.075  0.00  0.00    -0.290 N 
ATOM      2  H   UNL     1      -1.125  -1.997   0.080  0.00  0.00    +0.154 HD
ENDROOT
BRANCH   1   7
ATOM      3  C   UNL     1      -3.579  -3.224   0.104  0.00  0.00    +0.091 A 
ATOM      4  C   UNL     1      -5.009  -3.488   0.121  0.00  0.00    -0.021 A 
ATOM      5  C   UNL     1      -5.796  -2.391   0.110  0.00  0.00    -0.004 A 
ATOM      6  S   UNL     1      -4.670  -1.025   0.084  0.00  0.00    -0.077 S 
ATOM      7  C   UNL     1      -3.172  -1.896   0.089  0.00  0.00    +0.086 A 
ATOM      8  C   UNL     1      -7.293  -2.353   0.116  0.00  0.00    +0.043 C 
ATOM      9  C   UNL     1      -7.814  -3.753  -0.240  0.00  0.00    +0.005 C 
ATOM     10  C   UNL     1      -7.067  -4.787   0.607  0.00  0.00    +0.005 C 
ATOM     11  C   UNL     1      -5.612  -4.887   0.145  0.00  0.00    +0.037 C 
BRANCH   3  12
ATOM     12  C   UNL     1      -2.605  -4.317   0.106  0.00  0.00    +0.342 C 
ATOM     13  O   UNL     1      -2.193  -4.763   1.161  0.00  0.00    -0.245 OA
BRANCH  12  14
ATOM     14  O   UNL     1      -2.165  -4.831  -1.060  0.00  0.00    -0.461 OA
BRANCH  14  16
ATOM     15  C   UNL     1      -0.821  -6.362  -2.394  0.00  0.00    +0.048 C 
ATOM     16  C   UNL     1      -1.200  -5.913  -0.982  0.00  0.00    +0.229 C 
ENDBRANCH  14  16
ENDBRANCH  12  14
ENDBRANCH   3  12
ENDBRANCH   1   7
BRANCH   1  17
ATOM     17  C   UNL     1      -1.681  -0.059   0.056  0.00  0.00    +0.141 C 
ATOM     18  S   UNL     1      -3.018   1.009   0.048  0.00  0.00    -0.018 S 
BRANCH  17  19
ATOM     19  N   UNL     1      -0.426   0.432   0.042  0.00  0.00    -0.264 N 
ATOM     20  C   UNL     1      -0.224   1.765   0.023  0.00  0.00    +0.250 C 
ATOM     21  O   UNL     1      -1.173   2.523   0.012  0.00  0.00    -0.270 OA
ATOM     22  H   UNL     1       0.332  -0.173   0.047  0.00  0.00    +0.157 HD
BRANCH  20  23
ATOM     23  C   UNL     1       1.152   2.303   0.008  0.00  0.00    +0.042 A 
ATOM     24  C   UNL     1       2.243   1.444   0.155  0.00  0.00    +0.013 A 
ATOM     25  C   UNL     1       3.525   1.954   0.141  0.00  0.00    +0.003 A 
ATOM     26  C   UNL     1       3.731   3.313  -0.019  0.00  0.00    +0.033 A 
ATOM     27  C   UNL     1       2.654   4.170  -0.165  0.00  0.00    +0.130 A 
ATOM     28  C   UNL     1       1.367   3.672  -0.159  0.00  0.00    -0.008 A 
ATOM     29  C   UNL     1       0.196   4.606  -0.324  0.00  0.00    +0.047 C 
BRANCH  27  30
ATOM     30  N   UNL     1       2.884   5.622  -0.335  0.00  0.00    +0.057 N 
ATOM     31  O   UNL     1       4.017   6.047  -0.478  0.00  0.00    -0.126 OA
ATOM     32  O   UNL     1       1.941   6.392  -0.333  0.00  0.00    -0.126 OA
ENDBRANCH  27  30
ENDBRANCH  20  23
ENDBRANCH  17  19
ENDBRANCH   1  17
TORSDOF 8
