REMARK  Name = ZINC32541575
REMARK  11 active torsions:
REMARK  status: ('A' for Active; 'I' for Inactive)
REMARK    1  A    between atoms: C_1  and  C_2
REMARK    2  A    between atoms: C_5  and  C_39
REMARK    3  A    between atoms: C_6  and  C_8
REMARK    4  A    between atoms: C_8  and  N_9
REMARK    5  A    between atoms: N_9  and  C_10
REMARK    6  A    between atoms: C_13  and  C_25
REMARK    7  A    between atoms: N_15  and  C_17
REMARK    8  A    between atoms: C_17  and  C_18
REMARK    9  A    between atoms: N_27  and  C_28
REMARK   10  A    between atoms: C_28  and  C_29
REMARK   11  A    between atoms: C_29  and  C_30
REMARK                            x       y       z     vdW  Elec       q    Type
REMARK                         _______ _______ _______ _____ _____    ______ ____
ROOT
ATOM      1  C   UNL     1       1.480  -4.028   4.047  0.00  0.00    +0.036 C 
ATOM      2  C   UNL     1       1.728  -3.074   5.245  0.00  0.00    +0.010 C 
ATOM      3  C   UNL     1       2.411  -3.990   6.282  0.00  0.00    +0.021 C 
ATOM      4  N   UNL     1       3.001  -5.122   5.544  0.00  0.00    +0.391 N 
ATOM      5  C   UNL     1       2.734  -4.935   4.102  0.00  0.00    -0.059 C 
ATOM      6  H   UNL     1       2.584  -5.986   5.857  0.00  0.00    -0.080 HD
ENDROOT
BRANCH   3   7
ATOM      7  C   UNL     1       1.392  -4.494   7.271  0.00  0.00    +0.200 C 
ATOM      8  O   UNL     1       1.179  -5.684   7.370  0.00  0.00    -0.278 OA
ATOM      9  N   UNL     1       0.717  -3.623   8.046  0.00  0.00    -0.316 N 
ATOM     10  H   UNL     1       0.887  -2.671   7.968  0.00  0.00    +0.149 HD
BRANCH   9  11
ATOM     11  C   UNL     1      -0.275  -4.113   9.008  0.00  0.00    +0.109 C 
BRANCH  11  12
ATOM     12  C   UNL     1      -0.891  -2.928   9.754  0.00  0.00    +0.054 C 
BRANCH  12  13
ATOM     13  C   UNL     1      -1.910  -3.432  10.742  0.00  0.00    -0.042 A 
ATOM     14  C   UNL     1      -3.229  -3.584  10.356  0.00  0.00    +0.007 A 
ATOM     15  C   UNL     1      -4.168  -4.047  11.259  0.00  0.00    +0.050 A 
ATOM     16  C   UNL     1      -3.788  -4.358  12.555  0.00  0.00    +0.166 A 
ATOM     17  C   UNL     1      -2.460  -4.204  12.944  0.00  0.00    +0.166 A 
ATOM     18  C   UNL     1      -1.524  -3.745  12.032  0.00  0.00    +0.053 A 
ATOM     19  O   UNL     1      -2.344  -4.572  14.253  0.00  0.00    -0.453 OA
ATOM     20  C   UNL     1      -3.685  -4.564  14.776  0.00  0.00    +0.466 C 
ATOM     21  O   UNL     1      -4.504  -4.823  13.620  0.00  0.00    -0.453 OA
ENDBRANCH  12  13
ENDBRANCH  11  12
ENDBRANCH   9  11
ENDBRANCH   3   7
BRANCH   1  22
ATOM     22  N   UNL     1       1.425  -3.282   2.783  0.00  0.00    -0.311 NA
ATOM     23  H   UNL     1       1.801  -3.829   2.023  0.00  0.00    +0.122 HD
BRANCH  22  24
ATOM     24  C   UNL     1       0.054  -2.845   2.489  0.00  0.00    +0.116 C 
BRANCH  24  30
ATOM     25  C   UNL     1      -0.018   1.503   0.010  0.00  0.00    +0.044 C 
ATOM     26  C   UNL     1       0.002  -0.004   0.002  0.00  0.00    -0.050 A 
ATOM     27  C   UNL     1       0.006  -0.689  -1.199  0.00  0.00    +0.003 A 
ATOM     28  C   UNL     1       0.025  -2.071  -1.207  0.00  0.00    +0.004 A 
ATOM     29  C   UNL     1       0.040  -2.768  -0.013  0.00  0.00    -0.046 A 
ATOM     30  C   UNL     1       0.037  -2.084   1.188  0.00  0.00    -0.030 A 
ATOM     31  C   UNL     1       0.023  -0.702   1.195  0.00  0.00    +0.008 A 
ATOM     32  C   UNL     1       0.059  -4.275  -0.021  0.00  0.00    +0.044 C 
ENDBRANCH  24  30
ENDBRANCH  22  24
ENDBRANCH   1  22
BRANCH   4  33
ATOM     33  C   UNL     1       4.451  -5.163   5.778  0.00  0.00    -0.042 C 
BRANCH  33  34
ATOM     34  C   UNL     1       5.031  -6.390   5.123  0.00  0.00    -0.063 A 
ATOM     35  C   UNL     1       5.112  -7.577   5.828  0.00  0.00    +0.002 A 
ATOM     36  C   UNL     1       5.644  -8.703   5.229  0.00  0.00    +0.002 A 
ATOM     37  C   UNL     1       6.096  -8.643   3.923  0.00  0.00    +0.020 A 
ATOM     38  C   UNL     1       6.015  -7.456   3.218  0.00  0.00    +0.041 A 
ATOM     39  C   UNL     1       5.477  -6.330   3.817  0.00  0.00    +0.021 A 
ATOM     40 CL   UNL     1       6.582  -7.380   1.579  0.00  0.00    -0.084 Cl
ENDBRANCH  33  34
ENDBRANCH   4  33
TORSDOF 9
