REMARK  Name = ZINC25546134
REMARK  9 active torsions:
REMARK  status: ('A' for Active; 'I' for Inactive)
REMARK    1  A    between atoms: C_3  and  C_30
REMARK    2  A    between atoms: C_6  and  C_7
REMARK    3  A    between atoms: C_9  and  C_12
REMARK    4  A    between atoms: C_12  and  S_13
REMARK    5  A    between atoms: S_13  and  C_14
REMARK    6  A    between atoms: C_17  and  C_20
REMARK    7  A    between atoms: N_18  and  N_19
REMARK    8  A    between atoms: C_23  and  O_26
REMARK    9  A    between atoms: O_26  and  C_27
REMARK                            x       y       z     vdW  Elec       q    Type
REMARK                         _______ _______ _______ _____ _____    ______ ____
ROOT
ATOM      1  C   UNL     1      -0.570  -2.106  -0.165  0.00  0.00    +0.209 A 
ATOM      2  N   UNL     1       0.698  -2.008   0.164  0.00  0.00    -0.121 NA
ATOM      3  N   UNL     1       1.035  -0.772   0.262  0.00  0.00    -0.127 NA
ATOM      4  C   UNL     1       0.002  -0.004   0.002  0.00  0.00    +0.182 A 
ATOM      5  N   UNL     1      -1.060  -0.835  -0.273  0.00  0.00    -0.224 N 
ENDROOT
BRANCH   4   6
ATOM      6  C   UNL     1      -0.018   1.474   0.010  0.00  0.00    +0.021 A 
ATOM      7  C   UNL     1      -1.235   2.157   0.020  0.00  0.00    +0.015 A 
ATOM      8  C   UNL     1      -1.250   3.536   0.033  0.00  0.00    +0.046 A 
ATOM      9  C   UNL     1      -0.056   4.245   0.025  0.00  0.00    +0.127 A 
ATOM     10  C   UNL     1       1.157   3.568   0.010  0.00  0.00    +0.046 A 
ATOM     11  C   UNL     1       1.180   2.190   0.003  0.00  0.00    +0.015 A 
BRANCH   9  12
ATOM     12  O   UNL     1      -0.074   5.603   0.033  0.00  0.00    -0.434 OA
BRANCH  12  13
ATOM     13  C   UNL     1      -1.356   6.234   0.048  0.00  0.00    +0.541 C 
ATOM     14  F   UNL     1      -2.077   5.855  -1.089  0.00  0.00    -0.166 F 
ATOM     15  F   UNL     1      -2.054   5.843   1.195  0.00  0.00    -0.166 F 
ENDBRANCH  12  13
ENDBRANCH   9  12
ENDBRANCH   4   6
BRANCH   5  16
ATOM     16  N   UNL     1      -2.336  -0.466  -0.592  0.00  0.00    -0.295 N 
ATOM     17  H   UNL     1      -2.602   0.600  -0.646  0.00  0.00    +0.163 HD
ATOM     18  H   UNL     1      -3.096  -1.234  -0.793  0.00  0.00    +0.163 HD
ENDBRANCH   5  16
BRANCH   1  19
ATOM     19  S   UNL     1      -1.474  -3.598  -0.411  0.00  0.00    -0.075 S 
BRANCH  19  20
ATOM     20  C   UNL     1      -0.172  -4.812  -0.086  0.00  0.00    +0.176 C 
BRANCH  20  23
ATOM     21  C   UNL     1      -1.345  -8.082  -1.008  0.00  0.00    +0.202 A 
ATOM     22  N   UNL     1      -0.761  -6.910  -1.345  0.00  0.00    -0.191 NA
ATOM     23  C   UNL     1      -0.731  -6.203  -0.242  0.00  0.00    +0.238 A 
ATOM     24  O   UNL     1      -1.294  -6.944   0.716  0.00  0.00    -0.337 OA
ATOM     25  N   UNL     1      -1.640  -8.015   0.264  0.00  0.00    -0.056 NA
BRANCH  21  31
ATOM     26  C   UNL     1      -1.241  -9.155  -3.257  0.00  0.00    +0.012 A 
ATOM     27  C   UNL     1      -1.483 -10.225  -4.095  0.00  0.00    +0.013 A 
ATOM     28  C   UNL     1      -2.097 -11.364  -3.606  0.00  0.00    +0.055 A 
ATOM     29  C   UNL     1      -2.467 -11.440  -2.275  0.00  0.00    +0.013 A 
ATOM     30  C   UNL     1      -2.225 -10.377  -1.428  0.00  0.00    +0.012 A 
ATOM     31  C   UNL     1      -1.607  -9.228  -1.915  0.00  0.00    +0.022 A 
BRANCH  28  32
ATOM     32  C   UNL     1      -2.364 -12.527  -4.526  0.00  0.00    +0.417 C 
ATOM     33  F   UNL     1      -3.627 -12.379  -5.111  0.00  0.00    -0.166 F 
ATOM     34  F   UNL     1      -1.388 -12.563  -5.528  0.00  0.00    -0.166 F 
ATOM     35  F   UNL     1      -2.326 -13.719  -3.795  0.00  0.00    -0.166 F 
ENDBRANCH  28  32
ENDBRANCH  21  31
ENDBRANCH  20  23
ENDBRANCH  19  20
ENDBRANCH   1  19
TORSDOF 9
