REMARK  Name = ZINC35560025
REMARK  5 active torsions:
REMARK  status: ('A' for Active; 'I' for Inactive)
REMARK    1  A    between atoms: C_1  and  C_2
REMARK    2  A    between atoms: C_2  and  N_3
REMARK    3  A    between atoms: N_3  and  C_4
REMARK    4  A    between atoms: C_4  and  C_6
REMARK    5  A    between atoms: C_4  and  C_12
REMARK                            x       y       z     vdW  Elec       q    Type
REMARK                         _______ _______ _______ _____ _____    ______ ____
ROOT
ATOM      1  C   UNL     1       0.733  -1.960   1.184  0.00  0.00    +0.028 C 
ENDROOT
BRANCH   1   2
ATOM      2  C   UNL     1       1.352  -2.461   2.463  0.00  0.00    -0.032 A 
ATOM      3  C   UNL     1       2.151  -1.631   3.229  0.00  0.00    +0.026 A 
ATOM      4  C   UNL     1       2.692  -2.113   4.374  0.00  0.00    +0.056 A 
ATOM      5  S   UNL     1       2.074  -3.788   4.399  0.00  0.00    -0.074 S 
ATOM      6  C   UNL     1       1.130  -3.730   2.884  0.00  0.00    +0.058 A 
ATOM      7 BR   UNL     1       0.093  -5.089   2.075  0.00  0.00    -0.042 Br
ATOM      8 BR   UNL     1       3.813  -1.240   5.622  0.00  0.00    -0.043 Br
ENDBRANCH   1   2
BRANCH   1   9
ATOM      9  C   UNL     1       1.543  -2.445   0.010  0.00  0.00    +0.097 A 
ATOM     10  C   UNL     1       1.238  -3.491  -0.778  0.00  0.00    +0.044 A 
ATOM     11  C   UNL     1       2.263  -3.588  -1.746  0.00  0.00    +0.057 A 
ATOM     12  C   UNL     1       3.135  -2.594  -1.493  0.00  0.00    +0.170 A 
ATOM     13  O   UNL     1       2.690  -1.901  -0.431  0.00  0.00    -0.454 OA
ATOM     14 BR   UNL     1       4.712  -2.229  -2.469  0.00  0.00    -0.008 Br
ENDBRANCH   1   9
BRANCH   1  15
ATOM     15  N   UNL     1       0.713  -0.491   1.192  0.00  0.00    +0.388 N 
ATOM     16  H   UNL     1       1.659  -0.141   1.185  0.00  0.00    -0.084 HD
ATOM     17  H   UNL     1       0.240  -0.165   2.022  0.00  0.00    -0.084 HD
BRANCH  15  19
ATOM     18  C   UNL     1      -0.019   1.526   0.010  0.00  0.00    -0.017 C 
ATOM     19  C   UNL     1       0.002  -0.004   0.002  0.00  0.00    -0.085 C 
ENDBRANCH  15  19
ENDBRANCH   1  15
TORSDOF 4
