REMARK  Name = ZINC39689197
REMARK  10 active torsions:
REMARK  status: ('A' for Active; 'I' for Inactive)
REMARK    1  A    between atoms: C_1  and  C_2
REMARK    2  A    between atoms: C_2  and  C_3
REMARK    3  A    between atoms: C_3  and  C_4
REMARK    4  A    between atoms: C_4  and  C_5
REMARK    5  A    between atoms: C_5  and  C_6
REMARK    6  A    between atoms: C_6  and  C_7
REMARK    7  A    between atoms: C_11  and  C_20
REMARK    8  A    between atoms: N_22  and  C_23
REMARK    9  A    between atoms: C_23  and  C_24
REMARK   10  A    between atoms: N_27  and  C_30
REMARK                            x       y       z     vdW  Elec       q    Type
REMARK                         _______ _______ _______ _____ _____    ______ ____
ROOT
ATOM      1  C   UNL     1       2.135  -4.573  -3.460  0.00  0.00    +0.216 C 
ATOM      2  O   UNL     1       2.574  -3.703  -4.181  0.00  0.00    -0.276 OA
ATOM      3  N   UNL     1       2.292  -5.869  -3.795  0.00  0.00    -0.300 N 
ATOM      4  C   UNL     1       1.824  -7.063  -3.052  0.00  0.00    +0.121 C 
ATOM      5  C   UNL     1       1.337  -8.038  -4.147  0.00  0.00    +0.100 C 
ATOM      6  C   UNL     1       2.095  -7.614  -5.416  0.00  0.00    -0.004 C 
ATOM      7  C   UNL     1       2.966  -6.422  -4.994  0.00  0.00    +0.115 C 
ATOM      8  C   UNL     1       1.111  -7.183  -6.500  0.00  0.00    -0.010 C 
ATOM      9  C   UNL     1       1.885  -6.820  -7.770  0.00  0.00    -0.082 C 
ATOM     10  N   UNL     1       2.662  -7.982  -8.220  0.00  0.00    +0.379 N 
ATOM     11  C   UNL     1       3.668  -8.333  -7.211  0.00  0.00    -0.082 C 
ATOM     12  C   UNL     1       2.970  -8.759  -5.917  0.00  0.00    -0.010 C 
ATOM     13  H   UNL     1       2.041  -8.765  -8.361  0.00  0.00    -0.086 HD
ATOM     14  H   UNL     1       3.122  -7.760  -9.090  0.00  0.00    -0.086 HD
ENDROOT
BRANCH   5  15
ATOM     15  C   UNL     1      -0.150  -7.899  -4.349  0.00  0.00    +0.218 C 
ATOM     16  O   UNL     1      -0.691  -6.830  -4.155  0.00  0.00    -0.275 OA
ATOM     17  N   UNL     1      -0.879  -8.961  -4.746  0.00  0.00    -0.315 N 
ATOM     18  H   UNL     1      -0.446  -9.815  -4.901  0.00  0.00    +0.149 HD
BRANCH  17  19
ATOM     19  C   UNL     1      -2.324  -8.825  -4.943  0.00  0.00    +0.107 C 
BRANCH  19  20
ATOM     20  C   UNL     1      -2.906 -10.168  -5.389  0.00  0.00    +0.003 C 
ATOM     21  C   UNL     1      -2.352 -10.533  -6.769  0.00  0.00    -0.014 C 
ATOM     22  C   UNL     1      -2.998 -11.836  -7.244  0.00  0.00    -0.078 C 
ATOM     23  N   UNL     1      -4.453 -11.662  -7.331  0.00  0.00    +0.382 N 
ATOM     24  C   UNL     1      -5.001 -11.382  -5.998  0.00  0.00    -0.078 C 
ATOM     25  C   UNL     1      -4.432 -10.061  -5.475  0.00  0.00    -0.014 C 
ATOM     26  H   UNL     1      -4.662 -10.891  -7.948  0.00  0.00    -0.081 HD
BRANCH  23  27
ATOM     27  C   UNL     1      -5.061 -12.889  -7.861  0.00  0.00    -0.069 C 
ATOM     28  C   UNL     1      -4.555 -13.153  -9.294  0.00  0.00    -0.015 C 
ATOM     29  C   UNL     1      -5.790 -13.723 -10.034  0.00  0.00    -0.002 C 
ATOM     30  C   UNL     1      -6.956 -12.890  -9.446  0.00  0.00    -0.002 C 
ATOM     31  C   UNL     1      -6.587 -12.722  -7.958  0.00  0.00    -0.015 C 
ENDBRANCH  23  27
ENDBRANCH  19  20
ENDBRANCH  17  19
ENDBRANCH   5  15
BRANCH   1  32
ATOM     32  C   UNL     1       1.414  -4.206  -2.188  0.00  0.00    +0.096 C 
BRANCH  32  33
ATOM     33  C   UNL     1       1.375  -2.683  -2.046  0.00  0.00    +0.009 C 
BRANCH  33  34
ATOM     34  C   UNL     1       0.643  -2.310  -0.755  0.00  0.00    +0.000 C 
BRANCH  34  35
ATOM     35  C   UNL     1       0.603  -0.787  -0.613  0.00  0.00    -0.000 C 
BRANCH  35  37
ATOM     36  C   UNL     1      -0.168   1.108   0.820  0.00  0.00    +0.004 C 
ATOM     37  C   UNL     1      -0.128  -0.414   0.677  0.00  0.00    -0.003 C 
ENDBRANCH  35  37
ENDBRANCH  34  35
ENDBRANCH  33  34
ENDBRANCH  32  33
ENDBRANCH   1  32
TORSDOF 9
