REMARK  Name = ZINC06630739
REMARK  8 active torsions:
REMARK  status: ('A' for Active; 'I' for Inactive)
REMARK    1  A    between atoms: C_1  and  C_2
REMARK    2  A    between atoms: C_2  and  O_3
REMARK    3  A    between atoms: O_3  and  C_4
REMARK    4  A    between atoms: C_6  and  C_12
REMARK    5  A    between atoms: C_9  and  O_10
REMARK    6  A    between atoms: N_13  and  C_14
REMARK    7  A    between atoms: C_17  and  C_25
REMARK    8  A    between atoms: C_18  and  N_20
REMARK                            x       y       z     vdW  Elec       q    Type
REMARK                         _______ _______ _______ _____ _____    ______ ____
ROOT
ATOM      1  C   UNL     1      -5.570   2.505  -1.387  0.00  0.00    +0.119 C 
ATOM      2  N   UNL     1      -4.329   2.510  -1.784  0.00  0.00    -0.255 NA
ENDROOT
BRANCH   1   5
ATOM      3  C   UNL     1      -8.995   2.035  -2.846  0.00  0.00    +0.163 A 
ATOM      4  C   UNL     1      -7.984   2.260  -1.932  0.00  0.00    +0.059 A 
ATOM      5  C   UNL     1      -6.651   2.266  -2.356  0.00  0.00    -0.002 A 
ATOM      6  C   UNL     1      -6.349   2.050  -3.704  0.00  0.00    +0.028 A 
ATOM      7  C   UNL     1      -7.363   1.821  -4.609  0.00  0.00    +0.063 A 
ATOM      8  C   UNL     1      -8.687   1.815  -4.187  0.00  0.00    +0.173 A 
ATOM      9 BR   UNL     1      -6.953   1.522  -6.431  0.00  0.00    -0.046 Br
BRANCH   8  10
ATOM     10  O   UNL     1      -9.683   1.594  -5.084  0.00  0.00    -0.503 OA
ATOM     11  H   UNL     1     -10.025   2.398  -5.499  0.00  0.00    +0.292 HD
ENDBRANCH   8  10
BRANCH   3  12
ATOM     12  O   UNL     1     -10.292   2.029  -2.437  0.00  0.00    -0.489 OA
BRANCH  12  14
ATOM     13  C   UNL     1     -12.042   2.217  -0.781  0.00  0.00    +0.048 C 
ATOM     14  C   UNL     1     -10.536   2.261  -1.049  0.00  0.00    +0.226 C 
ENDBRANCH  12  14
ENDBRANCH   3  12
ENDBRANCH   1   5
BRANCH   2  15
ATOM     15  C   UNL     1      -3.323   2.733  -0.882  0.00  0.00    +0.066 A 
ATOM     16  C   UNL     1      -3.437   3.763   0.055  0.00  0.00    +0.028 A 
ATOM     17  C   UNL     1      -2.421   3.984   0.962  0.00  0.00    +0.007 A 
ATOM     18  C   UNL     1      -1.292   3.187   0.951  0.00  0.00    -0.027 A 
ATOM     19  C   UNL     1      -1.167   2.163   0.019  0.00  0.00    +0.051 A 
ATOM     20  C   UNL     1      -2.180   1.932  -0.896  0.00  0.00    +0.054 A 
ATOM     21  C   UNL     1      -0.190   3.431   1.950  0.00  0.00    +0.046 C 
BRANCH  19  22
ATOM     22  N   UNL     1      -0.016   1.361   0.009  0.00  0.00    -0.323 N 
ATOM     23  C   UNL     1       1.271   1.816  -0.000  0.00  0.00    +0.091 A 
ATOM     24  C   UNL     1       2.095   0.748  -0.014  0.00  0.00    +0.019 A 
ATOM     25  C   UNL     1       1.289  -0.408  -0.012  0.00  0.00    +0.019 A 
ATOM     26  C   UNL     1       0.002  -0.004   0.002  0.00  0.00    +0.091 A 
ENDBRANCH  19  22
ENDBRANCH   2  15
TORSDOF 6
