REMARK  Name = ZINC08452818
REMARK  11 active torsions:
REMARK  status: ('A' for Active; 'I' for Inactive)
REMARK    1  A    between atoms: C_1  and  C_2
REMARK    2  A    between atoms: C_2  and  O_3
REMARK    3  A    between atoms: O_3  and  C_4
REMARK    4  A    between atoms: C_4  and  C_5
REMARK    5  A    between atoms: C_5  and  C_6
REMARK    6  A    between atoms: C_6  and  N_7
REMARK    7  A    between atoms: C_8  and  C_10
REMARK    8  A    between atoms: N_13  and  S_26
REMARK    9  A    between atoms: N_16  and  S_17
REMARK   10  A    between atoms: S_17  and  C_20
REMARK   11  A    between atoms: S_26  and  C_29
REMARK                            x       y       z     vdW  Elec       q    Type
REMARK                         _______ _______ _______ _____ _____    ______ ____
ROOT
ATOM      1  C   UNL     1      -1.730   2.207  -9.000  0.00  0.00    +0.181 C 
ATOM      2  C   UNL     1      -3.104   1.599  -9.306  0.00  0.00    +0.139 C 
ATOM      3  N   UNL     1      -3.449   1.899 -10.703  0.00  0.00    -0.173 NA
ATOM      4  C   UNL     1      -2.513   1.502 -11.765  0.00  0.00    +0.126 C 
ATOM      5  C   UNL     1      -1.139   2.110 -11.458  0.00  0.00    +0.127 C 
ATOM      6  N   UNL     1      -0.791   1.814 -10.061  0.00  0.00    -0.162 NA
ENDROOT
BRANCH   1   8
ATOM      7  N   UNL     1      -0.772   2.558  -6.747  0.00  0.00    -0.314 N 
ATOM      8  C   UNL     1      -1.235   1.694  -7.672  0.00  0.00    +0.233 C 
ATOM      9  O   UNL     1      -1.253   0.505  -7.436  0.00  0.00    -0.274 OA
ATOM     10  H   UNL     1      -0.757   3.509  -6.935  0.00  0.00    +0.149 HD
BRANCH   7  11
ATOM     11  C   UNL     1      -0.291   2.060  -5.455  0.00  0.00    +0.106 C 
BRANCH  11  12
ATOM     12  C   UNL     1       0.175   3.237  -4.596  0.00  0.00    +0.047 C 
BRANCH  12  13
ATOM     13  C   UNL     1       0.677   2.717  -3.248  0.00  0.00    +0.161 C 
BRANCH  13  14
ATOM     14  O   UNL     1       1.113   3.817  -2.446  0.00  0.00    -0.380 OA
BRANCH  14  16
ATOM     15  C   UNL     1       2.039   4.688  -0.391  0.00  0.00    +0.034 C 
ATOM     16  C   UNL     1       1.604   3.438  -1.158  0.00  0.00    +0.156 C 
ENDBRANCH  14  16
ENDBRANCH  13  14
ENDBRANCH  12  13
ENDBRANCH  11  12
ENDBRANCH   7  11
ENDBRANCH   1   8
BRANCH   6  17
ATOM     17  S   UNL     1       0.628   1.047  -9.689  0.00  0.00    +0.062 S 
ATOM     18  O   UNL     1       1.560   1.403 -10.701  0.00  0.00    -0.153 OA
ATOM     19  O   UNL     1       0.872   1.291  -8.310  0.00  0.00    -0.153 OA
BRANCH  17  20
ATOM     20  C   UNL     1       0.344  -0.684  -9.851  0.00  0.00    +0.106 A 
ATOM     21  C   UNL     1       0.092  -1.452  -8.730  0.00  0.00    +0.028 A 
ATOM     22  C   UNL     1      -0.135  -2.809  -8.858  0.00  0.00    +0.002 A 
ATOM     23  C   UNL     1      -0.102  -3.401 -10.107  0.00  0.00    +0.000 A 
ATOM     24  C   UNL     1       0.155  -2.634 -11.228  0.00  0.00    +0.002 A 
ATOM     25  C   UNL     1       0.379  -1.276 -11.100  0.00  0.00    +0.028 A 
ENDBRANCH  17  20
ENDBRANCH   6  17
BRANCH   3  26
ATOM     26  S   UNL     1      -4.867   2.668 -11.075  0.00  0.00    +0.061 S 
ATOM     27  O   UNL     1      -5.178   2.322 -12.418  0.00  0.00    -0.153 OA
ATOM     28  O   UNL     1      -5.760   2.418  -9.998  0.00  0.00    -0.153 OA
BRANCH  26  29
ATOM     29  C   UNL     1      -4.539   4.399 -11.064  0.00  0.00    +0.105 A 
ATOM     30  C   UNL     1      -4.695   5.125  -9.898  0.00  0.00    +0.028 A 
ATOM     31  C   UNL     1      -4.433   6.482  -9.888  0.00  0.00    +0.002 A 
ATOM     32  C   UNL     1      -4.024   7.116 -11.047  0.00  0.00    +0.000 A 
ATOM     33  C   UNL     1      -3.873   6.391 -12.214  0.00  0.00    +0.002 A 
ATOM     34  C   UNL     1      -4.130   5.033 -12.223  0.00  0.00    +0.028 A 
ENDBRANCH  26  29
ENDBRANCH   3  26
TORSDOF 10
