REMARK  Name = ZINC14697630
REMARK  8 active torsions:
REMARK  status: ('A' for Active; 'I' for Inactive)
REMARK    1  A    between atoms: C_4  and  C_7
REMARK    2  A    between atoms: C_7  and  N_8
REMARK    3  A    between atoms: C_9  and  N_35
REMARK    4  A    between atoms: C_10  and  N_17
REMARK    5  A    between atoms: N_17  and  C_18
REMARK    6  A    between atoms: C_18  and  C_19
REMARK    7  A    between atoms: C_19  and  C_20
REMARK    8  A    between atoms: C_26  and  C_28
REMARK                            x       y       z     vdW  Elec       q    Type
REMARK                         _______ _______ _______ _____ _____    ______ ____
ROOT
ATOM      1  N   UNL     1       0.279   1.288   3.160  0.00  0.00    -0.276 N 
ATOM      2  C   UNL     1       0.130  -0.031   3.521  0.00  0.00    +0.128 A 
ATOM      3  C   UNL     1      -1.099  -0.473   3.966  0.00  0.00    +0.140 A 
ATOM      4  C   UNL     1      -2.169   0.439   4.025  0.00  0.00    +0.277 A 
ATOM      5  O   UNL     1      -3.267   0.074   4.409  0.00  0.00    -0.266 OA
ATOM      6  N   UNL     1      -1.972   1.720   3.655  0.00  0.00    -0.273 N 
ATOM      7  H   UNL     1      -2.731   2.369   3.696  0.00  0.00    +0.173 HD
ATOM      8  C   UNL     1      -0.765   2.134   3.229  0.00  0.00    +0.331 A 
ATOM      9  O   UNL     1      -0.614   3.296   2.901  0.00  0.00    -0.246 OA
ENDROOT
BRANCH   3  10
ATOM     10  N   UNL     1      -1.282  -1.819   4.348  0.00  0.00    -0.264 N 
ATOM     11  C   UNL     1      -1.249  -2.796   3.417  0.00  0.00    +0.223 C 
ATOM     12  O   UNL     1      -1.488  -3.942   3.733  0.00  0.00    -0.275 OA
BRANCH  11  13
ATOM     13  C   UNL     1      -0.915  -2.462   1.986  0.00  0.00    +0.080 C 
ATOM     14  C   UNL     1      -0.275  -3.680   1.308  0.00  0.00    +0.017 C 
ATOM     15  C   UNL     1       0.214  -3.259  -0.080  0.00  0.00    +0.027 C 
ATOM     16  C   UNL     1      -0.876  -2.535  -0.814  0.00  0.00    -0.031 C 
ATOM     17  C   UNL     1      -1.922  -2.028  -0.244  0.00  0.00    -0.030 C 
ATOM     18  C   UNL     1      -2.196  -2.104   1.229  0.00  0.00    +0.039 C 
ENDBRANCH  11  13
BRANCH  10  19
ATOM     19  C   UNL     1      -1.507  -2.156   5.756  0.00  0.00    +0.118 C 
BRANCH  19  20
ATOM     20  C   UNL     1      -3.010  -2.275   6.018  0.00  0.00    +0.050 C 
BRANCH  20  21
ATOM     21  C   UNL     1      -3.239  -2.726   7.437  0.00  0.00    -0.072 C 
ATOM     22  C   UNL     1      -3.455  -1.819   8.335  0.00  0.00    -0.028 C 
ATOM     23  C   UNL     1      -3.690  -2.114   9.788  0.00  0.00    +0.027 C 
ATOM     24  C   UNL     1      -4.055  -3.588   9.975  0.00  0.00    +0.004 C 
ATOM     25  C   UNL     1      -3.026  -4.442   9.223  0.00  0.00    +0.005 C 
ATOM     26  C   UNL     1      -3.206  -4.200   7.721  0.00  0.00    +0.030 C 
ENDBRANCH  20  21
ENDBRANCH  19  20
ENDBRANCH  10  19
ENDBRANCH   3  10
BRANCH   2  27
ATOM     27  N   UNL     1       1.195  -0.897   3.445  0.00  0.00    -0.343 N 
ATOM     28  H   UNL     1       2.078  -0.562   3.223  0.00  0.00    +0.144 HD
ATOM     29  H   UNL     1       1.063  -1.843   3.614  0.00  0.00    +0.144 HD
ENDBRANCH   2  27
BRANCH   1  30
ATOM     30  C   UNL     1       1.580   1.773   2.693  0.00  0.00    +0.163 C 
BRANCH  30  34
ATOM     31  C   UNL     1       3.859   3.184   6.018  0.00  0.00    +0.000 A 
ATOM     32  C   UNL     1       3.952   1.861   5.628  0.00  0.00    +0.000 A 
ATOM     33  C   UNL     1       3.212   1.404   4.554  0.00  0.00    +0.005 A 
ATOM     34  C   UNL     1       2.382   2.270   3.867  0.00  0.00    -0.028 A 
ATOM     35  C   UNL     1       2.285   3.592   4.261  0.00  0.00    +0.005 A 
ATOM     36  C   UNL     1       3.026   4.049   5.335  0.00  0.00    +0.000 A 
ENDBRANCH  30  34
ENDBRANCH   1  30
TORSDOF 8
