REMARK  Name = ZINC01992570
REMARK  7 active torsions:
REMARK  status: ('A' for Active; 'I' for Inactive)
REMARK    1  A    between atoms: C_1  and  O_2
REMARK    2  A    between atoms: O_2  and  C_3
REMARK    3  A    between atoms: C_21  and  C_23
REMARK    4  A    between atoms: C_26  and  O_31
REMARK    5  A    between atoms: C_27  and  O_29
REMARK    6  A    between atoms: O_29  and  C_30
REMARK    7  A    between atoms: O_31  and  C_32
REMARK                            x       y       z     vdW  Elec       q    Type
REMARK                         _______ _______ _______ _____ _____    ______ ____
ROOT
ATOM      1  C   UNL     1      -5.978   7.425   0.095  0.00  0.00    +0.121 A 
ATOM      2  C   UNL     1      -4.740   8.056   0.150  0.00  0.00    +0.049 A 
ATOM      3  C   UNL     1      -3.577   7.316   0.198  0.00  0.00    +0.050 A 
ATOM      4  C   UNL     1      -3.635   5.929   0.192  0.00  0.00    +0.138 A 
ATOM      5  C   UNL     1      -4.883   5.292   0.137  0.00  0.00    +0.044 A 
ATOM      6  C   UNL     1      -6.054   6.043   0.089  0.00  0.00    +0.059 A 
ATOM      7  C   UNL     1      -4.920   3.813   0.131  0.00  0.00    +0.055 A 
ATOM      8  N   UNL     1      -6.069   3.151   0.080  0.00  0.00    -0.334 N 
ATOM      9  C   UNL     1      -7.236   3.817   0.198  0.00  0.00    +0.171 A 
ATOM     10  N   UNL     1      -7.866   4.228   1.292  0.00  0.00    -0.227 NA
ATOM     11  C   UNL     1      -9.021   4.884   1.241  0.00  0.00    +0.054 A 
ATOM     12  C   UNL     1      -9.552   5.113   0.009  0.00  0.00    +0.014 A 
ATOM     13  S   UNL     1      -8.358   4.378  -1.078  0.00  0.00    -0.054 S 
ATOM     14  C   UNL     1     -10.826   5.812  -0.326  0.00  0.00    +0.044 C 
ATOM     15  C   UNL     1     -11.660   5.936   0.958  0.00  0.00    +0.006 C 
ATOM     16  C   UNL     1     -10.756   6.452   2.082  0.00  0.00    +0.006 C 
ATOM     17  C   UNL     1      -9.755   5.370   2.488  0.00  0.00    +0.056 C 
ATOM     18  C   UNL     1      -3.678   3.131   0.183  0.00  0.00    +0.073 A 
ATOM     19  C   UNL     1      -2.523   3.846   0.234  0.00  0.00    +0.138 A 
ATOM     20  O   UNL     1      -2.505   5.190   0.244  0.00  0.00    -0.455 OA
ATOM     21  H   UNL     1      -6.070   2.060  -0.058  0.00  0.00    +0.168 HD
ENDROOT
BRANCH  19  22
ATOM     22  C   UNL     1      -1.241   3.119   0.288  0.00  0.00    +0.021 A 
ATOM     23  C   UNL     1      -1.228   1.721   0.280  0.00  0.00    +0.015 A 
ATOM     24  C   UNL     1      -0.029   1.043   0.336  0.00  0.00    +0.050 A 
ATOM     25  C   UNL     1       1.167   1.746   0.390  0.00  0.00    +0.162 A 
ATOM     26  C   UNL     1       1.161   3.139   0.393  0.00  0.00    +0.162 A 
ATOM     27  C   UNL     1      -0.037   3.825   0.342  0.00  0.00    +0.061 A 
BRANCH  26  28
ATOM     28  O   UNL     1       2.335   3.824   0.445  0.00  0.00    -0.491 OA
ATOM     29  C   UNL     1       2.255   5.251   0.444  0.00  0.00    +0.277 C 
ENDBRANCH  26  28
BRANCH  25  30
ATOM     30  O   UNL     1       2.347   1.073   0.440  0.00  0.00    -0.491 OA
ATOM     31  C   UNL     1       2.280  -0.355   0.434  0.00  0.00    +0.277 C 
ENDBRANCH  25  30
ENDBRANCH  19  22
BRANCH   1  33
ATOM     32  C   UNL     1      -6.965   9.588   0.058  0.00  0.00    +0.277 C 
ATOM     33  O   UNL     1      -7.116   8.167   0.048  0.00  0.00    -0.495 OA
ENDBRANCH   1  33
TORSDOF 4
