REMARK  Name = ZINC02914673
REMARK  3 active torsions:
REMARK  status: ('A' for Active; 'I' for Inactive)
REMARK    1  A    between atoms: C_3  and  C_10
REMARK    2  A    between atoms: C_5  and  N_7
REMARK    3  A    between atoms: C_12  and  C_20
REMARK                            x       y       z     vdW  Elec       q    Type
REMARK                         _______ _______ _______ _____ _____    ______ ____
ROOT
ATOM      1  C   UNL     1       3.658   2.162  -0.022  0.00  0.00    +0.039 C 
ATOM      2  C   UNL     1       3.621   3.487  -0.009  0.00  0.00    +0.028 C 
ATOM      3  C   UNL     1       4.853   4.350  -0.024  0.00  0.00    +0.168 C 
ATOM      4  N   UNL     1       6.032   3.530   0.236  0.00  0.00    -0.221 N 
ATOM      5  C   UNL     1       6.025   2.173   0.218  0.00  0.00    +0.219 A 
ATOM      6  N   UNL     1       7.234   1.760   0.481  0.00  0.00    -0.201 NA
ATOM      7  C   UNL     1       8.034   2.813   0.677  0.00  0.00    +0.247 A 
ATOM      8  N   UNL     1       7.338   3.914   0.538  0.00  0.00    -0.156 NA
ATOM      9  N   UNL     1       4.867   1.454  -0.037  0.00  0.00    -0.283 N 
ATOM     10  H   UNL     1       4.894   0.502  -0.221  0.00  0.00    +0.155 HD
ENDROOT
BRANCH   3  11
ATOM     11  C   UNL     1       4.989   5.007  -1.374  0.00  0.00    +0.017 A 
ATOM     12  C   UNL     1       5.104   4.231  -2.512  0.00  0.00    +0.024 A 
ATOM     13  C   UNL     1       5.229   4.834  -3.750  0.00  0.00    +0.018 A 
ATOM     14  C   UNL     1       5.238   6.214  -3.851  0.00  0.00    +0.018 A 
ATOM     15  C   UNL     1       5.122   6.991  -2.715  0.00  0.00    +0.040 A 
ATOM     16  C   UNL     1       4.992   6.388  -1.474  0.00  0.00    +0.129 A 
ATOM     17  F   UNL     1       4.873   7.147  -0.363  0.00  0.00    -0.205 F 
ATOM     18 BR   UNL     1       5.388   3.771  -5.306  0.00  0.00    -0.050 Br
ENDBRANCH   3  11
BRANCH   1  21
ATOM     19  C   UNL     1      -0.017   1.379   0.010  0.00  0.00    +0.003 A 
ATOM     20  C   UNL     1       1.167   2.088   0.002  0.00  0.00    +0.010 A 
ATOM     21  C   UNL     1       2.384   1.407  -0.013  0.00  0.00    -0.002 A 
ATOM     22  C   UNL     1       2.397   0.013  -0.021  0.00  0.00    +0.042 A 
ATOM     23  C   UNL     1       1.206  -0.685  -0.013  0.00  0.00    +0.127 A 
ATOM     24  C   UNL     1       0.002  -0.004   0.002  0.00  0.00    +0.033 A 
BRANCH  23  25
ATOM     25  N   UNL     1       1.218  -2.165  -0.021  0.00  0.00    +0.056 N 
ATOM     26  O   UNL     1       2.269  -2.761  -0.034  0.00  0.00    -0.126 OA
ATOM     27  O   UNL     1       0.176  -2.778  -0.014  0.00  0.00    -0.126 OA
ENDBRANCH  23  25
ENDBRANCH   1  21
TORSDOF 3
