REMARK  Name = ZINC21883312
REMARK  2 active torsions:
REMARK  status: ('A' for Active; 'I' for Inactive)
REMARK    1  A    between atoms: C_8  and  C_17
REMARK    2  A    between atoms: N_19  and  C_20
REMARK                            x       y       z     vdW  Elec       q    Type
REMARK                         _______ _______ _______ _____ _____    ______ ____
ROOT
ATOM      1  C   UNL     1      -2.704  -1.232  -2.645  0.00  0.00    +0.000 A 
ATOM      2  C   UNL     1      -3.521  -1.944  -1.786  0.00  0.00    +0.002 A 
ATOM      3  C   UNL     1      -3.203  -2.049  -0.448  0.00  0.00    +0.023 A 
ATOM      4  C   UNL     1      -2.054  -1.438   0.049  0.00  0.00    +0.036 A 
ATOM      5  C   UNL     1      -1.240  -0.723  -0.824  0.00  0.00    -0.027 A 
ATOM      6  C   UNL     1      -1.561  -0.621  -2.159  0.00  0.00    +0.004 A 
ATOM      7  C   UNL     1      -0.103  -0.194   0.008  0.00  0.00    +0.053 C 
ATOM      8  C   UNL     1      -0.068   1.342  -0.025  0.00  0.00    +0.076 C 
ATOM      9  C   UNL     1       1.455   1.653  -0.051  0.00  0.00    -0.002 C 
ATOM     10  C   UNL     1       1.988   0.477  -0.901  0.00  0.00    -0.055 C 
ATOM     11  N   UNL     1       1.193  -0.692  -0.483  0.00  0.00    +0.401 N 
ATOM     12  C   UNL     1       1.848  -1.460   0.619  0.00  0.00    -0.005 C 
ATOM     13  S   UNL     1       3.616  -1.331   0.102  0.00  0.00    -0.181 S 
ATOM     14  C   UNL     1       3.505   0.328  -0.695  0.00  0.00    +0.052 C 
ATOM     15  C   UNL     1      -0.382  -0.693   1.402  0.00  0.00    +0.212 C 
ATOM     16  O   UNL     1       0.294  -0.495   2.390  0.00  0.00    -0.277 OA
ATOM     17  N   UNL     1      -1.526  -1.400   1.341  0.00  0.00    -0.286 N 
ATOM     18  H   UNL     1      -2.045  -1.916   2.162  0.00  0.00    +0.155 HD
ATOM     19  H   UNL     1       1.079  -1.356  -1.353  0.00  0.00    -0.078 HD
ENDROOT
BRANCH   8  20
ATOM     20  C   UNL     1      -0.741   1.864  -1.268  0.00  0.00    +0.220 C 
ATOM     21  O   UNL     1      -0.105   1.992  -2.293  0.00  0.00    -0.275 OA
ATOM     22  N   UNL     1      -2.049   2.188  -1.241  0.00  0.00    -0.285 N 
ATOM     23  H   UNL     1      -2.607   2.144  -0.294  0.00  0.00    +0.155 HD
BRANCH  22  24
ATOM     24  C   UNL     1      -2.697   2.581  -2.418  0.00  0.00    +0.034 A 
ATOM     25  C   UNL     1      -2.016   3.328  -3.371  0.00  0.00    +0.023 A 
ATOM     26  C   UNL     1      -2.657   3.711  -4.532  0.00  0.00    +0.003 A 
ATOM     27  C   UNL     1      -3.978   3.360  -4.744  0.00  0.00    +0.015 A 
ATOM     28  C   UNL     1      -4.660   2.621  -3.795  0.00  0.00    +0.020 A 
ATOM     29  C   UNL     1      -4.023   2.230  -2.632  0.00  0.00    +0.038 A 
ATOM     30 BR   UNL     1      -6.466   2.144  -4.088  0.00  0.00    -0.050 Br
ENDBRANCH  22  24
ENDBRANCH   8  20
TORSDOF 2
