REMARK  Name = ZINC06073746
REMARK  7 active torsions:
REMARK  status: ('A' for Active; 'I' for Inactive)
REMARK    1  A    between atoms: C_1  and  C_2
REMARK    2  A    between atoms: N_4  and  C_5
REMARK    3  A    between atoms: C_8  and  C_11
REMARK    4  A    between atoms: C_11  and  C_13
REMARK    5  A    between atoms: C_13  and  S_14
REMARK    6  A    between atoms: S_14  and  C_15
REMARK    7  A    between atoms: C_22  and  C_24
REMARK                            x       y       z     vdW  Elec       q    Type
REMARK                         _______ _______ _______ _____ _____    ______ ____
ROOT
ATOM      1  C   UNL     1      -6.708   7.199  -0.502  0.00  0.00    +0.110 A 
ATOM      2  C   UNL     1      -7.857   8.039  -0.575  0.00  0.00    +0.043 A 
ATOM      3  C   UNL     1      -9.270   7.661  -0.524  0.00  0.00    -0.025 A 
ATOM      4  C   UNL     1     -10.174   8.658  -0.608  0.00  0.00    -0.004 A 
ATOM      5  S   UNL     1      -9.214  10.142  -0.750  0.00  0.00    -0.073 S 
ATOM      6  C   UNL     1      -7.595   9.419  -0.697  0.00  0.00    +0.114 A 
ATOM      7  N   UNL     1      -6.365   9.886  -0.748  0.00  0.00    -0.220 NA
ATOM      8  C   UNL     1      -5.331   9.057  -0.680  0.00  0.00    +0.162 A 
ATOM      9  N   UNL     1      -5.505   7.745  -0.561  0.00  0.00    -0.220 NA
ATOM     10  C   UNL     1     -11.667   8.533  -0.585  0.00  0.00    +0.043 C 
ATOM     11  C   UNL     1     -12.034   7.062  -0.824  0.00  0.00    +0.005 C 
ATOM     12  C   UNL     1     -11.172   6.186   0.089  0.00  0.00    +0.005 C 
ATOM     13  C   UNL     1      -9.720   6.209  -0.389  0.00  0.00    +0.037 C 
ENDROOT
BRANCH   8  14
ATOM     14  C   UNL     1      -3.954   9.605  -0.740  0.00  0.00    +0.019 A 
ATOM     15  C   UNL     1      -3.753  10.978  -0.872  0.00  0.00    +0.013 A 
ATOM     16  C   UNL     1      -2.470  11.483  -0.921  0.00  0.00    +0.021 A 
ATOM     17  C   UNL     1      -1.384  10.628  -0.852  0.00  0.00    +0.041 A 
ATOM     18  C   UNL     1      -1.578   9.263  -0.727  0.00  0.00    +0.021 A 
ATOM     19  C   UNL     1      -2.857   8.748  -0.671  0.00  0.00    +0.013 A 
ATOM     20 CL   UNL     1       0.228  11.269  -0.922  0.00  0.00    -0.084 Cl
ENDBRANCH   8  14
BRANCH   1  21
ATOM     21  S   UNL     1      -6.888   5.454  -0.343  0.00  0.00    -0.097 S 
BRANCH  21  22
ATOM     22  C   UNL     1      -5.147   4.960  -0.312  0.00  0.00    +0.155 C 
BRANCH  22  23
ATOM     23  C   UNL     1      -5.053   3.462  -0.177  0.00  0.00    +0.173 C 
ATOM     24  O   UNL     1      -6.063   2.794  -0.110  0.00  0.00    -0.291 OA
BRANCH  23  28
ATOM     25  C   UNL     1      -1.259   1.584  -0.038  0.00  0.00    +0.033 A 
ATOM     26  C   UNL     1      -1.344   2.968  -0.157  0.00  0.00    +0.024 A 
ATOM     27  C   UNL     1      -2.570   3.580  -0.207  0.00  0.00    +0.013 A 
ATOM     28  C   UNL     1      -3.737   2.811  -0.129  0.00  0.00    +0.018 A 
ATOM     29  C   UNL     1      -3.647   1.419  -0.004  0.00  0.00    +0.013 A 
ATOM     30  C   UNL     1      -2.417   0.815   0.041  0.00  0.00    +0.024 A 
BRANCH  25  34
ATOM     31  C   UNL     1       2.346   0.870   0.753  0.00  0.00    +0.109 C 
ATOM     32  C   UNL     1       1.022   1.578   0.619  0.00  0.00    +0.214 C 
ATOM     33  O   UNL     1       0.887   2.699   1.061  0.00  0.00    -0.276 OA
ATOM     34  N   UNL     1      -0.011   0.966   0.007  0.00  0.00    -0.286 N 
ATOM     35  H   UNL     1       0.115   0.097  -0.405  0.00  0.00    +0.155 HD
ENDBRANCH  25  34
ENDBRANCH  23  28
ENDBRANCH  22  23
ENDBRANCH  21  22
ENDBRANCH   1  21
TORSDOF 6
