REMARK  Name = ZINC35895172
REMARK  4 active torsions:
REMARK  status: ('A' for Active; 'I' for Inactive)
REMARK    1  A    between atoms: C_1  and  C_2
REMARK    2  A    between atoms: C_2  and  C_3
REMARK    3  A    between atoms: N_22  and  C_25
REMARK    4  A    between atoms: C_27  and  C_32
REMARK                            x       y       z     vdW  Elec       q    Type
REMARK                         _______ _______ _______ _____ _____    ______ ____
ROOT
ATOM      1  C   UNL     1       0.673  -0.579  -1.211  0.00  0.00    -0.047 A 
ATOM      2  C   UNL     1      -0.068  -0.881  -2.339  0.00  0.00    +0.005 A 
ATOM      3  C   UNL     1       0.553  -1.371  -3.469  0.00  0.00    +0.024 A 
ATOM      4  C   UNL     1       1.932  -1.566  -3.482  0.00  0.00    +0.036 A 
ATOM      5  C   UNL     1       2.667  -1.259  -2.342  0.00  0.00    -0.027 A 
ATOM      6  C   UNL     1       2.044  -0.764  -1.218  0.00  0.00    +0.008 A 
ATOM      7  C   UNL     1       4.098  -1.577  -2.676  0.00  0.00    +0.053 C 
ATOM      8  C   UNL     1       4.674  -2.633  -1.727  0.00  0.00    +0.089 C 
ATOM      9  C   UNL     1       5.495  -1.824  -0.686  0.00  0.00    +0.074 C 
ATOM     10  C   UNL     1       5.324  -0.349  -1.095  0.00  0.00    -0.054 C 
ATOM     11  N   UNL     1       4.960  -0.390  -2.550  0.00  0.00    +0.395 N 
ATOM     12  C   UNL     1       6.236  -0.637  -3.262  0.00  0.00    -0.076 C 
ATOM     13  C   UNL     1       7.296   0.168  -2.484  0.00  0.00    -0.020 C 
ATOM     14  C   UNL     1       6.691   0.356  -1.038  0.00  0.00    -0.016 C 
ATOM     15  C   UNL     1       6.918  -2.268  -0.942  0.00  0.00    +0.228 C 
ATOM     16  O   UNL     1       7.893  -1.873  -0.341  0.00  0.00    -0.275 OA
ATOM     17  N   UNL     1       6.931  -3.165  -1.935  0.00  0.00    -0.209 N 
ATOM     18  C   UNL     1       5.716  -3.455  -2.452  0.00  0.00    +0.229 C 
ATOM     19  O   UNL     1       5.490  -4.240  -3.348  0.00  0.00    -0.275 OA
ATOM     20  C   UNL     1       4.064  -2.079  -4.095  0.00  0.00    +0.212 C 
ATOM     21  O   UNL     1       5.012  -2.446  -4.756  0.00  0.00    -0.277 OA
ATOM     22  N   UNL     1       2.776  -2.042  -4.488  0.00  0.00    -0.286 N 
ATOM     23  H   UNL     1       2.471  -2.314  -5.367  0.00  0.00    +0.155 HD
ATOM     24  H   UNL     1       4.499   0.455  -2.852  0.00  0.00    -0.079 HD
ENDROOT
BRANCH  17  25
ATOM     25  C   UNL     1       8.112  -3.763  -2.400  0.00  0.00    +0.063 A 
ATOM     26  C   UNL     1       8.813  -3.189  -3.452  0.00  0.00    +0.037 A 
ATOM     27  C   UNL     1       9.976  -3.780  -3.909  0.00  0.00    +0.057 A 
ATOM     28  C   UNL     1      10.441  -4.942  -3.320  0.00  0.00    +0.014 A 
ATOM     29  C   UNL     1       9.744  -5.516  -2.272  0.00  0.00    +0.022 A 
ATOM     30  C   UNL     1       8.584  -4.926  -1.806  0.00  0.00    +0.063 A 
ATOM     31 CL   UNL     1       7.714  -5.643  -0.486  0.00  0.00    -0.082 Cl
BRANCH  27  32
ATOM     32  C   UNL     1      10.738  -3.158  -5.050  0.00  0.00    +0.417 C 
ATOM     33  F   UNL     1      11.674  -2.250  -4.546  0.00  0.00    -0.166 F 
ATOM     34  F   UNL     1      11.399  -4.159  -5.770  0.00  0.00    -0.166 F 
ATOM     35  F   UNL     1       9.847  -2.488  -5.895  0.00  0.00    -0.166 F 
ENDBRANCH  27  32
ENDBRANCH  17  25
BRANCH   1  37
ATOM     36  C   UNL     1      -0.063   1.483  -0.048  0.00  0.00    +0.009 C 
ATOM     37  C   UNL     1      -0.011  -0.044   0.021  0.00  0.00    +0.032 C 
ENDBRANCH   1  37
TORSDOF 3
