REMARK  Name = ZINC35412230
REMARK  2 active torsions:
REMARK  status: ('A' for Active; 'I' for Inactive)
REMARK    1  A    between atoms: C_5  and  N_19
REMARK    2  A    between atoms: C_6  and  C_7
REMARK                            x       y       z     vdW  Elec       q    Type
REMARK                         _______ _______ _______ _____ _____    ______ ____
ROOT
ATOM      1  C   UNL     1      -1.082  -1.032  -0.031  0.00  0.00    +0.141 A 
ATOM      2  N   UNL     1      -2.386  -0.624  -0.131  0.00  0.00    -0.338 N 
ATOM      3  H   UNL     1      -2.698   0.291  -0.205  0.00  0.00    +0.167 HD
ATOM      4  C   UNL     1      -3.173  -1.761  -0.107  0.00  0.00    +0.069 A 
ATOM      5  C   UNL     1      -4.541  -1.983  -0.172  0.00  0.00    +0.069 A 
ATOM      6  C   UNL     1      -5.031  -3.273  -0.121  0.00  0.00    +0.160 A 
ATOM      7  C   UNL     1      -4.160  -4.353  -0.005  0.00  0.00    +0.161 A 
ATOM      8  C   UNL     1      -2.800  -4.149   0.061  0.00  0.00    +0.071 A 
ATOM      9  C   UNL     1      -2.289  -2.847   0.010  0.00  0.00    +0.092 A 
ATOM     10  N   UNL     1      -1.032  -2.340   0.046  0.00  0.00    -0.228 NA
ATOM     11  F   UNL     1      -4.653  -5.610   0.043  0.00  0.00    -0.202 F 
ATOM     12  F   UNL     1      -6.363  -3.488  -0.184  0.00  0.00    -0.202 F 
ENDROOT
BRANCH   1  18
ATOM     13  C   UNL     1      -0.086   1.250   0.024  0.00  0.00    +0.033 A 
ATOM     14  C   UNL     1       1.014   2.084   0.036  0.00  0.00    +0.043 A 
ATOM     15  C   UNL     1       2.294   1.554   0.007  0.00  0.00    +0.042 A 
ATOM     16  C   UNL     1       2.482   0.185  -0.035  0.00  0.00    +0.064 A 
ATOM     17  C   UNL     1       1.387  -0.668  -0.048  0.00  0.00    +0.054 A 
ATOM     18  C   UNL     1       0.091  -0.134  -0.018  0.00  0.00    +0.041 A 
ATOM     19 CL   UNL     1       4.091  -0.468  -0.071  0.00  0.00    -0.082 Cl
ATOM     20 CL   UNL     1       0.792   3.805   0.088  0.00  0.00    -0.083 Cl
BRANCH  17  21
ATOM     21  N   UNL     1       1.575  -2.048  -0.091  0.00  0.00    -0.356 N 
ATOM     22  H   UNL     1       2.467  -2.413  -0.197  0.00  0.00    +0.142 HD
ATOM     23  H   UNL     1       0.813  -2.644  -0.015  0.00  0.00    +0.142 HD
ENDBRANCH  17  21
ENDBRANCH   1  18
TORSDOF 2
