REMARK  Name = ZINC36617153
REMARK  3 active torsions:
REMARK  status: ('A' for Active; 'I' for Inactive)
REMARK    1  A    between atoms: N_9  and  N_10
REMARK    2  A    between atoms: C_11  and  C_12
REMARK    3  A    between atoms: C_17  and  O_18
REMARK                            x       y       z     vdW  Elec       q    Type
REMARK                         _______ _______ _______ _____ _____    ______ ____
ROOT
ATOM      1  C   UNL     1      -0.017   1.381   0.010  0.00  0.00    +0.017 A 
ATOM      2  C   UNL     1       1.162   2.101   0.002  0.00  0.00    +0.025 A 
ATOM      3  C   UNL     1       2.384   1.440  -0.013  0.00  0.00    +0.043 A 
ATOM      4  C   UNL     1       2.400   0.037  -0.021  0.00  0.00    +0.029 A 
ATOM      5  C   UNL     1       1.207  -0.680  -0.014  0.00  0.00    +0.027 A 
ATOM      6  C   UNL     1       0.002  -0.004   0.002  0.00  0.00    +0.019 A 
ATOM      7 BR   UNL     1      -1.623  -0.971   0.012  0.00  0.00    -0.050 Br
ATOM      8  C   UNL     1       3.822  -0.365  -0.036  0.00  0.00    +0.157 C 
ATOM      9  N   UNL     1       4.310  -1.590  -0.048  0.00  0.00    -0.144 NA
ATOM     10  C   UNL     1       4.578   0.904  -0.037  0.00  0.00    +0.269 C 
ATOM     11  O   UNL     1       5.790   1.015  -0.048  0.00  0.00    -0.268 OA
ATOM     12  N   UNL     1       3.691   1.913  -0.023  0.00  0.00    -0.280 N 
ATOM     13  H   UNL     1       3.932   2.853  -0.021  0.00  0.00    +0.155 HD
ENDROOT
BRANCH   9  14
ATOM     14  N   UNL     1       5.586  -1.776  -0.061  0.00  0.00    -0.156 NA
ATOM     15  C   UNL     1       6.074  -3.000  -0.073  0.00  0.00    +0.146 C 
BRANCH  15  16
ATOM     16  C   UNL     1       7.521  -3.211  -0.088  0.00  0.00    +0.038 A 
ATOM     17  C   UNL     1       8.046  -4.512  -0.106  0.00  0.00    +0.028 A 
ATOM     18  C   UNL     1       9.409  -4.701  -0.120  0.00  0.00    +0.020 A 
ATOM     19  C   UNL     1      10.268  -3.612  -0.117  0.00  0.00    +0.034 A 
ATOM     20  C   UNL     1       9.768  -2.324  -0.099  0.00  0.00    +0.061 A 
ATOM     21  C   UNL     1       8.398  -2.110  -0.090  0.00  0.00    +0.139 A 
ATOM     22 BR   UNL     1      10.953  -0.851  -0.093  0.00  0.00    -0.046 Br
ATOM     23 BR   UNL     1      10.114  -6.455  -0.144  0.00  0.00    -0.050 Br
BRANCH  21  24
ATOM     24  O   UNL     1       7.905  -0.846  -0.078  0.00  0.00    -0.505 OA
ATOM     25  H   UNL     1       7.771  -0.485   0.809  0.00  0.00    +0.292 HD
ENDBRANCH  21  24
ENDBRANCH  15  16
ENDBRANCH   9  14
TORSDOF 3
