REMARK  Name = ZINC34830594
REMARK  8 active torsions:
REMARK  status: ('A' for Active; 'I' for Inactive)
REMARK    1  A    between atoms: C_1  and  C_2
REMARK    2  A    between atoms: C_2  and  C_3
REMARK    3  A    between atoms: C_6  and  N_9
REMARK    4  A    between atoms: C_17  and  C_19
REMARK    5  A    between atoms: C_20  and  C_22
REMARK    6  A    between atoms: C_22  and  C_23
REMARK    7  A    between atoms: C_23  and  N_24
REMARK    8  A    between atoms: C_32  and  C_34
REMARK                            x       y       z     vdW  Elec       q    Type
REMARK                         _______ _______ _______ _____ _____    ______ ____
ROOT
ATOM      1  N   UNL     1      -5.242  -2.421   0.048  0.00  0.00    -0.269 N 
ATOM      2  C   UNL     1      -5.950  -2.341  -1.096  0.00  0.00    +0.307 C 
ATOM      3  O   UNL     1      -5.397  -2.024  -2.132  0.00  0.00    -0.252 OA
ATOM      4  N   UNL     1      -7.270  -2.611  -1.091  0.00  0.00    -0.280 N 
ATOM      5  C   UNL     1      -7.994  -2.782   0.176  0.00  0.00    +0.128 C 
ATOM      6  C   UNL     1      -8.698  -4.144   0.158  0.00  0.00    +0.127 C 
ATOM      7  N   UNL     1      -9.440  -4.273  -1.104  0.00  0.00    -0.298 N 
ATOM      8  C   UNL     1      -8.716  -4.102  -2.371  0.00  0.00    +0.130 C 
ATOM      9  C   UNL     1      -8.013  -2.735  -2.353  0.00  0.00    +0.092 C 
ATOM     10  C   UNL     1      -7.042  -2.638  -3.532  0.00  0.00    +0.030 C 
ATOM     11  C   UNL     1     -10.760  -4.544  -1.099  0.00  0.00    +0.217 C 
ATOM     12  O   UNL     1     -11.362  -4.648  -2.148  0.00  0.00    -0.276 OA
ATOM     13  H   UNL     1      -5.657  -2.768   0.853  0.00  0.00    +0.156 HD
ENDROOT
BRANCH   1  17
ATOM     14  C   UNL     1      -1.265  -1.179   0.129  0.00  0.00    -0.048 A 
ATOM     15  C   UNL     1      -2.022  -1.147   1.286  0.00  0.00    +0.005 A 
ATOM     16  C   UNL     1      -3.340  -1.558   1.262  0.00  0.00    +0.023 A 
ATOM     17  C   UNL     1      -3.906  -2.004   0.075  0.00  0.00    +0.035 A 
ATOM     18  C   UNL     1      -3.144  -2.034  -1.085  0.00  0.00    +0.023 A 
ATOM     19  C   UNL     1      -1.828  -1.617  -1.056  0.00  0.00    +0.005 A 
BRANCH  14  21
ATOM     20  C   UNL     1       0.245   0.770  -0.134  0.00  0.00    +0.009 C 
ATOM     21  C   UNL     1       0.173  -0.730   0.158  0.00  0.00    +0.032 C 
ENDBRANCH  14  21
ENDBRANCH   1  17
BRANCH  11  22
ATOM     22  C   UNL     1     -11.489  -4.717   0.208  0.00  0.00    +0.111 C 
BRANCH  22  23
ATOM     23  C   UNL     1     -12.965  -5.014  -0.067  0.00  0.00    +0.094 C 
BRANCH  23  24
ATOM     24  N   UNL     1     -13.676  -5.183   1.208  0.00  0.00    -0.291 NA
ATOM     25  C   UNL     1     -13.679  -3.932   1.979  0.00  0.00    +0.090 C 
ATOM     26  C   UNL     1     -14.051  -4.249   3.437  0.00  0.00    +0.058 C 
ATOM     27  C   UNL     1     -15.239  -5.154   3.417  0.00  0.00    -0.004 A 
ATOM     28  C   UNL     1     -15.728  -5.831   2.341  0.00  0.00    -0.016 A 
ATOM     29  C   UNL     1     -16.857  -6.618   2.561  0.00  0.00    +0.013 A 
ATOM     30  C   UNL     1     -17.408  -6.681   3.795  0.00  0.00    +0.046 A 
ATOM     31  S   UNL     1     -16.334  -5.604   4.734  0.00  0.00    -0.101 S 
ATOM     32  C   UNL     1     -15.033  -5.700   0.989  0.00  0.00    +0.118 C 
BRANCH  32  33
ATOM     33  C   UNL     1     -14.959  -7.051   0.325  0.00  0.00    -0.023 A 
ATOM     34  C   UNL     1     -13.994  -7.961   0.716  0.00  0.00    +0.006 A 
ATOM     35  C   UNL     1     -13.925  -9.200   0.108  0.00  0.00    +0.003 A 
ATOM     36  C   UNL     1     -14.819  -9.530  -0.893  0.00  0.00    +0.038 A 
ATOM     37  C   UNL     1     -15.785  -8.620  -1.285  0.00  0.00    +0.124 A 
ATOM     38  C   UNL     1     -15.858  -7.381  -0.671  0.00  0.00    +0.043 A 
ATOM     39  F   UNL     1     -16.660  -8.941  -2.264  0.00  0.00    -0.205 F 
ENDBRANCH  32  33
ENDBRANCH  23  24
ENDBRANCH  22  23
ENDBRANCH  11  22
TORSDOF 6
