REMARK  Name = ZINC08722388
REMARK  3 active torsions:
REMARK  status: ('A' for Active; 'I' for Inactive)
REMARK    1  A    between atoms: C_1  and  C_2
REMARK    2  A    between atoms: C_14  and  C_17
REMARK    3  A    between atoms: C_20  and  C_22
REMARK                            x       y       z     vdW  Elec       q    Type
REMARK                         _______ _______ _______ _____ _____    ______ ____
ROOT
ATOM      1  C   UNL     1      -6.977  -5.714  -3.298  0.00  0.00    +0.008 C 
ATOM      2  C   UNL     1      -5.795  -6.080  -2.399  0.00  0.00    -0.009 C 
ATOM      3  C   UNL     1      -4.525  -6.209  -3.246  0.00  0.00    +0.008 C 
ATOM      4  C   UNL     1      -3.399  -6.812  -2.405  0.00  0.00    +0.037 C 
ATOM      5  C   UNL     1      -3.256  -6.002  -1.122  0.00  0.00    -0.023 A 
ATOM      6  C   UNL     1      -4.254  -5.197  -0.696  0.00  0.00    -0.004 A 
ATOM      7  S   UNL     1      -3.648  -4.470   0.804  0.00  0.00    -0.078 S 
ATOM      8  C   UNL     1      -2.107  -5.214   0.859  0.00  0.00    +0.080 A 
ATOM      9  C   UNL     1      -2.069  -6.031  -0.282  0.00  0.00    +0.068 A 
ATOM     10  C   UNL     1      -0.845  -6.833  -0.507  0.00  0.00    +0.248 C 
ATOM     11  O   UNL     1      -0.798  -7.691  -1.369  0.00  0.00    -0.270 OA
ATOM     12  N   UNL     1       0.218  -6.573   0.284  0.00  0.00    -0.287 N 
ATOM     13  C   UNL     1       0.275  -5.455   1.219  0.00  0.00    +0.227 C 
ATOM     14  N   UNL     1      -1.064  -5.124   1.743  0.00  0.00    -0.314 N 
ATOM     15  C   UNL     1      -5.580  -4.975  -1.355  0.00  0.00    +0.046 C 
ATOM     16  H   UNL     1       0.986  -7.162   0.228  0.00  0.00    +0.151 HD
ATOM     17  H   UNL     1      -1.199  -4.857   2.665  0.00  0.00    +0.149 HD
ENDROOT
BRANCH  13  18
ATOM     18  C   UNL     1       0.839  -4.250   0.513  0.00  0.00    +0.144 A 
ATOM     19  C   UNL     1       1.696  -4.278  -0.527  0.00  0.00    +0.049 A 
ATOM     20  C   UNL     1       1.965  -2.939  -0.876  0.00  0.00    +0.050 A 
ATOM     21  C   UNL     1       1.251  -2.160  -0.022  0.00  0.00    +0.137 A 
ATOM     22  O   UNL     1       0.577  -2.968   0.819  0.00  0.00    -0.456 OA
BRANCH  21  23
ATOM     23  C   UNL     1       1.223  -0.682  -0.013  0.00  0.00    +0.036 A 
ATOM     24  C   UNL     1       2.417   0.041  -0.021  0.00  0.00    +0.014 A 
ATOM     25  C   UNL     1       2.385   1.420  -0.013  0.00  0.00    +0.021 A 
ATOM     26  C   UNL     1       1.171   2.087   0.002  0.00  0.00    +0.042 A 
ATOM     27  C   UNL     1      -0.017   1.377   0.010  0.00  0.00    +0.040 A 
ATOM     28  C   UNL     1       0.002  -0.004   0.002  0.00  0.00    +0.053 A 
ATOM     29 CL   UNL     1      -1.488  -0.894   0.011  0.00  0.00    -0.083 Cl
ATOM     30 CL   UNL     1       1.140   3.823   0.012  0.00  0.00    -0.083 Cl
ENDBRANCH  21  23
ENDBRANCH  13  18
TORSDOF 2
