REMARK  Name = ZINC38965546
REMARK  4 active torsions:
REMARK  status: ('A' for Active; 'I' for Inactive)
REMARK    1  A    between atoms: N_7  and  S_8
REMARK    2  A    between atoms: S_8  and  C_11
REMARK    3  A    between atoms: C_18  and  N_23
REMARK    4  A    between atoms: N_23  and  C_24
REMARK                            x       y       z     vdW  Elec       q    Type
REMARK                         _______ _______ _______ _____ _____    ______ ____
ROOT
ATOM      1  C   UNL     1       0.573   1.430  -0.702  0.00  0.00    +0.002 A 
ATOM      2  C   UNL     1       1.793   2.108  -0.541  0.00  0.00    +0.002 A 
ATOM      3  C   UNL     1       2.960   1.468  -0.314  0.00  0.00    +0.030 A 
ATOM      4  C   UNL     1       2.996   0.053  -0.227  0.00  0.00    +0.089 A 
ATOM      5  N   UNL     1       4.137  -0.566  -0.005  0.00  0.00    -0.226 NA
ATOM      6  C   UNL     1       4.206  -1.904   0.083  0.00  0.00    +0.192 C 
ATOM      7  N   UNL     1       5.345  -2.493   0.304  0.00  0.00    -0.110 NA
ATOM      8  C   UNL     1       2.941  -2.717  -0.078  0.00  0.00    +0.237 C 
ATOM      9  N   UNL     1       1.685  -1.991  -0.325  0.00  0.00    -0.359 N 
ATOM     10  C   UNL     1       1.722  -0.689  -0.393  0.00  0.00    +0.063 A 
ATOM     11  C   UNL     1       0.495   0.083  -0.637  0.00  0.00    +0.027 A 
ATOM     12  H   UNL     1       0.849  -2.470  -0.435  0.00  0.00    +0.162 HD
ENDROOT
BRANCH   7  13
ATOM     13  S   UNL     1       6.723  -1.591   0.478  0.00  0.00    +0.100 S 
ATOM     14  O   UNL     1       6.970  -0.979  -0.780  0.00  0.00    -0.146 OA
ATOM     15  O   UNL     1       6.567  -0.839   1.674  0.00  0.00    -0.146 OA
BRANCH  13  16
ATOM     16  C   UNL     1       8.049  -2.716   0.761  0.00  0.00    +0.114 A 
ATOM     17  C   UNL     1       8.372  -3.094   2.051  0.00  0.00    +0.029 A 
ATOM     18  C   UNL     1       9.412  -3.977   2.273  0.00  0.00    +0.003 A 
ATOM     19  C   UNL     1      10.131  -4.481   1.205  0.00  0.00    +0.020 A 
ATOM     20  C   UNL     1       9.808  -4.103  -0.086  0.00  0.00    +0.043 A 
ATOM     21  C   UNL     1       8.763  -3.224  -0.308  0.00  0.00    +0.049 A 
ATOM     22 CL   UNL     1      10.710  -4.737  -1.427  0.00  0.00    -0.083 Cl
ENDBRANCH  13  16
ENDBRANCH   7  13
BRANCH   8  23
ATOM     23  N   UNL     1       2.764  -3.514   1.139  0.00  0.00    -0.318 N 
ATOM     24  H   UNL     1       2.909  -3.110   2.009  0.00  0.00    +0.148 HD
BRANCH  23  25
ATOM     25  C   UNL     1       2.386  -4.858   1.046  0.00  0.00    +0.033 A 
ATOM     26  C   UNL     1       2.034  -5.397  -0.184  0.00  0.00    +0.027 A 
ATOM     27  C   UNL     1       1.660  -6.723  -0.276  0.00  0.00    +0.051 A 
ATOM     28  C   UNL     1       1.636  -7.521   0.858  0.00  0.00    +0.162 A 
ATOM     29  C   UNL     1       1.990  -6.985   2.090  0.00  0.00    +0.164 A 
ATOM     30  C   UNL     1       2.369  -5.654   2.182  0.00  0.00    +0.072 A 
ATOM     31  O   UNL     1       1.981  -7.754   3.213  0.00  0.00    -0.485 OA
ATOM     32  C   UNL     1       1.245  -8.981   3.147  0.00  0.00    +0.270 C 
ATOM     33  C   UNL     1       1.609  -9.690   1.836  0.00  0.00    +0.270 C 
ATOM     34  O   UNL     1       1.261  -8.826   0.748  0.00  0.00    -0.485 OA
ENDBRANCH  23  25
ENDBRANCH   8  23
TORSDOF 4
