REMARK  Name = ZINC39426873
REMARK  9 active torsions:
REMARK  status: ('A' for Active; 'I' for Inactive)
REMARK    1  A    between atoms: C_1  and  C_2
REMARK    2  A    between atoms: C_2  and  C_3
REMARK    3  A    between atoms: C_3  and  C_5
REMARK    4  A    between atoms: C_3  and  S_24
REMARK    5  A    between atoms: N_7  and  C_8
REMARK    6  A    between atoms: C_11  and  S_14
REMARK    7  A    between atoms: S_14  and  N_17
REMARK    8  A    between atoms: S_24  and  C_25
REMARK    9  A    between atoms: C_26  and  C_35
REMARK                            x       y       z     vdW  Elec       q    Type
REMARK                         _______ _______ _______ _____ _____    ______ ____
ROOT
ATOM      1  C   UNL     1       0.611  -2.315  -1.307  0.00  0.00    +0.231 C 
ATOM      2  O   UNL     1      -0.170  -3.019  -1.910  0.00  0.00    -0.274 OA
ATOM      3  N   UNL     1       1.503  -2.869  -0.462  0.00  0.00    -0.285 N 
ATOM      4  H   UNL     1       2.172  -2.314  -0.031  0.00  0.00    +0.155 HD
ENDROOT
BRANCH   3   5
ATOM      5  C   UNL     1       1.464  -4.244  -0.205  0.00  0.00    +0.034 A 
ATOM      6  C   UNL     1       2.639  -4.938   0.049  0.00  0.00    +0.025 A 
ATOM      7  C   UNL     1       2.597  -6.295   0.302  0.00  0.00    +0.030 A 
ATOM      8  C   UNL     1       1.386  -6.962   0.302  0.00  0.00    +0.109 A 
ATOM      9  C   UNL     1       0.214  -6.274   0.049  0.00  0.00    +0.030 A 
ATOM     10  C   UNL     1       0.249  -4.916  -0.198  0.00  0.00    +0.025 A 
BRANCH   8  11
ATOM     11  S   UNL     1       1.337  -8.694   0.625  0.00  0.00    +0.073 S 
ATOM     12  O   UNL     1       0.143  -9.184   0.030  0.00  0.00    -0.150 OA
ATOM     13  O   UNL     1       2.620  -9.206   0.292  0.00  0.00    -0.150 OA
BRANCH  11  14
ATOM     14  N   UNL     1       1.162  -8.882   2.261  0.00  0.00    -0.199 N 
ATOM     15  C   UNL     1       0.002  -8.446   2.891  0.00  0.00    +0.138 A 
ATOM     16  C   UNL     1      -0.136  -8.602   4.266  0.00  0.00    +0.045 A 
ATOM     17  C   UNL     1      -1.295  -8.164   4.880  0.00  0.00    +0.005 A 
ATOM     18  C   UNL     1      -2.281  -7.582   4.095  0.00  0.00    +0.020 A 
ATOM     19  C   UNL     1      -2.078  -7.458   2.735  0.00  0.00    +0.113 A 
ATOM     20  N   UNL     1      -0.959  -7.881   2.177  0.00  0.00    -0.239 NA
ATOM     21  H   UNL     1       1.869  -9.296   2.780  0.00  0.00    +0.175 HD
ENDBRANCH  11  14
ENDBRANCH   8  11
ENDBRANCH   3   5
BRANCH   1  22
ATOM     22  C   UNL     1       0.585  -0.821  -1.502  0.00  0.00    +0.139 C 
BRANCH  22  24
ATOM     23  C   UNL     1      -0.071   1.354  -0.463  0.00  0.00    +0.005 C 
ATOM     24  C   UNL     1      -0.167  -0.168  -0.341  0.00  0.00    +0.020 C 
ENDBRANCH  22  24
BRANCH  22  25
ATOM     25  S   UNL     1      -0.253  -0.430  -3.063  0.00  0.00    -0.092 S 
BRANCH  25  26
ATOM     26  C   UNL     1       0.804  -1.111  -4.297  0.00  0.00    +0.115 A 
ATOM     27  C   UNL     1       0.496  -0.936  -5.659  0.00  0.00    +0.084 A 
ATOM     28  C   UNL     1       1.353  -1.493  -6.610  0.00  0.00    +0.027 A 
ATOM     29  C   UNL     1       2.473  -2.193  -6.178  0.00  0.00    -0.025 A 
ATOM     30  C   UNL     1       2.715  -2.319  -4.827  0.00  0.00    +0.046 A 
ATOM     31  N   UNL     1       1.885  -1.780  -3.942  0.00  0.00    -0.244 NA
ATOM     32  C   UNL     1       3.920  -3.049  -4.290  0.00  0.00    +0.056 C 
ATOM     33  C   UNL     1       4.520  -3.957  -5.361  0.00  0.00    +0.006 C 
ATOM     34  C   UNL     1       4.740  -3.128  -6.632  0.00  0.00    +0.005 C 
ATOM     35  C   UNL     1       3.374  -2.789  -7.227  0.00  0.00    +0.037 C 
BRANCH  27  36
ATOM     36  C   UNL     1      -0.668  -0.204  -6.059  0.00  0.00    +0.102 C 
ATOM     37  N   UNL     1      -1.591   0.376  -6.377  0.00  0.00    -0.191 NA
ENDBRANCH  27  36
ENDBRANCH  25  26
ENDBRANCH  22  25
ENDBRANCH   1  22
TORSDOF 8
