REMARK  Name = ZINC10040273
REMARK  13 active torsions:
REMARK  status: ('A' for Active; 'I' for Inactive)
REMARK    1  A    between atoms: C_1  and  C_2
REMARK    2  A    between atoms: C_2  and  O_3
REMARK    3  A    between atoms: O_3  and  C_4
REMARK    4  A    between atoms: C_6  and  C_12
REMARK    5  A    between atoms: C_9  and  O_10
REMARK    6  A    between atoms: N_13  and  N_14
REMARK    7  A    between atoms: C_15  and  C_17
REMARK    8  A    between atoms: C_17  and  C_19
REMARK    9  A    between atoms: C_17  and  N_22
REMARK   10  A    between atoms: C_19  and  C_20
REMARK   11  A    between atoms: C_19  and  C_21
REMARK   12  A    between atoms: C_23  and  C_25
REMARK   13  A    between atoms: C_28  and  C_31
REMARK                            x       y       z     vdW  Elec       q    Type
REMARK                         _______ _______ _______ _____ _____    ______ ____
ROOT
ATOM      1  N   UNL     1      -2.447  -2.500  -1.170  0.00  0.00    -0.205 N 
ATOM      2  C   UNL     1      -1.332  -1.833  -0.810  0.00  0.00    +0.253 C 
ATOM      3  O   UNL     1      -0.244  -2.235  -1.163  0.00  0.00    -0.272 OA
ATOM      4  H   UNL     1      -3.320  -2.139  -0.949  0.00  0.00    +0.177 HD
ENDROOT
BRANCH   1   6
ATOM      5  C   UNL     1      -3.418  -4.355  -2.210  0.00  0.00    +0.138 C 
ATOM      6  N   UNL     1      -2.344  -3.713  -1.863  0.00  0.00    -0.188 NA
BRANCH   5   9
ATOM      7  C   UNL     1      -4.357  -7.521  -3.997  0.00  0.00    +0.164 A 
ATOM      8  C   UNL     1      -4.464  -6.327  -3.308  0.00  0.00    +0.059 A 
ATOM      9  C   UNL     1      -3.310  -5.631  -2.939  0.00  0.00    -0.000 A 
ATOM     10  C   UNL     1      -2.053  -6.152  -3.258  0.00  0.00    +0.033 A 
ATOM     11  C   UNL     1      -1.954  -7.347  -3.940  0.00  0.00    +0.087 A 
ATOM     12  C   UNL     1      -3.102  -8.035  -4.311  0.00  0.00    +0.177 A 
ATOM     13 CL   UNL     1      -0.392  -7.992  -4.336  0.00  0.00    -0.080 Cl
BRANCH  12  14
ATOM     14  O   UNL     1      -2.999  -9.212  -4.983  0.00  0.00    -0.502 OA
ATOM     15  H   UNL     1      -2.956  -9.990  -4.410  0.00  0.00    +0.292 HD
ENDBRANCH  12  14
BRANCH   7  16
ATOM     16  O   UNL     1      -5.479  -8.198  -4.362  0.00  0.00    -0.489 OA
BRANCH  16  18
ATOM     17  C   UNL     1      -7.872  -8.510  -4.497  0.00  0.00    +0.048 C 
ATOM     18  C   UNL     1      -6.734  -7.613  -4.006  0.00  0.00    +0.226 C 
ENDBRANCH  16  18
ENDBRANCH   7  16
ENDBRANCH   5   9
ENDBRANCH   1   6
BRANCH   2  19
ATOM     19  C   UNL     1      -1.438  -0.587   0.032  0.00  0.00    +0.163 C 
BRANCH  19  20
ATOM     20  N   UNL     1      -0.285   0.278  -0.229  0.00  0.00    -0.300 N 
ATOM     21  C   UNL     1      -0.377   1.606  -0.018  0.00  0.00    +0.245 C 
ATOM     22  O   UNL     1      -1.419   2.086   0.385  0.00  0.00    -0.270 OA
ATOM     23  H   UNL     1       0.545  -0.105  -0.554  0.00  0.00    +0.150 HD
BRANCH  21  24
ATOM     24  C   UNL     1       0.786   2.479  -0.281  0.00  0.00    +0.037 A 
ATOM     25  C   UNL     1       1.984   1.930  -0.743  0.00  0.00    +0.013 A 
ATOM     26  C   UNL     1       3.064   2.751  -0.991  0.00  0.00    +0.004 A 
ATOM     27  C   UNL     1       2.966   4.114  -0.772  0.00  0.00    -0.050 A 
ATOM     28  C   UNL     1       1.784   4.663  -0.310  0.00  0.00    +0.004 A 
ATOM     29  C   UNL     1       0.694   3.854  -0.063  0.00  0.00    +0.013 A 
ATOM     30  C   UNL     1       4.153   5.004  -1.040  0.00  0.00    +0.044 C 
ENDBRANCH  21  24
ENDBRANCH  19  20
BRANCH  19  31
ATOM     31  C   UNL     1      -1.462  -0.973   1.512  0.00  0.00    +0.012 C 
ATOM     32  C   UNL     1      -1.621   0.287   2.365  0.00  0.00    +0.009 C 
ATOM     33  C   UNL     1      -2.636  -1.918   1.774  0.00  0.00    +0.009 C 
ENDBRANCH  19  31
ENDBRANCH   2  19
TORSDOF 9
