REMARK  Name = ZINC67129440
REMARK  7 active torsions:
REMARK  status: ('A' for Active; 'I' for Inactive)
REMARK    1  A    between atoms: C_6  and  C_7
REMARK    2  A    between atoms: C_7  and  N_8
REMARK    3  A    between atoms: N_8  and  C_9
REMARK    4  A    between atoms: C_15  and  C_17
REMARK    5  A    between atoms: C_17  and  N_18
REMARK    6  A    between atoms: C_20  and  O_28
REMARK    7  A    between atoms: C_23  and  C_25
REMARK                            x       y       z     vdW  Elec       q    Type
REMARK                         _______ _______ _______ _____ _____    ______ ____
ROOT
ATOM      1  N   UNL     1      -1.784  -0.911  -1.363  0.00  0.00    -0.296 N 
ATOM      2  C   UNL     1      -2.525   0.070  -1.915  0.00  0.00    +0.200 C 
ATOM      3  O   UNL     1      -2.860   1.025  -1.247  0.00  0.00    -0.278 OA
ENDROOT
BRANCH   1   4
ATOM      4  C   UNL     1      -1.474  -2.117  -2.135  0.00  0.00    +0.076 C 
ATOM      5  C   UNL     1      -2.140  -3.328  -1.478  0.00  0.00    +0.022 C 
ATOM      6  C   UNL     1      -1.817  -4.588  -2.283  0.00  0.00    +0.002 C 
ATOM      7  C   UNL     1      -0.302  -4.796  -2.318  0.00  0.00    +0.000 C 
ATOM      8  C   UNL     1       0.364  -3.586  -2.976  0.00  0.00    +0.002 C 
ATOM      9  C   UNL     1       0.041  -2.326  -2.170  0.00  0.00    +0.022 C 
ENDBRANCH   1   4
BRANCH   1  10
ATOM     10  C   UNL     1      -1.286  -0.771   0.007  0.00  0.00    +0.143 C 
BRANCH  10  16
ATOM     11  C   UNL     1      -0.073   1.418  -0.025  0.00  0.00    +0.008 A 
ATOM     12  C   UNL     1       1.093   2.160  -0.031  0.00  0.00    +0.038 A 
ATOM     13  C   UNL     1       2.321   1.519  -0.013  0.00  0.00    +0.123 A 
ATOM     14  C   UNL     1       2.378   0.136   0.012  0.00  0.00    +0.038 A 
ATOM     15  C   UNL     1       1.211  -0.604   0.019  0.00  0.00    +0.008 A 
ATOM     16  C   UNL     1      -0.014   0.037   0.000  0.00  0.00    -0.030 A 
ATOM     17  F   UNL     1       3.461   2.243  -0.020  0.00  0.00    -0.205 F 
ENDBRANCH  10  16
ENDBRANCH   1  10
BRANCH   2  18
ATOM     18  C   UNL     1      -2.939  -0.021  -3.361  0.00  0.00    +0.020 C 
BRANCH  18  19
ATOM     19  N   UNL     1      -3.626   1.217  -3.753  0.00  0.00    +0.395 N 
ATOM     20  C   UNL     1      -2.665   2.350  -3.777  0.00  0.00    -0.045 C 
ATOM     21  C   UNL     1      -3.354   3.379  -4.708  0.00  0.00    +0.097 C 
ATOM     22  C   UNL     1      -4.007   2.486  -5.788  0.00  0.00    +0.023 C 
ATOM     23  C   UNL     1      -4.144   1.099  -5.133  0.00  0.00    +0.022 C 
ATOM     24  H   UNL     1      -4.381   1.413  -3.113  0.00  0.00    -0.080 HD
BRANCH  23  25
ATOM     25  C   UNL     1      -5.593   0.685  -5.104  0.00  0.00    +0.197 C 
ATOM     26  O   UNL     1      -6.150   0.504  -4.042  0.00  0.00    -0.278 OA
ATOM     27  N   UNL     1      -6.269   0.517  -6.258  0.00  0.00    -0.331 N 
ATOM     28  H   UNL     1      -5.822   0.662  -7.107  0.00  0.00    +0.145 HD
ATOM     29  H   UNL     1      -7.201   0.251  -6.239  0.00  0.00    +0.145 HD
ENDBRANCH  23  25
BRANCH  21  30
ATOM     30  O   UNL     1      -2.390   4.260  -5.289  0.00  0.00    -0.394 OA
ATOM     31  H   UNL     1      -2.771   4.923  -5.881  0.00  0.00    +0.210 HD
ENDBRANCH  21  30
ENDBRANCH  18  19
ENDBRANCH   2  18
TORSDOF 7
