REMARK  Name = ZINC06075279
REMARK  8 active torsions:
REMARK  status: ('A' for Active; 'I' for Inactive)
REMARK    1  A    between atoms: C_1  and  C_2
REMARK    2  A    between atoms: C_2  and  C_3
REMARK    3  A    between atoms: C_2  and  C_4
REMARK    4  A    between atoms: C_2  and  C_5
REMARK    5  A    between atoms: N_16  and  C_27
REMARK    6  A    between atoms: C_17  and  S_19
REMARK    7  A    between atoms: S_19  and  C_20
REMARK    8  A    between atoms: C_20  and  C_21
REMARK                            x       y       z     vdW  Elec       q    Type
REMARK                         _______ _______ _______ _____ _____    ______ ____
ROOT
ATOM      1  C   UNL     1      11.002  -0.454   0.711  0.00  0.00    -0.000 C 
ATOM      2  C   UNL     1      10.889  -1.004  -0.714  0.00  0.00    +0.009 C 
ATOM      3  C   UNL     1       9.620  -0.469  -1.379  0.00  0.00    +0.037 C 
ATOM      4  C   UNL     1       8.429  -0.751  -0.467  0.00  0.00    -0.023 A 
ATOM      5  C   UNL     1       8.613  -1.030   0.840  0.00  0.00    -0.004 A 
ATOM      6  S   UNL     1       6.984  -1.284   1.490  0.00  0.00    -0.073 S 
ATOM      7  C   UNL     1       6.057  -1.014   0.000  0.00  0.00    +0.117 A 
ATOM      8  C   UNL     1       7.049  -0.735  -0.955  0.00  0.00    +0.076 A 
ATOM      9  C   UNL     1       6.581  -0.471  -2.281  0.00  0.00    +0.268 A 
ATOM     10  O   UNL     1       7.370  -0.221  -3.176  0.00  0.00    -0.267 OA
ATOM     11  N   UNL     1       5.259  -0.508  -2.528  0.00  0.00    -0.255 N 
ATOM     12  C   UNL     1       4.360  -0.783  -1.535  0.00  0.00    +0.178 A 
ATOM     13  N   UNL     1       4.765  -1.031  -0.306  0.00  0.00    -0.215 NA
ATOM     14  C   UNL     1       9.915  -1.107   1.577  0.00  0.00    +0.046 C 
ENDROOT
BRANCH  11  15
ATOM     15  C   UNL     1       4.794  -0.255  -3.825  0.00  0.00    +0.052 A 
ATOM     16  C   UNL     1       4.644  -1.300  -4.727  0.00  0.00    +0.026 A 
ATOM     17  C   UNL     1       4.180  -1.048  -6.003  0.00  0.00    +0.002 A 
ATOM     18  C   UNL     1       3.877   0.245  -6.387  0.00  0.00    +0.000 A 
ATOM     19  C   UNL     1       4.032   1.289  -5.494  0.00  0.00    +0.002 A 
ATOM     20  C   UNL     1       4.489   1.043  -4.214  0.00  0.00    +0.026 A 
ENDBRANCH  11  15
BRANCH   1  22
ATOM     21  C   UNL     1      12.579  -2.304   1.287  0.00  0.00    +0.011 C 
ATOM     22  C   UNL     1      12.382  -0.787   1.282  0.00  0.00    -0.035 C 
ATOM     23  C   UNL     1      13.462  -0.136   0.416  0.00  0.00    +0.011 C 
ATOM     24  C   UNL     1      12.484  -0.254   2.712  0.00  0.00    +0.011 C 
ENDBRANCH   1  22
BRANCH  12  25
ATOM     25  S   UNL     1       2.638  -0.814  -1.906  0.00  0.00    -0.083 S 
BRANCH  25  26
ATOM     26  C   UNL     1       1.972  -1.222  -0.273  0.00  0.00    +0.112 C 
BRANCH  26  27
ATOM     27  C   UNL     1       0.469  -1.304  -0.349  0.00  0.00    -0.037 A 
ATOM     28  C   UNL     1      -0.143  -2.507  -0.645  0.00  0.00    +0.004 A 
ATOM     29  C   UNL     1      -1.522  -2.581  -0.720  0.00  0.00    +0.000 A 
ATOM     30  C   UNL     1      -2.288  -1.454  -0.490  0.00  0.00    +0.000 A 
ATOM     31  C   UNL     1      -1.675  -0.251  -0.194  0.00  0.00    +0.000 A 
ATOM     32  C   UNL     1      -0.297  -0.176  -0.124  0.00  0.00    +0.004 A 
ENDBRANCH  26  27
ENDBRANCH  25  26
ENDBRANCH  12  25
TORSDOF 5
