REMARK  Name = ZINC12901723
REMARK  6 active torsions:
REMARK  status: ('A' for Active; 'I' for Inactive)
REMARK    1  A    between atoms: C_1  and  C_2
REMARK    2  A    between atoms: C_5  and  N_8
REMARK    3  A    between atoms: C_13  and  C_37
REMARK    4  A    between atoms: C_37  and  C_38
REMARK    5  A    between atoms: C_38  and  C_39
REMARK    6  A    between atoms: C_38  and  C_40
REMARK                            x       y       z     vdW  Elec       q    Type
REMARK                         _______ _______ _______ _____ _____    ______ ____
ROOT
ATOM      1  N   UNL     1       0.002   1.511  -0.006  0.00  0.00    -0.210 N 
ATOM      2  C   UNL     1      -1.130   2.225   0.006  0.00  0.00    +0.228 C 
ATOM      3  O   UNL     1      -2.248   1.763   0.089  0.00  0.00    -0.275 OA
ATOM      4  C   UNL     1      -0.798   3.696  -0.097  0.00  0.00    +0.073 C 
ATOM      5  C   UNL     1      -1.118   4.387   1.246  0.00  0.00    -0.057 C 
ATOM      6  C   UNL     1       1.213   4.425   1.086  0.00  0.00    +0.032 C 
ATOM      7  C   UNL     1       0.754   3.707  -0.189  0.00  0.00    +0.087 C 
ATOM      8  C   UNL     1       1.118   2.242  -0.113  0.00  0.00    +0.229 C 
ATOM      9  O   UNL     1       2.246   1.798  -0.144  0.00  0.00    -0.275 OA
ATOM     10  C   UNL     1       1.643   3.454   2.146  0.00  0.00    -0.026 A 
ATOM     11  C   UNL     1       1.002   2.427   2.805  0.00  0.00    +0.005 A 
ATOM     12  C   UNL     1       1.677   1.689   3.760  0.00  0.00    +0.000 A 
ATOM     13  C   UNL     1       2.996   1.984   4.054  0.00  0.00    +0.002 A 
ATOM     14  C   UNL     1       3.642   3.011   3.396  0.00  0.00    +0.026 A 
ATOM     15  C   UNL     1       2.968   3.758   2.433  0.00  0.00    +0.053 A 
ATOM     16  N   UNL     1       3.410   4.833   1.645  0.00  0.00    -0.265 N 
ATOM     17  C   UNL     1       2.423   5.286   0.821  0.00  0.00    +0.112 A 
ATOM     18  N   UNL     1       2.587   6.280  -0.005  0.00  0.00    -0.234 NA
ATOM     19  C   UNL     1       3.762   6.944  -0.109  0.00  0.00    +0.078 A 
ATOM     20  C   UNL     1       3.929   8.010  -0.996  0.00  0.00    +0.028 A 
ATOM     21  C   UNL     1       5.143   8.655  -1.067  0.00  0.00    +0.002 A 
ATOM     22  C   UNL     1       6.206   8.258  -0.266  0.00  0.00    +0.001 A 
ATOM     23  C   UNL     1       6.066   7.210   0.617  0.00  0.00    +0.015 A 
ATOM     24  C   UNL     1       4.845   6.544   0.705  0.00  0.00    +0.065 A 
ATOM     25  C   UNL     1       4.635   5.422   1.627  0.00  0.00    +0.266 A 
ATOM     26  O   UNL     1       5.530   5.030   2.353  0.00  0.00    -0.267 OA
ATOM     27  N   UNL     1       0.066   5.207   1.513  0.00  0.00    +0.393 N 
ATOM     28  H   UNL     1       0.133   5.417   2.516  0.00  0.00    -0.084 HD
ATOM     29  H   UNL     1       0.017   6.084   0.982  0.00  0.00    -0.084 HD
ENDROOT
BRANCH   1  34
ATOM     30  C   UNL     1       0.063  -4.153   0.342  0.00  0.00    +0.044 C 
ATOM     31  C   UNL     1       0.047  -2.649   0.250  0.00  0.00    -0.050 A 
ATOM     32  C   UNL     1      -0.371  -1.896   1.331  0.00  0.00    +0.005 A 
ATOM     33  C   UNL     1      -0.387  -0.517   1.249  0.00  0.00    +0.024 A 
ATOM     34  C   UNL     1       0.018   0.112   0.080  0.00  0.00    +0.044 A 
ATOM     35  C   UNL     1       0.431  -0.647  -1.006  0.00  0.00    +0.024 A 
ATOM     36  C   UNL     1       0.451  -2.025  -0.916  0.00  0.00    +0.005 A 
ENDBRANCH   1  34
BRANCH   5  37
ATOM     37  C   UNL     1      -2.376   5.249   1.117  0.00  0.00    -0.012 C 
BRANCH  37  38
ATOM     38  C   UNL     1      -2.681   5.910   2.463  0.00  0.00    -0.019 C 
ATOM     39  C   UNL     1      -3.854   6.879   2.300  0.00  0.00    +0.007 C 
ATOM     40  C   UNL     1      -3.046   4.835   3.489  0.00  0.00    +0.007 C 
ENDBRANCH  37  38
ENDBRANCH   5  37
TORSDOF 3
