REMARK  Name = ZINC23859004
REMARK  7 active torsions:
REMARK  status: ('A' for Active; 'I' for Inactive)
REMARK    1  A    between atoms: C_1  and  N_2
REMARK    2  A    between atoms: N_5  and  C_8
REMARK    3  A    between atoms: C_8  and  C_10
REMARK    4  A    between atoms: C_8  and  C_24
REMARK    5  A    between atoms: C_10  and  N_11
REMARK    6  A    between atoms: C_12  and  C_14
REMARK    7  A    between atoms: N_33  and  C_34
REMARK                            x       y       z     vdW  Elec       q    Type
REMARK                         _______ _______ _______ _____ _____    ______ ____
ROOT
ATOM      1  C   UNL     1       3.289  -2.400   4.321  0.00  0.00    +0.104 C 
ENDROOT
BRANCH   1   2
ATOM      2  C   UNL     1       2.615  -1.857   3.087  0.00  0.00    -0.028 A 
ATOM      3  C   UNL     1       1.772  -2.664   2.345  0.00  0.00    +0.007 A 
ATOM      4  C   UNL     1       1.160  -2.166   1.216  0.00  0.00    +0.024 A 
ATOM      5  C   UNL     1       1.385  -0.849   0.812  0.00  0.00    +0.033 A 
ATOM      6  C   UNL     1       2.225  -0.043   1.561  0.00  0.00    -0.026 A 
ATOM      7  C   UNL     1       2.839  -0.552   2.695  0.00  0.00    +0.010 A 
ATOM      8  C   UNL     1       2.496   1.393   1.190  0.00  0.00    +0.038 C 
ATOM      9  C   UNL     1       2.055   1.643  -0.255  0.00  0.00    +0.024 C 
ATOM     10  C   UNL     1       0.651   1.052  -0.429  0.00  0.00    +0.105 C 
ATOM     11  N   UNL     1       0.742  -0.407  -0.343  0.00  0.00    -0.333 N 
ATOM     12  C   UNL     1      -0.583  -1.026  -0.478  0.00  0.00    +0.129 C 
ENDBRANCH   1   2
BRANCH   1  17
ATOM     13  C   UNL     1      -0.150  -4.864   8.063  0.00  0.00    -0.096 C 
ATOM     14  N   UNL     1       0.794  -4.017   7.322  0.00  0.00    +0.379 N 
ATOM     15  C   UNL     1       1.995  -4.775   6.942  0.00  0.00    -0.064 C 
ATOM     16  C   UNL     1       2.985  -3.840   6.244  0.00  0.00    +0.066 C 
ATOM     17  N   UNL     1       2.345  -3.247   5.062  0.00  0.00    -0.297 NA
ATOM     18  C   UNL     1       1.144  -2.489   5.441  0.00  0.00    +0.066 C 
ATOM     19  C   UNL     1       0.154  -3.424   6.140  0.00  0.00    -0.064 C 
ATOM     20  H   UNL     1       1.105  -3.198   7.987  0.00  0.00    -0.082 HD
ENDBRANCH   1  17
BRANCH   1  21
ATOM     21  C   UNL     1       4.507  -3.231   3.912  0.00  0.00    +0.127 C 
BRANCH  21  22
ATOM     22  N   UNL     1       5.486  -2.369   3.246  0.00  0.00    -0.313 N 
ATOM     23  C   UNL     1       6.682  -2.868   2.875  0.00  0.00    +0.219 C 
ATOM     24  O   UNL     1       6.947  -4.031   3.093  0.00  0.00    -0.275 OA
ATOM     25  H   UNL     1       5.245  -1.314   3.049  0.00  0.00    +0.149 HD
BRANCH  23  26
ATOM     26  C   UNL     1       7.689  -1.980   2.189  0.00  0.00    +0.048 C 
ATOM     27  C   UNL     1       7.092  -1.443   0.887  0.00  0.00    +0.019 C 
ATOM     28  C   UNL     1       8.114  -0.542   0.191  0.00  0.00    -0.009 C 
ATOM     29  C   UNL     1       9.376  -1.349  -0.121  0.00  0.00    +0.007 C 
ATOM     30  C   UNL     1       9.973  -1.886   1.182  0.00  0.00    -0.009 C 
ATOM     31  C   UNL     1       8.951  -2.787   1.878  0.00  0.00    +0.019 C 
ATOM     32  C   UNL     1      10.330  -0.715   2.100  0.00  0.00    +0.007 C 
ATOM     33  C   UNL     1       9.068   0.091   2.412  0.00  0.00    -0.009 C 
ATOM     34  C   UNL     1       8.471   0.628   1.109  0.00  0.00    +0.007 C 
ATOM     35  C   UNL     1       8.045  -0.810   3.108  0.00  0.00    +0.019 C 
ENDBRANCH  23  26
ENDBRANCH  21  22
ENDBRANCH   1  21
TORSDOF 5
