REMARK  Name = ZINC39030353
REMARK  10 active torsions:
REMARK  status: ('A' for Active; 'I' for Inactive)
REMARK    1  A    between atoms: C_1  and  C_2
REMARK    2  A    between atoms: C_2  and  O_3
REMARK    3  A    between atoms: O_3  and  C_4
REMARK    4  A    between atoms: C_4  and  C_6
REMARK    5  A    between atoms: C_7  and  C_35
REMARK    6  A    between atoms: N_11  and  C_12
REMARK    7  A    between atoms: C_12  and  C_14
REMARK    8  A    between atoms: C_14  and  S_15
REMARK    9  A    between atoms: S_15  and  C_16
REMARK   10  A    between atoms: N_32  and  C_33
REMARK                            x       y       z     vdW  Elec       q    Type
REMARK                         _______ _______ _______ _____ _____    ______ ____
ROOT
ATOM      1  S   UNL     1       4.757   0.007  -8.374  0.00  0.00    -0.113 S 
ENDROOT
BRANCH   1   2
ATOM      2  C   UNL     1       5.647  -0.186  -9.943  0.00  0.00    +0.205 C 
ATOM      3  N   UNL     1       6.921  -0.854  -9.666  0.00  0.00    -0.277 NA
ATOM      4  C   UNL     1       7.046  -2.098 -10.410  0.00  0.00    +0.135 C 
ATOM      5  C   UNL     1       6.731  -1.730 -11.892  0.00  0.00    +0.129 C 
ATOM      6  C   UNL     1       7.428  -2.621 -12.844  0.00  0.00    -0.046 C 
ATOM      7  C   UNL     1       8.565  -3.172 -12.394  0.00  0.00    -0.013 C 
ATOM      8  S   UNL     1       8.778  -2.637 -10.673  0.00  0.00    -0.110 S 
ATOM      9  C   UNL     1       9.495  -4.065 -13.158  0.00  0.00    +0.042 C 
ATOM     10  C   UNL     1       8.765  -4.602 -14.396  0.00  0.00    +0.005 C 
ATOM     11  C   UNL     1       8.084  -3.429 -15.106  0.00  0.00    +0.005 C 
ATOM     12  C   UNL     1       6.925  -2.917 -14.253  0.00  0.00    +0.032 C 
ATOM     13  C   UNL     1       5.250  -1.562 -11.954  0.00  0.00    +0.227 C 
ATOM     14  O   UNL     1       4.556  -2.001 -12.846  0.00  0.00    -0.275 OA
ATOM     15  N   UNL     1       4.765  -0.859 -10.884  0.00  0.00    -0.279 N 
ATOM     16  C   UNL     1       3.316  -0.778 -10.685  0.00  0.00    +0.134 C 
ATOM     17  H   UNL     1       7.700  -0.241  -9.855  0.00  0.00    +0.126 HD
ENDBRANCH   1   2
BRANCH   1  18
ATOM     18  C   UNL     1       4.456  -1.697  -7.828  0.00  0.00    +0.170 C 
BRANCH  18  19
ATOM     19  C   UNL     1       3.713  -1.680  -6.517  0.00  0.00    +0.248 C 
ATOM     20  O   UNL     1       3.416  -0.621  -6.000  0.00  0.00    -0.273 OA
BRANCH  19  26
ATOM     21  C   UNL     1       1.449  -2.345  -2.517  0.00  0.00    +0.118 A 
ATOM     22  C   UNL     1       1.654  -3.643  -2.866  0.00  0.00    +0.036 A 
ATOM     23  N   UNL     1       2.308  -3.869  -4.019  0.00  0.00    -0.339 N 
ATOM     24  H   UNL     1       2.481  -4.777  -4.315  0.00  0.00    +0.167 HD
ATOM     25  C   UNL     1       2.727  -2.809  -4.767  0.00  0.00    +0.164 A 
ATOM     26  N   UNL     1       3.384  -2.823  -5.926  0.00  0.00    -0.156 NA
ATOM     27  S   UNL     1       2.209  -1.478  -3.879  0.00  0.00    -0.046 S 
ATOM     28  C   UNL     1       1.169  -4.777  -2.000  0.00  0.00    +0.065 C 
BRANCH  21  29
ATOM     29  C   UNL     1       0.776  -1.800  -1.335  0.00  0.00    +0.348 C 
ATOM     30  O   UNL     1       0.312  -2.552  -0.499  0.00  0.00    -0.244 OA
BRANCH  29  31
ATOM     31  O   UNL     1       0.671  -0.465  -1.174  0.00  0.00    -0.461 OA
BRANCH  31  33
ATOM     32  C   UNL     1      -0.019   1.526   0.010  0.00  0.00    +0.048 C 
ATOM     33  C   UNL     1       0.002  -0.004   0.002  0.00  0.00    +0.229 C 
ENDBRANCH  31  33
ENDBRANCH  29  31
ENDBRANCH  21  29
ENDBRANCH  19  26
ENDBRANCH  18  19
ENDBRANCH   1  18
TORSDOF 7
