REMARK  Name = ZINC03054563
REMARK  9 active torsions:
REMARK  status: ('A' for Active; 'I' for Inactive)
REMARK    1  A    between atoms: C_1  and  C_2
REMARK    2  A    between atoms: C_2  and  C_3
REMARK    3  A    between atoms: C_7  and  N_9
REMARK    4  A    between atoms: N_9  and  C_10
REMARK    5  A    between atoms: C_10  and  N_12
REMARK    6  A    between atoms: N_12  and  C_13
REMARK    7  A    between atoms: N_12  and  C_24
REMARK    8  A    between atoms: C_13  and  C_14
REMARK    9  A    between atoms: N_16  and  C_23
REMARK                            x       y       z     vdW  Elec       q    Type
REMARK                         _______ _______ _______ _____ _____    ______ ____
ROOT
ATOM      1  N   UNL     1      -5.866  -2.372  -3.525  0.00  0.00    -0.305 N 
ENDROOT
BRANCH   1   2
ATOM      2  C   UNL     1      -5.145  -2.219  -4.791  0.00  0.00    +0.075 C 
ATOM      3  C   UNL     1      -3.825  -2.989  -4.723  0.00  0.00    +0.022 C 
ATOM      4  C   UNL     1      -3.072  -2.829  -6.045  0.00  0.00    +0.002 C 
ATOM      5  C   UNL     1      -2.785  -1.347  -6.292  0.00  0.00    +0.000 C 
ATOM      6  C   UNL     1      -4.105  -0.576  -6.361  0.00  0.00    +0.002 C 
ATOM      7  C   UNL     1      -4.858  -0.736  -5.038  0.00  0.00    +0.022 C 
ENDBRANCH   1   2
BRANCH   1   8
ATOM      8  C   UNL     1      -5.260  -2.061  -2.362  0.00  0.00    +0.138 C 
ATOM      9  S   UNL     1      -6.053  -2.362  -0.876  0.00  0.00    -0.018 S 
BRANCH   8  10
ATOM     10  N   UNL     1      -4.029  -1.512  -2.370  0.00  0.00    -0.297 N 
ATOM     11  H   UNL     1      -3.610  -1.272  -3.212  0.00  0.00    +0.154 HD
BRANCH  10  16
ATOM     12  C   UNL     1      -1.369  -1.456   0.167  0.00  0.00    -0.046 A 
ATOM     13  C   UNL     1      -2.024  -0.843   1.220  0.00  0.00    +0.004 A 
ATOM     14  C   UNL     1      -3.343  -0.452   1.083  0.00  0.00    +0.002 A 
ATOM     15  C   UNL     1      -4.011  -0.672  -0.106  0.00  0.00    +0.023 A 
ATOM     16  C   UNL     1      -3.356  -1.287  -1.165  0.00  0.00    +0.033 A 
ATOM     17  C   UNL     1      -2.029  -1.674  -1.026  0.00  0.00    +0.027 A 
BRANCH  12  19
ATOM     18  C   UNL     1       0.988  -0.732  -0.102  0.00  0.00    +0.009 C 
ATOM     19  C   UNL     1       0.069  -1.880   0.321  0.00  0.00    +0.032 C 
ENDBRANCH  12  19
ENDBRANCH  10  16
ENDBRANCH   8  10
ENDBRANCH   1   8
BRANCH   1  20
ATOM     20  C   UNL     1      -7.246  -2.864  -3.523  0.00  0.00    +0.144 C 
BRANCH  20  21
ATOM     21  C   UNL     1      -8.195  -1.698  -3.631  0.00  0.00    -0.005 A 
ATOM     22  C   UNL     1      -8.865  -1.117  -2.623  0.00  0.00    +0.091 A 
ATOM     23  N   UNL     1      -9.630  -0.090  -3.103  0.00  0.00    -0.349 N 
ATOM     24  C   UNL     1      -9.468   0.018  -4.466  0.00  0.00    +0.049 A 
ATOM     25  C   UNL     1      -8.556  -0.980  -4.856  0.00  0.00    +0.005 A 
ATOM     26  C   UNL     1      -8.193  -1.107  -6.198  0.00  0.00    +0.010 A 
ATOM     27  C   UNL     1      -8.723  -0.256  -7.127  0.00  0.00    +0.001 A 
ATOM     28  C   UNL     1      -9.619   0.734  -6.747  0.00  0.00    +0.002 A 
ATOM     29  C   UNL     1      -9.998   0.870  -5.429  0.00  0.00    +0.026 A 
ATOM     30  C   UNL     1     -10.494   0.768  -2.288  0.00  0.00    +0.149 C 
ENDBRANCH  20  21
ENDBRANCH   1  20
TORSDOF 7
