REMARK  Name = ZINC13134797
REMARK  4 active torsions:
REMARK  status: ('A' for Active; 'I' for Inactive)
REMARK    1  A    between atoms: C_13  and  N_17
REMARK    2  A    between atoms: C_18  and  C_20
REMARK    3  A    between atoms: C_20  and  S_21
REMARK    4  A    between atoms: S_21  and  C_22
REMARK                            x       y       z     vdW  Elec       q    Type
REMARK                         _______ _______ _______ _____ _____    ______ ____
ROOT
ATOM      1  C   UNL     1      -2.877   1.912  -3.072  0.00  0.00    +0.001 A 
ATOM      2  C   UNL     1      -2.892   3.295  -3.081  0.00  0.00    +0.001 A 
ATOM      3  C   UNL     1      -1.876   4.012  -2.474  0.00  0.00    +0.012 A 
ATOM      4  C   UNL     1      -0.820   3.339  -1.866  0.00  0.00    +0.033 A 
ATOM      5  C   UNL     1      -0.801   1.933  -1.862  0.00  0.00    +0.033 A 
ATOM      6  C   UNL     1      -1.838   1.227  -2.466  0.00  0.00    +0.012 A 
ATOM      7  C   UNL     1       0.313   1.210  -1.213  0.00  0.00    +0.195 C 
ATOM      8  O   UNL     1       0.327  -0.005  -1.204  0.00  0.00    -0.287 OA
ATOM      9  C   UNL     1       1.412   1.968  -0.580  0.00  0.00    +0.035 A 
ATOM     10  C   UNL     1       2.467   1.297   0.028  0.00  0.00    +0.012 A 
ATOM     11  C   UNL     1       3.496   2.011   0.621  0.00  0.00    +0.003 A 
ATOM     12  C   UNL     1       3.487   3.390   0.615  0.00  0.00    +0.024 A 
ATOM     13  C   UNL     1       2.440   4.085   0.012  0.00  0.00    +0.045 A 
ATOM     14  C   UNL     1       1.394   3.376  -0.590  0.00  0.00    +0.054 A 
ATOM     15  C   UNL     1       0.280   4.096  -1.232  0.00  0.00    +0.196 C 
ATOM     16  O   UNL     1       0.266   5.311  -1.241  0.00  0.00    -0.287 OA
ENDROOT
BRANCH  13  17
ATOM     17  N   UNL     1       2.434   5.475   0.007  0.00  0.00    -0.284 N 
ATOM     18  C   UNL     1       3.595   6.154   0.101  0.00  0.00    +0.228 C 
ATOM     19  O   UNL     1       4.650   5.556   0.088  0.00  0.00    -0.275 OA
ATOM     20  H   UNL     1       1.595   5.957  -0.063  0.00  0.00    +0.155 HD
BRANCH  18  21
ATOM     21  C   UNL     1       3.582   7.656   0.223  0.00  0.00    +0.173 C 
BRANCH  21  22
ATOM     22  S   UNL     1       5.282   8.268   0.329  0.00  0.00    -0.077 S 
BRANCH  22  23
ATOM     23  C   UNL     1       4.978   9.998   0.459  0.00  0.00    +0.192 A 
ATOM     24  N   UNL     1       3.803  10.588   0.468  0.00  0.00    -0.122 NA
ATOM     25  N   UNL     1       3.953  11.862   0.582  0.00  0.00    -0.134 NA
ATOM     26  C   UNL     1       5.218  12.154   0.656  0.00  0.00    +0.134 A 
ATOM     27  N   UNL     1       5.913  10.980   0.575  0.00  0.00    -0.306 N 
ATOM     28  C   UNL     1       7.367  10.826   0.596  0.00  0.00    +0.125 C 
ATOM     29  C   UNL     1       7.987  11.978   1.392  0.00  0.00    +0.022 C 
ATOM     30  C   UNL     1       8.276  13.153   0.460  0.00  0.00    +0.002 C 
ATOM     31  C   UNL     1       6.987  13.673  -0.168  0.00  0.00    +0.008 C 
ATOM     32  C   UNL     1       5.832  13.520   0.819  0.00  0.00    +0.076 C 
ENDBRANCH  22  23
ENDBRANCH  21  22
ENDBRANCH  18  21
ENDBRANCH  13  17
TORSDOF 4
