REMARK  Name = ZINC19664951
REMARK  9 active torsions:
REMARK  status: ('A' for Active; 'I' for Inactive)
REMARK    1  A    between atoms: C_1  and  C_2
REMARK    2  A    between atoms: N_10  and  C_14
REMARK    3  A    between atoms: C_14  and  C_15
REMARK    4  A    between atoms: N_17  and  C_18
REMARK    5  A    between atoms: C_18  and  C_19
REMARK    6  A    between atoms: C_19  and  C_21
REMARK    7  A    between atoms: C_19  and  N_28
REMARK    8  A    between atoms: N_28  and  C_29
REMARK    9  A    between atoms: N_28  and  C_30
REMARK                            x       y       z     vdW  Elec       q    Type
REMARK                         _______ _______ _______ _____ _____    ______ ____
ROOT
ATOM      1  C   UNL     1      -2.698  -0.933  -0.721  0.00  0.00    +0.231 C 
ATOM      2  O   UNL     1      -1.868  -0.429  -1.447  0.00  0.00    -0.274 OA
ATOM      3  N   UNL     1      -3.618  -1.776  -1.232  0.00  0.00    -0.315 N 
ATOM      4  H   UNL     1      -4.371  -2.233  -0.573  0.00  0.00    +0.149 HD
ENDROOT
BRANCH   1   5
ATOM      5  C   UNL     1      -2.702  -0.616   0.752  0.00  0.00    +0.213 C 
BRANCH   5  15
ATOM      6  C   UNL     1       2.871   4.910   2.302  0.00  0.00    +0.007 C 
ATOM      7  C   UNL     1       1.485   4.389   1.919  0.00  0.00    -0.014 C 
ATOM      8  C   UNL     1       1.592   3.540   0.650  0.00  0.00    +0.006 C 
ATOM      9  C   UNL     1       0.203   3.029   0.260  0.00  0.00    +0.035 C 
ATOM     10  C   UNL     1      -0.374   2.197   1.401  0.00  0.00    +0.113 C 
ATOM     11  C   UNL     1      -0.464   3.023   2.679  0.00  0.00    +0.035 C 
ATOM     12  C   UNL     1       0.928   3.534   3.059  0.00  0.00    +0.006 C 
ATOM     13  C   UNL     1      -1.736   1.660   1.024  0.00  0.00    +0.247 C 
ATOM     14  O   UNL     1      -2.727   2.300   0.747  0.00  0.00    -0.273 OA
ATOM     15  N   UNL     1      -1.614   0.316   1.054  0.00  0.00    -0.215 N 
ATOM     16  C   UNL     1      -0.374  -0.059   1.395  0.00  0.00    +0.310 C 
ATOM     17  O   UNL     1      -0.021  -1.218   1.490  0.00  0.00    -0.252 OA
ATOM     18  N   UNL     1       0.436   0.993   1.621  0.00  0.00    -0.285 N 
ATOM     19  H   UNL     1       1.493   1.086   1.913  0.00  0.00    +0.151 HD
ENDBRANCH   5  15
ENDBRANCH   1   5
BRANCH   3  20
ATOM     20  C   UNL     1      -3.614  -2.083  -2.664  0.00  0.00    +0.093 C 
BRANCH  20  21
ATOM     21  C   UNL     1      -4.666  -3.155  -2.958  0.00  0.00    -0.021 C 
BRANCH  21  22
ATOM     22  C   UNL     1      -4.299  -4.429  -2.241  0.00  0.00    -0.058 A 
ATOM     23  C   UNL     1      -4.920  -4.755  -1.050  0.00  0.00    +0.002 A 
ATOM     24  C   UNL     1      -4.585  -5.924  -0.392  0.00  0.00    +0.002 A 
ATOM     25  C   UNL     1      -3.628  -6.767  -0.925  0.00  0.00    +0.020 A 
ATOM     26  C   UNL     1      -3.006  -6.441  -2.117  0.00  0.00    +0.041 A 
ATOM     27  C   UNL     1      -3.346  -5.274  -2.777  0.00  0.00    +0.022 A 
ATOM     28 CL   UNL     1      -1.804  -7.500  -2.787  0.00  0.00    -0.084 Cl
ENDBRANCH  21  22
BRANCH  21  29
ATOM     29  N   UNL     1      -4.719  -3.405  -4.405  0.00  0.00    +0.382 N 
ATOM     30  C   UNL     1      -5.755  -4.393  -4.730  0.00  0.00    -0.096 C 
ATOM     31  C   UNL     1      -4.930  -2.156  -5.147  0.00  0.00    -0.096 C 
ATOM     32  H   UNL     1      -3.747  -3.821  -4.712  0.00  0.00    -0.082 HD
ENDBRANCH  21  29
ENDBRANCH  20  21
ENDBRANCH   3  20
TORSDOF 6
