REMARK  Name = ZINC08781616
REMARK  5 active torsions:
REMARK  status: ('A' for Active; 'I' for Inactive)
REMARK    1  A    between atoms: C_3  and  O_9
REMARK    2  A    between atoms: O_9  and  C_10
REMARK    3  A    between atoms: C_10  and  C_11
REMARK    4  A    between atoms: N_12  and  N_13
REMARK    5  A    between atoms: C_17  and  C_20
REMARK                            x       y       z     vdW  Elec       q    Type
REMARK                         _______ _______ _______ _____ _____    ______ ____
ROOT
ATOM      1  C   UNL     1       4.839   4.127  -0.023  0.00  0.00    +0.121 C 
ATOM      2  N   UNL     1       4.992   5.412  -0.018  0.00  0.00    -0.294 N 
ATOM      3  N   UNL     1       5.949   3.298  -0.038  0.00  0.00    -0.344 N 
ATOM      4  H   UNL     1       5.835   2.335  -0.042  0.00  0.00    +0.143 HD
ATOM      5  H   UNL     1       6.841   3.681  -0.045  0.00  0.00    +0.143 HD
ATOM      6  H   UNL     1       4.215   5.992  -0.008  0.00  0.00    +0.186 HD
ENDROOT
BRANCH   2   7
ATOM      7  N   UNL     1       6.279   5.964  -0.028  0.00  0.00    -0.241 N 
ATOM      8  C   UNL     1       6.442   7.343  -0.023  0.00  0.00    +0.155 A 
ATOM      9  C   UNL     1       7.725   7.887  -0.038  0.00  0.00    +0.083 A 
ATOM     10  C   UNL     1       7.873   9.262  -0.033  0.00  0.00    +0.037 A 
ATOM     11  C   UNL     1       6.729  10.051  -0.012  0.00  0.00    +0.074 A 
ATOM     12  C   UNL     1       5.489   9.446   0.003  0.00  0.00    +0.125 A 
ATOM     13  N   UNL     1       5.377   8.131  -0.009  0.00  0.00    -0.237 NA
ATOM     14 CL   UNL     1       9.119   6.852  -0.064  0.00  0.00    -0.080 Cl
ATOM     15  H   UNL     1       7.056   5.384  -0.039  0.00  0.00    +0.174 HD
BRANCH  11  16
ATOM     16  C   UNL     1       6.842  11.554  -0.005  0.00  0.00    +0.419 C 
ATOM     17  F   UNL     1       6.859  12.027  -1.321  0.00  0.00    -0.166 F 
ATOM     18  F   UNL     1       5.748  12.101   0.674  0.00  0.00    -0.166 F 
ATOM     19  F   UNL     1       8.025  11.930   0.640  0.00  0.00    -0.166 F 
ENDBRANCH  11  16
ENDBRANCH   2   7
BRANCH   1  20
ATOM     20  C   UNL     1       3.454   3.533  -0.013  0.00  0.00    +0.299 C 
BRANCH  20  21
ATOM     21  O   UNL     1       3.548   2.107  -0.021  0.00  0.00    -0.483 OA
BRANCH  21  24
ATOM     22  C   UNL     1      -0.017   1.379   0.010  0.00  0.00    +0.023 A 
ATOM     23  C   UNL     1       1.170   2.088   0.002  0.00  0.00    +0.048 A 
ATOM     24  C   UNL     1       2.380   1.411  -0.013  0.00  0.00    +0.139 A 
ATOM     25  C   UNL     1       2.398   0.023  -0.021  0.00  0.00    +0.084 A 
ATOM     26  C   UNL     1       1.209  -0.682  -0.013  0.00  0.00    +0.043 A 
ATOM     27  C   UNL     1       0.002  -0.004   0.002  0.00  0.00    +0.043 A 
ATOM     28 CL   UNL     1      -1.490  -0.891   0.012  0.00  0.00    -0.083 Cl
ATOM     29 CL   UNL     1       3.911  -0.827  -0.040  0.00  0.00    -0.080 Cl
ENDBRANCH  21  24
ENDBRANCH  20  21
ENDBRANCH   1  20
TORSDOF 5
