REMARK  Name = ZINC48961434
REMARK  3 active torsions:
REMARK  status: ('A' for Active; 'I' for Inactive)
REMARK    1  A    between atoms: C_4  and  C_7
REMARK    2  A    between atoms: N_9  and  C_13
REMARK    3  A    between atoms: C_13  and  N_14
REMARK                            x       y       z     vdW  Elec       q    Type
REMARK                         _______ _______ _______ _____ _____    ______ ____
ROOT
ATOM      1  C   UNL     1       3.851  -0.577  -0.155  0.00  0.00    +0.154 A 
ATOM      2  C   UNL     1       3.948  -1.913  -0.229  0.00  0.00    +0.134 A 
ATOM      3  N   UNL     1       5.283  -2.242  -0.072  0.00  0.00    -0.325 N 
ATOM      4  C   UNL     1       5.967  -1.093   0.093  0.00  0.00    +0.247 A 
ATOM      5  S   UNL     1       7.658  -0.956   0.328  0.00  0.00    +0.009 S 
ATOM      6  O   UNL     1       5.095  -0.073   0.038  0.00  0.00    -0.431 OA
ENDROOT
BRANCH   1  10
ATOM      7  C   UNL     1       0.271   1.685  -0.489  0.00  0.00    +0.000 A 
ATOM      8  C   UNL     1       1.478   2.331  -0.291  0.00  0.00    +0.001 A 
ATOM      9  C   UNL     1       2.644   1.603  -0.182  0.00  0.00    +0.011 A 
ATOM     10  C   UNL     1       2.604   0.210  -0.271  0.00  0.00    +0.019 A 
ATOM     11  C   UNL     1       1.383  -0.436  -0.471  0.00  0.00    +0.011 A 
ATOM     12  C   UNL     1       0.224   0.305  -0.579  0.00  0.00    +0.001 A 
ENDBRANCH   1  10
BRANCH   3  13
ATOM     13  C   UNL     1       5.849  -3.593  -0.083  0.00  0.00    +0.051 C 
BRANCH  13  14
ATOM     14  N   UNL     1       5.940  -4.074  -1.468  0.00  0.00    +0.394 N 
ATOM     15  C   UNL     1       6.987  -3.322  -2.199  0.00  0.00    -0.073 C 
ATOM     16  C   UNL     1       8.019  -4.399  -2.658  0.00  0.00    -0.029 C 
ATOM     17  C   UNL     1       8.731  -4.827  -1.337  0.00  0.00    -0.000 C 
ATOM     18  C   UNL     1       7.628  -5.552  -0.530  0.00  0.00    -0.015 C 
ATOM     19  C   UNL     1       6.356  -5.511  -1.485  0.00  0.00    -0.066 C 
ATOM     20  C   UNL     1       7.045  -5.610  -2.891  0.00  0.00    -0.014 C 
ATOM     21  H   UNL     1       5.050  -3.967  -1.931  0.00  0.00    -0.079 HD
ENDBRANCH  13  14
ENDBRANCH   3  13
TORSDOF 3
