REMARK  Name = ZINC45382767
REMARK  8 active torsions:
REMARK  status: ('A' for Active; 'I' for Inactive)
REMARK    1  A    between atoms: C_1  and  C_2
REMARK    2  A    between atoms: C_5  and  C_25
REMARK    3  A    between atoms: N_12  and  C_13
REMARK    4  A    between atoms: C_13  and  C_15
REMARK    5  A    between atoms: C_13  and  C_16
REMARK    6  A    between atoms: C_16  and  C_17
REMARK    7  A    between atoms: C_17  and  C_18
REMARK    8  A    between atoms: C_21  and  O_24
REMARK                            x       y       z     vdW  Elec       q    Type
REMARK                         _______ _______ _______ _____ _____    ______ ____
ROOT
ATOM      1  C   UNL     1       3.489  -2.707   0.830  0.00  0.00    +0.009 C 
ATOM      2  C   UNL     1       2.797  -1.952  -0.306  0.00  0.00    +0.004 C 
ATOM      3  C   UNL     1       1.319  -2.347  -0.357  0.00  0.00    +0.009 C 
ATOM      4  C   UNL     1       0.657  -2.024   0.985  0.00  0.00    +0.004 C 
ATOM      5  C   UNL     1       0.746  -0.516   1.244  0.00  0.00    +0.112 C 
ATOM      6  N   UNL     1       2.153  -0.103   1.150  0.00  0.00    -0.285 N 
ATOM      7  C   UNL     1       2.911  -0.444  -0.062  0.00  0.00    +0.112 C 
ATOM      8  C   UNL     1       2.738   0.577   2.157  0.00  0.00    +0.302 C 
ATOM      9  O   UNL     1       3.926   0.830   2.110  0.00  0.00    -0.253 OA
ATOM     10  N   UNL     1       2.005   0.975   3.216  0.00  0.00    -0.297 N 
ATOM     11  C   UNL     1      -0.812  -2.450   0.945  0.00  0.00    +0.009 C 
ATOM     12  H   UNL     1       1.075   0.711   3.288  0.00  0.00    +0.151 HD
ENDROOT
BRANCH  10  13
ATOM     13  C   UNL     1       2.614   1.806   4.256  0.00  0.00    +0.072 C 
ATOM     14  C   UNL     1       2.544   3.277   3.841  0.00  0.00    +0.028 C 
BRANCH  13  15
ATOM     15  C   UNL     1       1.858   1.612   5.572  0.00  0.00    +0.026 C 
BRANCH  15  16
ATOM     16  C   UNL     1       2.033   0.170   6.052  0.00  0.00    +0.037 C 
BRANCH  16  17
ATOM     17  C   UNL     1       1.288  -0.022   7.348  0.00  0.00    -0.047 A 
ATOM     18  C   UNL     1       1.925   0.218   8.552  0.00  0.00    +0.007 A 
ATOM     19  C   UNL     1       1.244   0.042   9.742  0.00  0.00    +0.045 A 
ATOM     20  C   UNL     1      -0.079  -0.374   9.727  0.00  0.00    +0.117 A 
ATOM     21  C   UNL     1      -0.715  -0.614   8.518  0.00  0.00    +0.045 A 
ATOM     22  C   UNL     1      -0.032  -0.432   7.332  0.00  0.00    +0.007 A 
BRANCH  20  23
ATOM     23  O   UNL     1      -0.750  -0.548  10.896  0.00  0.00    -0.507 OA
ATOM     24  H   UNL     1      -1.210   0.244  11.207  0.00  0.00    +0.292 HD
ENDBRANCH  20  23
ENDBRANCH  16  17
ENDBRANCH  15  16
ENDBRANCH  13  15
ENDBRANCH  10  13
TORSDOF 5
