REMARK  Name = ZINC39911545
REMARK  16 active torsions:
REMARK  status: ('A' for Active; 'I' for Inactive)
REMARK    1  A    between atoms: C_1  and  C_2
REMARK    2  A    between atoms: C_2  and  C_3
REMARK    3  A    between atoms: C_3  and  C_4
REMARK    4  A    between atoms: C_4  and  O_5
REMARK    5  A    between atoms: O_5  and  C_6
REMARK    6  A    between atoms: C_9  and  C_14
REMARK    7  A    between atoms: C_11  and  O_12
REMARK    8  A    between atoms: O_12  and  C_13
REMARK    9  A    between atoms: C_17  and  C_29
REMARK   10  A    between atoms: N_24  and  C_25
REMARK   11  A    between atoms: C_25  and  C_26
REMARK   12  A    between atoms: C_26  and  C_27
REMARK   13  A    between atoms: C_27  and  O_28
REMARK   14  A    between atoms: C_31  and  C_37
REMARK   15  A    between atoms: C_33  and  C_36
REMARK   16  A    between atoms: C_34  and  O_35
REMARK                            x       y       z     vdW  Elec       q    Type
REMARK                         _______ _______ _______ _____ _____    ______ ____
ROOT
ATOM      1  C   UNL     1       1.064  -7.967   3.318  0.00  0.00    +0.141 C 
ATOM      2  C   UNL     1      -0.282  -8.304   3.898  0.00  0.00    +0.035 A 
ATOM      3  C   UNL     1      -1.195  -8.123   4.942  0.00  0.00    +0.102 A 
ATOM      4  N   UNL     1      -2.259  -8.851   4.667  0.00  0.00    -0.173 NA
ATOM      5  N   UNL     1      -2.109  -9.474   3.552  0.00  0.00    -0.272 N 
ATOM      6  H   UNL     1      -2.764 -10.066   3.152  0.00  0.00    +0.189 HD
ATOM      7  C   UNL     1      -0.889  -9.176   3.014  0.00  0.00    +0.126 A 
ATOM      8  C   UNL     1       0.023  -9.409   1.889  0.00  0.00    +0.265 C 
ATOM      9  O   UNL     1      -0.217 -10.130   0.939  0.00  0.00    -0.268 OA
ATOM     10  N   UNL     1       1.162  -8.711   2.055  0.00  0.00    -0.285 N 
ENDROOT
BRANCH   3  11
ATOM     11  C   UNL     1      -1.001  -7.269   6.141  0.00  0.00    +0.044 A 
ATOM     12  C   UNL     1       0.227  -6.654   6.370  0.00  0.00    +0.017 A 
ATOM     13  C   UNL     1       0.402  -5.860   7.485  0.00  0.00    -0.049 A 
ATOM     14  C   UNL     1      -0.638  -5.674   8.378  0.00  0.00    +0.010 A 
ATOM     15  C   UNL     1      -1.861  -6.281   8.161  0.00  0.00    -0.008 A 
ATOM     16  C   UNL     1      -2.052  -7.075   7.041  0.00  0.00    +0.129 A 
ATOM     17  C   UNL     1      -2.989  -6.073   9.139  0.00  0.00    +0.047 C 
ATOM     18  C   UNL     1       1.732  -5.195   7.732  0.00  0.00    +0.044 C 
BRANCH  16  19
ATOM     19  O   UNL     1      -3.256  -7.666   6.823  0.00  0.00    -0.506 OA
ATOM     20  H   UNL     1      -3.340  -8.544   7.220  0.00  0.00    +0.292 HD
ENDBRANCH  16  19
ENDBRANCH   3  11
BRANCH   1  24
ATOM     21  C   UNL     1       1.341  -3.764   2.579  0.00  0.00    +0.162 A 
ATOM     22  C   UNL     1       2.098  -4.345   3.584  0.00  0.00    +0.050 A 
ATOM     23  C   UNL     1       2.006  -5.704   3.820  0.00  0.00    +0.009 A 
ATOM     24  C   UNL     1       1.160  -6.486   3.056  0.00  0.00    -0.019 A 
ATOM     25  C   UNL     1       0.402  -5.912   2.052  0.00  0.00    +0.055 A 
ATOM     26  C   UNL     1       0.485  -4.550   1.814  0.00  0.00    +0.162 A 
BRANCH  26  27
ATOM     27  O   UNL     1      -0.264  -3.983   0.831  0.00  0.00    -0.491 OA
ATOM     28  C   UNL     1      -1.154  -4.843   0.116  0.00  0.00    +0.277 C 
ENDBRANCH  26  27
BRANCH  21  29
ATOM     29  O   UNL     1       1.430  -2.427   2.346  0.00  0.00    -0.488 OA
BRANCH  29  30
ATOM     30  C   UNL     1       2.329  -1.683   3.170  0.00  0.00    +0.229 C 
BRANCH  30  31
ATOM     31  C   UNL     1       2.293  -0.209   2.762  0.00  0.00    +0.041 C 
BRANCH  31  33
ATOM     32  C   UNL     1       3.220   2.062   3.237  0.00  0.00    +0.004 C 
ATOM     33  C   UNL     1       3.256   0.588   3.645  0.00  0.00    -0.000 C 
ENDBRANCH  31  33
ENDBRANCH  30  31
ENDBRANCH  29  30
ENDBRANCH  21  29
ENDBRANCH   1  24
BRANCH  10  34
ATOM     34  C   UNL     1       2.303  -8.695   1.136  0.00  0.00    +0.111 C 
BRANCH  34  35
ATOM     35  C   UNL     1       3.282  -9.806   1.520  0.00  0.00    +0.047 C 
BRANCH  35  36
ATOM     36  C   UNL     1       4.474  -9.789   0.560  0.00  0.00    +0.157 C 
BRANCH  36  37
ATOM     37  O   UNL     1       5.388 -10.827   0.918  0.00  0.00    -0.395 OA
ATOM     38  H   UNL     1       6.170 -10.876   0.350  0.00  0.00    +0.209 HD
ENDBRANCH  36  37
ENDBRANCH  35  36
ENDBRANCH  34  35
ENDBRANCH  10  34
TORSDOF 12
