REMARK  Name = ZINC39362302
REMARK  11 active torsions:
REMARK  status: ('A' for Active; 'I' for Inactive)
REMARK    1  A    between atoms: C_1  and  C_2
REMARK    2  A    between atoms: C_4  and  S_8
REMARK    3  A    between atoms: S_8  and  C_9
REMARK    4  A    between atoms: C_9  and  C_10
REMARK    5  A    between atoms: C_10  and  N_11
REMARK    6  A    between atoms: N_11  and  C_12
REMARK    7  A    between atoms: C_12  and  C_13
REMARK    8  A    between atoms: C_14  and  C_25
REMARK    9  A    between atoms: N_16  and  C_18
REMARK   10  A    between atoms: C_28  and  O_31
REMARK   11  A    between atoms: O_31  and  C_32
REMARK                            x       y       z     vdW  Elec       q    Type
REMARK                         _______ _______ _______ _____ _____    ______ ____
ROOT
ATOM      1  C   UNL     1      -5.794   4.792  -8.862  0.00  0.00    -0.045 C 
ATOM      2  C   UNL     1      -5.922   4.009  -9.930  0.00  0.00    +0.051 C 
ATOM      3  N   UNL     1      -5.742   4.721 -11.108  0.00  0.00    -0.263 N 
ATOM      4  N   UNL     1      -5.475   6.068 -10.827  0.00  0.00    -0.246 N 
ATOM      5  C   UNL     1      -5.500   6.190  -9.360  0.00  0.00    +0.158 C 
ATOM      6  H   UNL     1      -5.793   4.340 -11.999  0.00  0.00    +0.170 HD
ENDROOT
BRANCH   4   7
ATOM      7  C   UNL     1      -5.239   7.089 -11.752  0.00  0.00    +0.083 A 
ATOM      8  C   UNL     1      -6.004   8.247 -11.721  0.00  0.00    +0.027 A 
ATOM      9  C   UNL     1      -5.768   9.255 -12.636  0.00  0.00    +0.002 A 
ATOM     10  C   UNL     1      -4.771   9.112 -13.583  0.00  0.00    +0.003 A 
ATOM     11  C   UNL     1      -4.006   7.960 -13.618  0.00  0.00    +0.040 A 
ATOM     12  C   UNL     1      -4.232   6.950 -12.702  0.00  0.00    +0.146 A 
ATOM     13  F   UNL     1      -3.481   5.828 -12.732  0.00  0.00    -0.203 F 
ENDBRANCH   4   7
BRANCH   2  14
ATOM     14  C   UNL     1      -6.220   2.560  -9.870  0.00  0.00    -0.003 A 
ATOM     15  C   UNL     1      -5.453   1.657 -10.607  0.00  0.00    +0.013 A 
ATOM     16  C   UNL     1      -5.733   0.308 -10.548  0.00  0.00    +0.046 A 
ATOM     17  C   UNL     1      -6.777  -0.152  -9.756  0.00  0.00    +0.120 A 
ATOM     18  C   UNL     1      -7.542   0.744  -9.021  0.00  0.00    +0.046 A 
ATOM     19  C   UNL     1      -7.264   2.093  -9.070  0.00  0.00    +0.013 A 
BRANCH  17  20
ATOM     20  O   UNL     1      -7.050  -1.482  -9.700  0.00  0.00    -0.495 OA
ATOM     21  C   UNL     1      -8.137  -1.886  -8.866  0.00  0.00    +0.277 C 
ENDBRANCH  17  20
ENDBRANCH   2  14
BRANCH   1  22
ATOM     22  C   UNL     1      -5.923   4.367  -7.423  0.00  0.00    -0.048 C 
BRANCH  22  23
ATOM     23  N   UNL     1      -4.592   4.064  -6.880  0.00  0.00    +0.382 N 
ATOM     24  H   UNL     1      -4.011   4.886  -6.936  0.00  0.00    -0.085 HD
ATOM     25  H   UNL     1      -4.173   3.318  -7.415  0.00  0.00    -0.085 HD
BRANCH  23  26
ATOM     26  C   UNL     1      -4.718   3.649  -5.476  0.00  0.00    -0.071 C 
BRANCH  26  27
ATOM     27  C   UNL     1      -3.332   3.333  -4.911  0.00  0.00    +0.058 C 
BRANCH  27  28
ATOM     28  S   UNL     1      -3.488   2.821  -3.178  0.00  0.00    -0.086 S 
BRANCH  28  32
ATOM     29  C   UNL     1       0.665   1.497  -0.246  0.00  0.00    +0.087 C 
ATOM     30  C   UNL     1      -0.147   1.944  -1.434  0.00  0.00    +0.123 A 
ATOM     31  N   UNL     1      -1.448   2.087  -1.464  0.00  0.00    -0.207 NA
ATOM     32  C   UNL     1      -1.829   2.497  -2.679  0.00  0.00    +0.209 A 
ATOM     33  H   UNL     1       1.270   2.260  -2.916  0.00  0.00    +0.190 HD
ATOM     34  N   UNL     1      -0.765   2.618  -3.437  0.00  0.00    -0.146 NA
ATOM     35  N   UNL     1       0.340   2.268  -2.644  0.00  0.00    -0.262 N 
ENDBRANCH  28  32
ENDBRANCH  27  28
ENDBRANCH  26  27
ENDBRANCH  23  26
ENDBRANCH  22  23
ENDBRANCH   1  22
TORSDOF 9
