REMARK  Name = ZINC36614397
REMARK  7 active torsions:
REMARK  status: ('A' for Active; 'I' for Inactive)
REMARK    1  A    between atoms: C_1  and  C_2
REMARK    2  A    between atoms: C_2  and  C_3
REMARK    3  A    between atoms: C_5  and  C_10
REMARK    4  A    between atoms: C_8  and  O_9
REMARK    5  A    between atoms: C_18  and  O_30
REMARK    6  A    between atoms: N_21  and  C_22
REMARK    7  A    between atoms: C_22  and  C_23
REMARK                            x       y       z     vdW  Elec       q    Type
REMARK                         _______ _______ _______ _____ _____    ______ ____
ROOT
ATOM      1  C   UNL     1      -3.932  -1.909  -2.401  0.00  0.00    -0.031 C 
ATOM      2  C   UNL     1      -3.761  -3.423  -2.528  0.00  0.00    +0.011 C 
ATOM      3  C   UNL     1      -2.277  -3.789  -2.514  0.00  0.00    +0.005 C 
ATOM      4  C   UNL     1      -2.132  -5.307  -2.654  0.00  0.00    +0.000 C 
ATOM      5  C   UNL     1      -2.846  -6.003  -1.494  0.00  0.00    +0.003 C 
ATOM      6  C   UNL     1      -4.329  -5.624  -1.500  0.00  0.00    +0.035 C 
ATOM      7  C   UNL     1      -4.459  -4.108  -1.350  0.00  0.00    +0.066 C 
ATOM      8  C   UNL     1      -5.935  -3.706  -1.344  0.00  0.00    +0.016 C 
ATOM      9  C   UNL     1      -6.036  -2.180  -1.265  0.00  0.00    -0.075 C 
ATOM     10  N   UNL     1      -5.363  -1.576  -2.421  0.00  0.00    +0.387 N 
ATOM     11  H   UNL     1      -5.777  -1.928  -3.271  0.00  0.00    -0.080 HD
ENDROOT
BRANCH   1  14
ATOM     12  C   UNL     1      -1.429  -1.248   0.346  0.00  0.00    -0.006 A 
ATOM     13  C   UNL     1      -1.988  -1.676  -0.843  0.00  0.00    +0.009 A 
ATOM     14  C   UNL     1      -3.325  -1.442  -1.103  0.00  0.00    -0.060 A 
ATOM     15  C   UNL     1      -4.107  -0.780  -0.174  0.00  0.00    +0.005 A 
ATOM     16  C   UNL     1      -3.553  -0.351   1.016  0.00  0.00    +0.046 A 
ATOM     17  C   UNL     1      -2.212  -0.589   1.281  0.00  0.00    +0.120 A 
BRANCH  12  19
ATOM     18  C   UNL     1       0.833  -0.231   0.348  0.00  0.00    +0.009 C 
ATOM     19  C   UNL     1       0.029  -1.502   0.628  0.00  0.00    +0.035 C 
ENDBRANCH  12  19
BRANCH  17  20
ATOM     20  O   UNL     1      -1.666  -0.172   2.454  0.00  0.00    -0.506 OA
ATOM     21  H   UNL     1      -1.301   0.723   2.422  0.00  0.00    +0.292 HD
ENDBRANCH  17  20
ENDBRANCH   1  14
BRANCH   7  22
ATOM     22  O   UNL     1      -3.846  -3.694  -0.127  0.00  0.00    -0.388 OA
ATOM     23  H   UNL     1      -4.239  -4.090   0.663  0.00  0.00    +0.210 HD
ENDBRANCH   7  22
BRANCH  10  24
ATOM     24  C   UNL     1      -5.524  -0.117  -2.372  0.00  0.00    -0.042 C 
BRANCH  24  25
ATOM     25  C   UNL     1      -6.991   0.226  -2.358  0.00  0.00    -0.064 A 
ATOM     26  C   UNL     1      -7.667   0.418  -3.548  0.00  0.00    +0.003 A 
ATOM     27  C   UNL     1      -9.013   0.733  -3.537  0.00  0.00    +0.020 A 
ATOM     28  C   UNL     1      -9.684   0.856  -2.333  0.00  0.00    +0.041 A 
ATOM     29  C   UNL     1      -9.007   0.663  -1.141  0.00  0.00    +0.020 A 
ATOM     30  C   UNL     1      -7.662   0.343  -1.155  0.00  0.00    +0.003 A 
ATOM     31 CL   UNL     1     -11.374   1.251  -2.317  0.00  0.00    -0.084 Cl
ENDBRANCH  24  25
ENDBRANCH  10  24
TORSDOF 6
