REMARK  Name = ZINC33088177
REMARK  6 active torsions:
REMARK  status: ('A' for Active; 'I' for Inactive)
REMARK    1  A    between atoms: C_1  and  O_2
REMARK    2  A    between atoms: O_2  and  C_3
REMARK    3  A    between atoms: C_17  and  C_23
REMARK    4  A    between atoms: C_26  and  O_31
REMARK    5  A    between atoms: C_27  and  O_29
REMARK    6  A    between atoms: O_29  and  C_30
REMARK                            x       y       z     vdW  Elec       q    Type
REMARK                         _______ _______ _______ _____ _____    ______ ____
ROOT
ATOM      1  C   UNL     1      -2.978  -6.502   0.018  0.00  0.00    +0.121 A 
ATOM      2  C   UNL     1      -1.587  -6.495   0.002  0.00  0.00    +0.048 A 
ATOM      3  C   UNL     1      -0.879  -5.333  -0.003  0.00  0.00    +0.032 A 
ATOM      4  C   UNL     1      -1.538  -4.082   0.008  0.00  0.00    +0.081 A 
ATOM      5  C   UNL     1      -2.951  -4.119   0.024  0.00  0.00    +0.044 A 
ATOM      6  C   UNL     1      -3.661  -5.294   0.029  0.00  0.00    +0.063 A 
ATOM      7  S   UNL     1      -3.374  -2.393   0.042  0.00  0.00    -0.048 S 
ATOM      8  C   UNL     1      -1.706  -1.753   0.017  0.00  0.00    +0.196 A 
ATOM      9  N   UNL     1      -0.985  -2.849   0.005  0.00  0.00    -0.221 NA
ATOM     10  N   UNL     1      -1.280  -0.429   0.016  0.00  0.00    -0.194 N 
ATOM     11  C   UNL     1       0.002  -0.004   0.002  0.00  0.00    +0.134 A 
ATOM     12  C   UNL     1      -0.017   1.366   0.010  0.00  0.00    +0.020 A 
ATOM     13  C   UNL     1      -1.342   1.776   0.030  0.00  0.00    +0.141 A 
ATOM     14  N   UNL     1      -2.104   0.708   0.030  0.00  0.00    -0.171 NA
ATOM     15  C   UNL     1       1.248   2.186   0.002  0.00  0.00    +0.063 C 
ATOM     16  C   UNL     1       2.352   1.378   0.690  0.00  0.00    +0.109 C 
ATOM     17  C   UNL     1       2.342  -0.056   0.244  0.00  0.00    +0.219 C 
ATOM     18  O   UNL     1       3.399  -0.636   0.114  0.00  0.00    -0.275 OA
ATOM     19  N   UNL     1       1.197  -0.722  -0.018  0.00  0.00    -0.270 N 
ATOM     20  H   UNL     1       1.188  -1.799  -0.242  0.00  0.00    +0.156 HD
ENDROOT
BRANCH  15  21
ATOM     21  C   UNL     1       1.649   2.487  -1.419  0.00  0.00    -0.036 A 
ATOM     22  C   UNL     1       1.927   1.450  -2.291  0.00  0.00    +0.008 A 
ATOM     23  C   UNL     1       2.290   1.721  -3.597  0.00  0.00    +0.049 A 
ATOM     24  C   UNL     1       2.388   3.033  -4.032  0.00  0.00    +0.158 A 
ATOM     25  C   UNL     1       2.114   4.076  -3.153  0.00  0.00    +0.162 A 
ATOM     26  C   UNL     1       1.745   3.798  -1.846  0.00  0.00    +0.053 A 
BRANCH  25  27
ATOM     27  O   UNL     1       2.208   5.365  -3.575  0.00  0.00    -0.491 OA
ATOM     28  C   UNL     1       1.912   6.385  -2.618  0.00  0.00    +0.277 C 
ENDBRANCH  25  27
BRANCH  24  29
ATOM     29  O   UNL     1       2.751   3.301  -5.315  0.00  0.00    -0.503 OA
ATOM     30  H   UNL     1       2.828   4.343  -5.659  0.00  0.00    +0.292 HD
ENDBRANCH  24  29
ENDBRANCH  15  21
BRANCH   1  32
ATOM     31  C   UNL     1      -2.885  -8.878   0.011  0.00  0.00    +0.277 C 
ATOM     32  O   UNL     1      -3.661  -7.678   0.023  0.00  0.00    -0.495 OA
ENDBRANCH   1  32
TORSDOF 4
