REMARK  Name = ZINC61881525
REMARK  7 active torsions:
REMARK  status: ('A' for Active; 'I' for Inactive)
REMARK    1  A    between atoms: C_1  and  C_2
REMARK    2  A    between atoms: C_2  and  N_3
REMARK    3  A    between atoms: C_7  and  C_9
REMARK    4  A    between atoms: C_9  and  N_10
REMARK    5  A    between atoms: N_10  and  S_11
REMARK    6  A    between atoms: S_11  and  C_14
REMARK    7  A    between atoms: C_18  and  N_21
REMARK                            x       y       z     vdW  Elec       q    Type
REMARK                         _______ _______ _______ _____ _____    ______ ____
ROOT
ATOM      1  S   UNL     1       4.467  -2.247   0.414  0.00  0.00    +0.060 S 
ATOM      2  O   UNL     1       4.930  -1.550   1.562  0.00  0.00    -0.153 OA
ATOM      3  O   UNL     1       4.224  -3.647   0.419  0.00  0.00    -0.153 OA
ENDROOT
BRANCH   1   4
ATOM      4  C   UNL     1       5.640  -1.945  -0.866  0.00  0.00    +0.122 A 
ATOM      5  C   UNL     1       6.155  -3.002  -1.594  0.00  0.00    +0.049 A 
ATOM      6  C   UNL     1       7.076  -2.769  -2.600  0.00  0.00    +0.045 A 
ATOM      7  C   UNL     1       7.484  -1.478  -2.880  0.00  0.00    +0.044 A 
ATOM      8  C   UNL     1       6.969  -0.415  -2.151  0.00  0.00    +0.042 A 
ATOM      9  C   UNL     1       6.040  -0.653  -1.144  0.00  0.00    +0.065 A 
ATOM     10 BR   UNL     1       5.329   0.792  -0.153  0.00  0.00    -0.046 Br
ATOM     11 CL   UNL     1       7.720  -4.099  -3.511  0.00  0.00    -0.083 Cl
BRANCH   8  12
ATOM     12  N   UNL     1       7.380   0.890  -2.431  0.00  0.00    -0.357 N 
ATOM     13  H   UNL     1       8.026   1.055  -3.136  0.00  0.00    +0.142 HD
ATOM     14  H   UNL     1       7.019   1.632  -1.921  0.00  0.00    +0.142 HD
ENDBRANCH   8  12
ENDBRANCH   1   4
BRANCH   1  15
ATOM     15  N   UNL     1       3.049  -1.522  -0.041  0.00  0.00    -0.191 NA
ATOM     16  H   UNL     1       2.693  -0.784   0.478  0.00  0.00    +0.148 HD
BRANCH  15  17
ATOM     17  C   UNL     1       2.332  -1.996  -1.227  0.00  0.00    +0.090 C 
BRANCH  17  22
ATOM     18  N   UNL     1       0.936   0.025  -1.101  0.00  0.00    +0.382 N 
ATOM     19  C   UNL     1       0.263   0.603  -2.284  0.00  0.00    -0.078 C 
ATOM     20  C   UNL     1       0.376  -0.489  -3.377  0.00  0.00    -0.020 C 
ATOM     21  C   UNL     1       0.198  -1.785  -2.543  0.00  0.00    -0.016 C 
ATOM     22  C   UNL     1       0.905  -1.444  -1.215  0.00  0.00    -0.053 C 
ATOM     23  H   UNL     1       1.894   0.343  -1.069  0.00  0.00    -0.081 HD
BRANCH  18  25
ATOM     24  C   UNL     1       0.377   1.955   0.299  0.00  0.00    -0.017 C 
ATOM     25  C   UNL     1       0.235   0.442   0.120  0.00  0.00    -0.082 C 
ENDBRANCH  18  25
ENDBRANCH  17  22
ENDBRANCH  15  17
ENDBRANCH   1  15
TORSDOF 6
