REMARK  Name = ZINC08649073
REMARK  6 active torsions:
REMARK  status: ('A' for Active; 'I' for Inactive)
REMARK    1  A    between atoms: C_4  and  S_7
REMARK    2  A    between atoms: S_7  and  N_10
REMARK    3  A    between atoms: N_10  and  C_11
REMARK    4  A    between atoms: N_10  and  C_27
REMARK    5  A    between atoms: C_11  and  C_12
REMARK    6  A    between atoms: C_27  and  C_28
REMARK                            x       y       z     vdW  Elec       q    Type
REMARK                         _______ _______ _______ _____ _____    ______ ____
ROOT
ATOM      1  C   UNL     1       3.954  -2.295   2.234  0.00  0.00    +0.150 C 
ENDROOT
BRANCH   1   2
ATOM      2  C   UNL     1       5.044  -3.332   2.141  0.00  0.00    +0.033 A 
ATOM      3  C   UNL     1       5.943  -3.460   3.150  0.00  0.00    +0.020 A 
ATOM      4  C   UNL     1       6.988  -4.476   3.030  0.00  0.00    +0.003 A 
ATOM      5  C   UNL     1       7.943  -4.652   4.039  0.00  0.00    +0.059 A 
ATOM      6  C   UNL     1       8.916  -5.619   3.899  0.00  0.00    +0.163 A 
ATOM      7  C   UNL     1       8.951  -6.423   2.756  0.00  0.00    +0.164 A 
ATOM      8  C   UNL     1       8.012  -6.254   1.753  0.00  0.00    +0.075 A 
ATOM      9  C   UNL     1       7.026  -5.285   1.878  0.00  0.00    +0.053 A 
ATOM     10  N   UNL     1       6.082  -5.103   0.888  0.00  0.00    -0.322 N 
ATOM     11  C   UNL     1       5.122  -4.169   1.010  0.00  0.00    +0.254 A 
ATOM     12  O   UNL     1       4.301  -4.040   0.118  0.00  0.00    -0.268 OA
ATOM     13  O   UNL     1       9.903  -7.385   2.615  0.00  0.00    -0.485 OA
ATOM     14  C   UNL     1      11.053  -7.283   3.460  0.00  0.00    +0.270 C 
ATOM     15  C   UNL     1      10.575  -7.005   4.892  0.00  0.00    +0.270 C 
ATOM     16  O   UNL     1       9.840  -5.776   4.888  0.00  0.00    -0.485 OA
ATOM     17  H   UNL     1       6.108  -5.660   0.094  0.00  0.00    +0.169 HD
ENDBRANCH   1   2
BRANCH   1  18
ATOM     18  N   UNL     1       4.378  -1.079   1.536  0.00  0.00    -0.170 NA
BRANCH  18  19
ATOM     19  S   UNL     1       3.934  -0.832  -0.041  0.00  0.00    +0.061 S 
ATOM     20  O   UNL     1       3.674  -2.114  -0.595  0.00  0.00    -0.153 OA
ATOM     21  O   UNL     1       4.890   0.060  -0.597  0.00  0.00    -0.153 OA
BRANCH  19  25
ATOM     22  C   UNL     1      -0.017   1.378   0.010  0.00  0.00    +0.000 A 
ATOM     23  C   UNL     1       1.171   2.086   0.002  0.00  0.00    +0.002 A 
ATOM     24  C   UNL     1       2.377   1.411  -0.013  0.00  0.00    +0.028 A 
ATOM     25  C   UNL     1       2.396   0.029  -0.020  0.00  0.00    +0.105 A 
ATOM     26  C   UNL     1       1.208  -0.679  -0.012  0.00  0.00    +0.028 A 
ATOM     27  C   UNL     1       0.002  -0.004   0.002  0.00  0.00    +0.002 A 
ENDBRANCH  19  25
ENDBRANCH  18  19
BRANCH  18  28
ATOM     28  C   UNL     1       5.193  -0.081   2.232  0.00  0.00    +0.141 C 
BRANCH  28  29
ATOM     29  C   UNL     1       4.282   0.864   3.019  0.00  0.00    +0.134 C 
ATOM     30  C   UNL     1       5.122   1.991   3.658  0.00  0.00    +0.035 C 
ATOM     31  C   UNL     1       4.447   2.158   5.046  0.00  0.00    +0.031 C 
ATOM     32  C   UNL     1       4.031   0.697   5.349  0.00  0.00    +0.160 C 
ATOM     33  O   UNL     1       3.639   0.147   4.079  0.00  0.00    -0.375 OA
ENDBRANCH  28  29
ENDBRANCH  18  28
ENDBRANCH   1  18
TORSDOF 6
