REMARK  Name = ZINC52094246
REMARK  3 active torsions:
REMARK  status: ('A' for Active; 'I' for Inactive)
REMARK    1  A    between atoms: C_5  and  C_6
REMARK    2  A    between atoms: C_6  and  C_8
REMARK    3  A    between atoms: C_6  and  N_21
REMARK                            x       y       z     vdW  Elec       q    Type
REMARK                         _______ _______ _______ _____ _____    ______ ____
ROOT
ATOM      1  C   UNL     1      -1.370  -1.487   1.407  0.00  0.00    -0.010 A 
ATOM      2  C   UNL     1      -0.793  -2.681   1.794  0.00  0.00    +0.034 A 
ATOM      3  C   UNL     1      -0.991  -3.158   3.080  0.00  0.00    +0.067 A 
ATOM      4  C   UNL     1      -1.772  -2.430   3.980  0.00  0.00    +0.068 A 
ATOM      5  C   UNL     1      -2.348  -1.233   3.583  0.00  0.00    +0.043 A 
ATOM      6  C   UNL     1      -2.141  -0.762   2.300  0.00  0.00    +0.025 A 
ATOM      7 BR   UNL     1      -2.918   0.875   1.761  0.00  0.00    -0.050 Br
ATOM      8  N   UNL     1      -1.788  -3.149   5.173  0.00  0.00    -0.306 N 
ATOM      9  H   UNL     1      -2.252  -2.891   5.985  0.00  0.00    +0.170 HD
ATOM     10  C   UNL     1      -1.050  -4.263   5.006  0.00  0.00    +0.325 A 
ATOM     11  O   UNL     1      -0.859  -5.111   5.859  0.00  0.00    -0.247 OA
ATOM     12  N   UNL     1      -0.556  -4.297   3.755  0.00  0.00    -0.306 N 
ATOM     13  H   UNL     1       0.007  -4.996   3.385  0.00  0.00    +0.170 HD
ENDROOT
BRANCH   1  14
ATOM     14  C   UNL     1      -1.156  -0.969   0.008  0.00  0.00    +0.120 C 
BRANCH  14  19
ATOM     15  C   UNL     1      -0.016   1.351   0.009  0.00  0.00    +0.014 A 
ATOM     16  C   UNL     1       1.184   2.038   0.002  0.00  0.00    +0.028 A 
ATOM     17  C   UNL     1       2.343   1.335  -0.013  0.00  0.00    +0.078 A 
ATOM     18  S   UNL     1       1.753  -0.350  -0.017  0.00  0.00    -0.080 S 
ATOM     19  C   UNL     1       0.002  -0.004   0.002  0.00  0.00    +0.012 A 
ATOM     20 CL   UNL     1       3.977   1.921  -0.026  0.00  0.00    -0.076 Cl
ENDBRANCH  14  19
BRANCH  14  21
ATOM     21  N   UNL     1      -0.861  -2.092  -0.891  0.00  0.00    -0.320 NA
ATOM     22  H   UNL     1      -0.777  -1.779  -1.847  0.00  0.00    +0.119 HD
ATOM     23  H   UNL     1      -0.030  -2.583  -0.597  0.00  0.00    +0.119 HD
ENDBRANCH  14  21
ENDBRANCH   1  14
TORSDOF 3
