REMARK  Name = ZINC20527300
REMARK  8 active torsions:
REMARK  status: ('A' for Active; 'I' for Inactive)
REMARK    1  A    between atoms: C_4  and  C_7
REMARK    2  A    between atoms: C_7  and  C_9
REMARK    3  A    between atoms: C_9  and  S_10
REMARK    4  A    between atoms: S_10  and  C_11
REMARK    5  A    between atoms: N_15  and  N_16
REMARK    6  A    between atoms: N_17  and  N_18
REMARK    7  A    between atoms: C_19  and  C_20
REMARK    8  A    between atoms: C_25  and  O_26
REMARK                            x       y       z     vdW  Elec       q    Type
REMARK                         _______ _______ _______ _____ _____    ______ ____
ROOT
ATOM      1  C   UNL     1       1.277   1.803  -0.000  0.00  0.00    +0.210 A 
ATOM      2  N   UNL     1       2.062   0.752  -0.014  0.00  0.00    -0.119 NA
ATOM      3  N   UNL     1       1.254  -0.392  -0.012  0.00  0.00    -0.109 NA
ATOM      4  C   UNL     1       0.002  -0.004   0.002  0.00  0.00    +0.254 A 
ATOM      5  N   UNL     1      -0.017   1.363   0.009  0.00  0.00    -0.211 N 
ATOM      6  N   UNL     1      -1.109  -0.835   0.009  0.00  0.00    -0.204 N 
ATOM      7  H   UNL     1      -2.120  -0.401   0.021  0.00  0.00    +0.177 HD
ENDROOT
BRANCH   5   8
ATOM      8  N   UNL     1      -1.132   2.151   0.019  0.00  0.00    -0.294 N 
ATOM      9  H   UNL     1      -2.131   1.690   0.027  0.00  0.00    +0.163 HD
ATOM     10  H   UNL     1      -1.032   3.246   0.020  0.00  0.00    +0.163 HD
ENDBRANCH   5   8
BRANCH   6  11
ATOM     11  N   UNL     1      -0.944  -2.226  -0.001  0.00  0.00    -0.187 NA
ATOM     12  C   UNL     1      -1.984  -3.003   0.006  0.00  0.00    +0.142 C 
BRANCH  12  13
ATOM     13  C   UNL     1      -1.810  -4.467  -0.004  0.00  0.00    +0.036 A 
ATOM     14  C   UNL     1      -2.926  -5.307   0.008  0.00  0.00    +0.013 A 
ATOM     15  C   UNL     1      -2.756  -6.676  -0.006  0.00  0.00    +0.001 A 
ATOM     16  C   UNL     1      -1.484  -7.221  -0.022  0.00  0.00    +0.004 A 
ATOM     17  C   UNL     1      -0.371  -6.400  -0.029  0.00  0.00    +0.046 A 
ATOM     18  C   UNL     1      -0.524  -5.024  -0.020  0.00  0.00    +0.125 A 
BRANCH  18  19
ATOM     19  O   UNL     1       0.569  -4.216  -0.027  0.00  0.00    -0.506 OA
ATOM     20  H   UNL     1       1.577  -4.656  -0.039  0.00  0.00    +0.292 HD
ENDBRANCH  18  19
ENDBRANCH  12  13
ENDBRANCH   6  11
BRANCH   1  21
ATOM     21  S   UNL     1       1.798   3.486   0.003  0.00  0.00    -0.076 S 
BRANCH  21  22
ATOM     22  C   UNL     1       3.609   3.384  -0.015  0.00  0.00    +0.157 C 
BRANCH  22  23
ATOM     23  C   UNL     1       4.191   4.775  -0.013  0.00  0.00    +0.173 C 
ATOM     24  O   UNL     1       3.456   5.739  -0.002  0.00  0.00    -0.291 OA
BRANCH  23  28
ATOM     25  C   UNL     1       8.398   5.315  -0.051  0.00  0.00    +0.000 A 
ATOM     26  C   UNL     1       7.562   6.418  -0.037  0.00  0.00    +0.001 A 
ATOM     27  C   UNL     1       6.194   6.251  -0.025  0.00  0.00    +0.011 A 
ATOM     28  C   UNL     1       5.650   4.962  -0.026  0.00  0.00    +0.018 A 
ATOM     29  C   UNL     1       6.501   3.852  -0.034  0.00  0.00    +0.011 A 
ATOM     30  C   UNL     1       7.868   4.036  -0.052  0.00  0.00    +0.001 A 
ENDBRANCH  23  28
ENDBRANCH  22  23
ENDBRANCH  21  22
ENDBRANCH   1  21
TORSDOF 8
