REMARK  Name = ZINC32124232
REMARK  11 active torsions:
REMARK  status: ('A' for Active; 'I' for Inactive)
REMARK    1  A    between atoms: C_1  and  O_2
REMARK    2  A    between atoms: O_2  and  C_3
REMARK    3  A    between atoms: C_6  and  C_9
REMARK    4  A    between atoms: N_22  and  C_23
REMARK    5  A    between atoms: C_23  and  C_25
REMARK    6  A    between atoms: C_23  and  C_29
REMARK    7  A    between atoms: C_25  and  C_26
REMARK    8  A    between atoms: C_26  and  S_27
REMARK    9  A    between atoms: S_27  and  C_28
REMARK   10  A    between atoms: C_29  and  O_31
REMARK   11  A    between atoms: O_31  and  C_32
REMARK                            x       y       z     vdW  Elec       q    Type
REMARK                         _______ _______ _______ _____ _____    ______ ____
ROOT
ATOM      1  C   UNL     1       2.506  -2.508  -4.396  0.00  0.00    +0.156 C 
ATOM      2  C   UNL     1       1.468  -3.102  -5.315  0.00  0.00    +0.064 A 
ATOM      3  C   UNL     1       1.234  -4.426  -5.441  0.00  0.00    +0.066 A 
ATOM      4  N   UNL     1       0.251  -4.585  -6.332  0.00  0.00    -0.240 NA
ATOM      5  C   UNL     1      -0.131  -3.412  -6.765  0.00  0.00    +0.197 A 
ATOM      6  N   UNL     1       0.609  -2.459  -6.151  0.00  0.00    -0.346 N 
ATOM      7  H   UNL     1       0.539  -1.501  -6.283  0.00  0.00    +0.167 HD
ATOM      8  C   UNL     1       1.984  -5.498  -4.690  0.00  0.00    +0.076 C 
ATOM      9  C   UNL     1       2.686  -4.860  -3.485  0.00  0.00    +0.116 C 
ATOM     10  N   UNL     1       3.349  -3.617  -3.913  0.00  0.00    -0.273 N 
ATOM     11  C   UNL     1       4.691  -3.496  -3.867  0.00  0.00    +0.304 C 
ATOM     12  O   UNL     1       5.378  -4.451  -3.560  0.00  0.00    -0.253 OA
ATOM     13  N   UNL     1       5.271  -2.316  -4.162  0.00  0.00    -0.286 N 
ATOM     14  H   UNL     1       4.722  -1.535  -4.333  0.00  0.00    +0.151 HD
ENDROOT
BRANCH   1  18
ATOM     15  C   UNL     1       0.596  -0.587  -1.091  0.00  0.00    +0.120 A 
ATOM     16  C   UNL     1       1.516   0.108  -1.861  0.00  0.00    +0.046 A 
ATOM     17  C   UNL     1       2.132  -0.515  -2.929  0.00  0.00    +0.009 A 
ATOM     18  C   UNL     1       1.832  -1.831  -3.230  0.00  0.00    -0.021 A 
ATOM     19  C   UNL     1       0.915  -2.526  -2.464  0.00  0.00    +0.009 A 
ATOM     20  C   UNL     1       0.300  -1.909  -1.392  0.00  0.00    +0.046 A 
BRANCH  15  22
ATOM     21  C   UNL     1       0.341   1.385   0.211  0.00  0.00    +0.277 C 
ATOM     22  O   UNL     1      -0.012   0.023  -0.040  0.00  0.00    -0.495 OA
ENDBRANCH  15  22
ENDBRANCH   1  18
BRANCH  13  23
ATOM     23  C   UNL     1       6.731  -2.212  -4.222  0.00  0.00    +0.184 C 
BRANCH  23  24
ATOM     24  C   UNL     1       7.276  -1.970  -2.838  0.00  0.00    +0.327 C 
ATOM     25  O   UNL     1       6.521  -1.892  -1.897  0.00  0.00    -0.249 OA
BRANCH  24  26
ATOM     26  O   UNL     1       8.598  -1.841  -2.650  0.00  0.00    -0.467 OA
ATOM     27  C   UNL     1       9.044  -1.613  -1.312  0.00  0.00    +0.280 C 
ENDBRANCH  24  26
ENDBRANCH  23  24
BRANCH  23  28
ATOM     28  C   UNL     1       7.123  -1.048  -5.135  0.00  0.00    +0.044 C 
BRANCH  28  29
ATOM     29  C   UNL     1       6.679  -1.352  -6.567  0.00  0.00    +0.071 C 
BRANCH  29  30
ATOM     30  S   UNL     1       7.143   0.028  -7.649  0.00  0.00    -0.164 S 
ATOM     31  C   UNL     1       6.554  -0.482  -9.288  0.00  0.00    +0.084 C 
ENDBRANCH  29  30
ENDBRANCH  28  29
ENDBRANCH  23  28
ENDBRANCH  13  23
TORSDOF 8
