REMARK  Name = ZINC59168480
REMARK  6 active torsions:
REMARK  status: ('A' for Active; 'I' for Inactive)
REMARK    1  A    between atoms: C_1  and  C_2
REMARK    2  A    between atoms: C_2  and  C_3
REMARK    3  A    between atoms: C_2  and  C_4
REMARK    4  A    between atoms: C_2  and  C_5
REMARK    5  A    between atoms: C_8  and  C_11
REMARK    6  A    between atoms: C_17  and  C_20
REMARK                            x       y       z     vdW  Elec       q    Type
REMARK                         _______ _______ _______ _____ _____    ______ ____
ROOT
ATOM      1  C   UNL     1       2.696  -1.861  -4.732  0.00  0.00    +0.182 A 
ATOM      2  N   UNL     1       2.288  -2.818  -5.527  0.00  0.00    -0.127 NA
ATOM      3  N   UNL     1       3.133  -2.985  -6.483  0.00  0.00    -0.120 NA
ATOM      4  C   UNL     1       4.125  -2.160  -6.338  0.00  0.00    +0.211 A 
ATOM      5  N   UNL     1       3.895  -1.370  -5.240  0.00  0.00    -0.220 N 
ATOM      6  N   UNL     1       4.780  -0.379  -4.936  0.00  0.00    -0.263 N 
ATOM      7  C   UNL     1       6.141  -0.556  -5.509  0.00  0.00    +0.184 C 
ATOM      8  S   UNL     1       5.693  -1.595  -6.965  0.00  0.00    -0.056 S 
ATOM      9  H   UNL     1       4.404   0.527  -5.170  0.00  0.00    +0.168 HD
ENDROOT
BRANCH   1  13
ATOM     10  C   UNL     1       0.707  -0.490  -1.238  0.00  0.00    -0.042 A 
ATOM     11  C   UNL     1       0.033  -1.285  -2.147  0.00  0.00    +0.005 A 
ATOM     12  C   UNL     1       0.673  -1.734  -3.284  0.00  0.00    +0.012 A 
ATOM     13  C   UNL     1       2.004  -1.383  -3.516  0.00  0.00    +0.021 A 
ATOM     14  C   UNL     1       2.679  -0.581  -2.595  0.00  0.00    +0.012 A 
ATOM     15  C   UNL     1       2.025  -0.135  -1.464  0.00  0.00    +0.005 A 
BRANCH  10  17
ATOM     16  C   UNL     1      -0.019   1.526   0.010  0.00  0.00    +0.015 C 
ATOM     17  C   UNL     1       0.002  -0.004   0.002  0.00  0.00    -0.013 C 
ATOM     18  C   UNL     1       0.742  -0.511   1.242  0.00  0.00    +0.015 C 
ATOM     19  C   UNL     1      -1.433  -0.534   0.013  0.00  0.00    +0.015 C 
ENDBRANCH  10  17
ENDBRANCH   1  13
BRANCH   7  20
ATOM     20  C   UNL     1       6.743   0.762  -5.925  0.00  0.00    +0.003 A 
ATOM     21  C   UNL     1       8.117   0.947  -5.895  0.00  0.00    +0.009 A 
ATOM     22  C   UNL     1       8.626   2.175  -6.286  0.00  0.00    +0.020 A 
ATOM     23  C   UNL     1       7.753   3.168  -6.690  0.00  0.00    +0.111 A 
ATOM     24  N   UNL     1       6.452   2.957  -6.705  0.00  0.00    -0.263 NA
ATOM     25  C   UNL     1       5.933   1.799  -6.346  0.00  0.00    +0.117 A 
ENDBRANCH   7  20
TORSDOF 3
