REMARK  Name = ZINC41491633
REMARK  4 active torsions:
REMARK  status: ('A' for Active; 'I' for Inactive)
REMARK    1  A    between atoms: C_6  and  N_7
REMARK    2  A    between atoms: C_8  and  C_10
REMARK    3  A    between atoms: N_12  and  C_13
REMARK    4  A    between atoms: C_13  and  C_14
REMARK                            x       y       z     vdW  Elec       q    Type
REMARK                         _______ _______ _______ _____ _____    ______ ____
ROOT
ATOM      1  C   UNL     1      -2.459  -2.818  -0.243  0.00  0.00    +0.300 C 
ATOM      2  O   UNL     1      -3.517  -2.224  -0.206  0.00  0.00    -0.265 OA
ATOM      3  N   UNL     1      -2.445  -4.162  -0.346  0.00  0.00    -0.303 N 
ATOM      4  H   UNL     1      -1.599  -4.637  -0.376  0.00  0.00    +0.149 HD
ENDROOT
BRANCH   1   6
ATOM      5  N   UNL     1      -1.189  -0.716  -0.072  0.00  0.00    -0.278 N 
ATOM      6  C   UNL     1      -1.174  -2.060  -0.175  0.00  0.00    +0.303 C 
ATOM      7  O   UNL     1      -0.117  -2.654  -0.212  0.00  0.00    -0.265 OA
ATOM      8  H   UNL     1      -2.032  -0.247   0.035  0.00  0.00    +0.155 HD
BRANCH   5  14
ATOM      9  C   UNL     1       1.062  -0.452  -0.903  0.00  0.00    +0.025 A 
ATOM     10  C   UNL     1       2.244   0.259  -0.948  0.00  0.00    +0.022 A 
ATOM     11  C   UNL     1       2.381   1.423  -0.212  0.00  0.00    +0.041 A 
ATOM     12  C   UNL     1       1.335   1.877   0.572  0.00  0.00    +0.022 A 
ATOM     13  C   UNL     1       0.150   1.170   0.620  0.00  0.00    +0.025 A 
ATOM     14  C   UNL     1       0.009   0.001  -0.118  0.00  0.00    +0.034 A 
ATOM     15 CL   UNL     1       3.870   2.315  -0.270  0.00  0.00    -0.084 Cl
ENDBRANCH   5  14
ENDBRANCH   1   6
BRANCH   3  16
ATOM     16  C   UNL     1      -3.705  -4.905  -0.414  0.00  0.00    +0.141 C 
BRANCH  16  17
ATOM     17  C   UNL     1      -3.413  -6.380  -0.524  0.00  0.00    -0.014 A 
ATOM     18  C   UNL     1      -3.262  -6.973  -1.771  0.00  0.00    +0.010 A 
ATOM     19  C   UNL     1      -2.995  -8.329  -1.829  0.00  0.00    +0.042 A 
ATOM     20  C   UNL     1      -2.888  -9.048  -0.642  0.00  0.00    +0.099 A 
ATOM     21  N   UNL     1      -3.038  -8.446   0.527  0.00  0.00    -0.349 N 
ATOM     22  C   UNL     1      -3.288  -7.153   0.612  0.00  0.00    +0.089 A 
ATOM     23  N   UNL     1      -2.620 -10.412  -0.686  0.00  0.00    -0.317 N 
ATOM     24  C   UNL     1      -2.315 -11.018  -1.962  0.00  0.00    +0.106 C 
ATOM     25  C   UNL     1      -3.625 -11.491  -2.639  0.00  0.00    +0.019 C 
ATOM     26  C   UNL     1      -4.170 -12.662  -1.935  0.00  0.00    +0.002 C 
ATOM     27  C   UNL     1      -4.568 -12.395  -0.486  0.00  0.00    +0.002 C 
ATOM     28  C   UNL     1      -3.357 -12.542   0.401  0.00  0.00    +0.019 C 
ATOM     29  C   UNL     1      -2.653 -11.179   0.575  0.00  0.00    +0.106 C 
ATOM     30  H   UNL     1      -2.960  -8.967   1.341  0.00  0.00    +0.167 HD
ENDBRANCH  16  17
ENDBRANCH   3  16
TORSDOF 4
