REMARK  Name = ZINC22094433
REMARK  8 active torsions:
REMARK  status: ('A' for Active; 'I' for Inactive)
REMARK    1  A    between atoms: C_1  and  C_2
REMARK    2  A    between atoms: C_2  and  S_3
REMARK    3  A    between atoms: S_3  and  N_6
REMARK    4  A    between atoms: C_13  and  C_15
REMARK    5  A    between atoms: C_15  and  C_17
REMARK    6  A    between atoms: C_17  and  N_18
REMARK    7  A    between atoms: C_21  and  C_25
REMARK    8  A    between atoms: C_21  and  C_26
REMARK                            x       y       z     vdW  Elec       q    Type
REMARK                         _______ _______ _______ _____ _____    ______ ____
ROOT
ATOM      1  N   UNL     1      -3.929   0.929   1.811  0.00  0.00    -0.216 N 
ATOM      2  C   UNL     1      -3.583   1.729   0.783  0.00  0.00    +0.251 C 
ATOM      3  O   UNL     1      -4.035   2.823   0.523  0.00  0.00    -0.272 OA
ATOM      4  C   UNL     1      -2.513   0.975   0.019  0.00  0.00    +0.135 C 
ATOM      5  N   UNL     1      -2.365  -0.282   0.773  0.00  0.00    -0.281 N 
ATOM      6  C   UNL     1      -3.233  -0.213   1.803  0.00  0.00    +0.310 C 
ATOM      7  O   UNL     1      -3.369  -1.093   2.631  0.00  0.00    -0.252 OA
ATOM      8  C   UNL     1      -2.971   0.692  -1.413  0.00  0.00    +0.047 C 
ATOM      9  H   UNL     1      -1.642  -1.041   0.441  0.00  0.00    +0.152 HD
ENDROOT
BRANCH   4  10
ATOM     10  C   UNL     1      -1.219   1.748   0.017  0.00  0.00    -0.015 A 
ATOM     11  C   UNL     1      -1.239   3.130   0.030  0.00  0.00    +0.006 A 
ATOM     12  C   UNL     1      -0.052   3.836   0.022  0.00  0.00    +0.004 A 
ATOM     13  C   UNL     1       1.159   3.164   0.008  0.00  0.00    -0.044 A 
ATOM     14  C   UNL     1       1.179   1.782   0.000  0.00  0.00    -0.044 A 
ATOM     15  C   UNL     1      -0.013   1.076   0.008  0.00  0.00    +0.010 A 
ATOM     16  C   UNL     1       2.610   1.291  -0.016  0.00  0.00    +0.036 C 
ATOM     17  C   UNL     1       3.450   2.509  -0.459  0.00  0.00    +0.009 C 
ATOM     18  C   UNL     1       2.576   3.696  -0.004  0.00  0.00    +0.036 C 
ENDBRANCH   4  10
BRANCH   1  19
ATOM     19  C   UNL     1      -4.942   1.268   2.813  0.00  0.00    +0.197 C 
BRANCH  19  20
ATOM     20  C   UNL     1      -6.290   0.780   2.350  0.00  0.00    +0.181 C 
ATOM     21  O   UNL     1      -6.395   0.204   1.287  0.00  0.00    -0.290 OA
BRANCH  20  29
ATOM     22  N   UNL     1     -10.954   1.523   5.396  0.00  0.00    -0.207 N 
ATOM     23  C   UNL     1     -12.003   0.905   4.581  0.00  0.00    +0.136 C 
ATOM     24  C   UNL     1     -11.284   0.380   3.328  0.00  0.00    +0.058 C 
ATOM     25  C   UNL     1      -9.834   0.756   3.540  0.00  0.00    -0.023 A 
ATOM     26  C   UNL     1      -9.725   1.414   4.761  0.00  0.00    +0.054 A 
ATOM     27  C   UNL     1      -8.468   1.866   5.185  0.00  0.00    +0.026 A 
ATOM     28  C   UNL     1      -7.362   1.658   4.416  0.00  0.00    +0.013 A 
ATOM     29  C   UNL     1      -7.477   1.000   3.185  0.00  0.00    +0.019 A 
ATOM     30  C   UNL     1      -8.733   0.548   2.759  0.00  0.00    +0.017 A 
BRANCH  22  31
ATOM     31  S   UNL     1     -11.200   2.248   6.864  0.00  0.00    +0.045 S 
ATOM     32  O   UNL     1     -12.363   1.621   7.388  0.00  0.00    -0.155 OA
ATOM     33  O   UNL     1      -9.953   2.137   7.537  0.00  0.00    -0.155 OA
BRANCH  31  35
ATOM     34  C   UNL     1     -11.794   4.759   7.771  0.00  0.00    +0.030 C 
ATOM     35  C   UNL     1     -11.549   3.985   6.474  0.00  0.00    +0.185 C 
ENDBRANCH  31  35
ENDBRANCH  22  31
ENDBRANCH  20  29
ENDBRANCH  19  20
ENDBRANCH   1  19
TORSDOF 6
