REMARK  Name = ZINC39412697
REMARK  7 active torsions:
REMARK  status: ('A' for Active; 'I' for Inactive)
REMARK    1  A    between atoms: C_1  and  C_2
REMARK    2  A    between atoms: C_2  and  C_3
REMARK    3  A    between atoms: C_4  and  C_26
REMARK    4  A    between atoms: C_5  and  C_9
REMARK    5  A    between atoms: N_11  and  C_12
REMARK    6  A    between atoms: N_17  and  C_19
REMARK    7  A    between atoms: C_19  and  C_20
REMARK                            x       y       z     vdW  Elec       q    Type
REMARK                         _______ _______ _______ _____ _____    ______ ____
ROOT
ATOM      1  C   UNL     1      -4.380  -4.524  -2.415  0.00  0.00    +0.056 C 
ATOM      2  C   UNL     1      -5.792  -4.912  -1.967  0.00  0.00    +0.018 C 
ATOM      3  C   UNL     1      -6.067  -6.362  -2.378  0.00  0.00    -0.017 C 
ATOM      4  C   UNL     1      -5.880  -6.501  -3.891  0.00  0.00    -0.079 C 
ATOM      5  N   UNL     1      -4.504  -6.141  -4.252  0.00  0.00    +0.381 N 
ATOM      6  C   UNL     1      -4.254  -4.732  -3.926  0.00  0.00    -0.056 C 
ATOM      7  H   UNL     1      -3.859  -6.723  -3.738  0.00  0.00    -0.082 HD
ENDROOT
BRANCH   1  10
ATOM      8  C   UNL     1      -3.696  -2.773  -0.865  0.00  0.00    +0.244 C 
ATOM      9  O   UNL     1      -3.507  -3.630  -0.027  0.00  0.00    -0.273 OA
ATOM     10  N   UNL     1      -4.134  -3.117  -2.092  0.00  0.00    -0.312 N 
ATOM     11  H   UNL     1      -4.285  -2.432  -2.762  0.00  0.00    +0.149 HD
BRANCH   8  14
ATOM     12  C   UNL     1      -1.412  -0.526   0.013  0.00  0.00    +0.064 C 
ATOM     13  C   UNL     1      -2.098  -0.877  -1.077  0.00  0.00    -0.015 C 
ATOM     14  C   UNL     1      -3.443  -1.325  -0.533  0.00  0.00    +0.241 C 
ATOM     15  N   UNL     1      -3.291  -1.139   0.920  0.00  0.00    -0.170 NA
ATOM     16  N   UNL     1      -2.154  -0.707   1.127  0.00  0.00    -0.158 NA
ATOM     17  C   UNL     1      -1.644  -0.837  -2.513  0.00  0.00    +0.044 C 
BRANCH  12  19
ATOM     18  C   UNL     1      -0.019   1.526   0.010  0.00  0.00    +0.010 C 
ATOM     19  C   UNL     1       0.002  -0.004   0.002  0.00  0.00    +0.054 C 
ENDBRANCH  12  19
ENDBRANCH   8  14
ENDBRANCH   1  10
BRANCH   5  20
ATOM     20  C   UNL     1      -4.307  -6.351  -5.693  0.00  0.00    -0.075 C 
BRANCH  20  21
ATOM     21  C   UNL     1      -4.434  -7.841  -6.013  0.00  0.00    -0.028 C 
ATOM     22  C   UNL     1      -3.298  -8.608  -5.333  0.00  0.00    +0.002 C 
ATOM     23  C   UNL     1      -3.425 -10.098  -5.654  0.00  0.00    +0.000 C 
ATOM     24  C   UNL     1      -3.344 -10.303  -7.168  0.00  0.00    +0.000 C 
ATOM     25  C   UNL     1      -4.480  -9.537  -7.848  0.00  0.00    +0.000 C 
ATOM     26  C   UNL     1      -4.353  -8.046  -7.527  0.00  0.00    +0.002 C 
ENDBRANCH  20  21
ENDBRANCH   5  20
TORSDOF 5
