REMARK  Name = ZINC44855194
REMARK  7 active torsions:
REMARK  status: ('A' for Active; 'I' for Inactive)
REMARK    1  A    between atoms: C_1  and  C_2
REMARK    2  A    between atoms: C_8  and  N_15
REMARK    3  A    between atoms: C_11  and  C_13
REMARK    4  A    between atoms: C_11  and  C_14
REMARK    5  A    between atoms: C_16  and  C_18
REMARK    6  A    between atoms: N_23  and  C_25
REMARK    7  A    between atoms: C_25  and  C_26
REMARK                            x       y       z     vdW  Elec       q    Type
REMARK                         _______ _______ _______ _____ _____    ______ ____
ROOT
ATOM      1  N   UNL     1      -0.865  -2.164   3.446  0.00  0.00    -0.308 N 
ATOM      2  C   UNL     1      -0.463  -1.100   4.168  0.00  0.00    +0.215 C 
ATOM      3  O   UNL     1       0.668  -0.678   4.048  0.00  0.00    -0.276 OA
ATOM      4  H   UNL     1      -1.770  -2.502   3.542  0.00  0.00    +0.149 HD
ENDROOT
BRANCH   1  12
ATOM      5  C   UNL     1      -0.018   1.503   0.010  0.00  0.00    +0.044 C 
ATOM      6  C   UNL     1       0.002  -0.004   0.002  0.00  0.00    -0.050 A 
ATOM      7  C   UNL     1       0.006  -0.689  -1.199  0.00  0.00    +0.007 A 
ATOM      8  C   UNL     1       0.022  -2.069  -1.206  0.00  0.00    +0.046 A 
ATOM      9  C   UNL     1       0.037  -2.774  -0.006  0.00  0.00    +0.126 A 
ATOM     10  C   UNL     1       0.037  -2.086   1.194  0.00  0.00    +0.015 A 
ATOM     11  C   UNL     1       0.023  -0.701   1.194  0.00  0.00    +0.012 A 
ATOM     12  C   UNL     1       0.063  -2.812   2.515  0.00  0.00    +0.110 C 
ATOM     13  C   UNL     1      -0.355  -4.270   2.312  0.00  0.00    +0.074 C 
ATOM     14  C   UNL     1       0.436  -4.837   1.126  0.00  0.00    +0.107 C 
ATOM     15  O   UNL     1       0.048  -4.132  -0.053  0.00  0.00    -0.486 OA
ATOM     16  C   UNL     1       0.123  -6.326   0.963  0.00  0.00    +0.055 C 
ATOM     17  C   UNL     1       1.935  -4.648   1.369  0.00  0.00    +0.055 C 
ENDBRANCH   1  12
BRANCH   2  18
ATOM     18  C   UNL     1      -1.418  -0.434   5.125  0.00  0.00    +0.058 C 
ATOM     19  C   UNL     1      -1.871  -1.446   6.182  0.00  0.00    +0.009 C 
ATOM     20  C   UNL     1      -2.779  -0.740   7.193  0.00  0.00    -0.018 C 
ATOM     21  C   UNL     1      -2.026   0.442   7.808  0.00  0.00    -0.078 C 
ATOM     22  N   UNL     1      -1.643   1.385   6.750  0.00  0.00    +0.383 N 
ATOM     23  C   UNL     1      -0.716   0.737   5.815  0.00  0.00    -0.066 C 
ATOM     24  H   UNL     1      -2.468   1.683   6.252  0.00  0.00    -0.081 HD
BRANCH  22  25
ATOM     25  C   UNL     1      -0.990   2.555   7.353  0.00  0.00    -0.043 C 
BRANCH  25  26
ATOM     26  C   UNL     1      -1.982   3.298   8.211  0.00  0.00    -0.062 A 
ATOM     27  C   UNL     1      -2.760   4.299   7.659  0.00  0.00    +0.003 A 
ATOM     28  C   UNL     1      -3.669   4.981   8.445  0.00  0.00    +0.021 A 
ATOM     29  C   UNL     1      -3.803   4.662   9.784  0.00  0.00    +0.059 A 
ATOM     30  C   UNL     1      -3.024   3.659  10.337  0.00  0.00    +0.059 A 
ATOM     31  C   UNL     1      -2.118   2.974   9.548  0.00  0.00    +0.023 A 
ATOM     32 CL   UNL     1      -3.189   3.258  12.018  0.00  0.00    -0.082 Cl
ATOM     33 CL   UNL     1      -4.945   5.519  10.772  0.00  0.00    -0.082 Cl
ENDBRANCH  25  26
ENDBRANCH  22  25
ENDBRANCH   2  18
TORSDOF 4
