REMARK  Name = ZINC16846880
REMARK  8 active torsions:
REMARK  status: ('A' for Active; 'I' for Inactive)
REMARK    1  A    between atoms: C_1  and  C_2
REMARK    2  A    between atoms: C_2  and  C_3
REMARK    3  A    between atoms: C_3  and  C_32
REMARK    4  A    between atoms: C_13  and  S_18
REMARK    5  A    between atoms: S_18  and  C_19
REMARK    6  A    between atoms: C_19  and  C_20
REMARK    7  A    between atoms: N_22  and  C_23
REMARK    8  A    between atoms: C_23  and  C_24
REMARK                            x       y       z     vdW  Elec       q    Type
REMARK                         _______ _______ _______ _____ _____    ______ ____
ROOT
ATOM      1  C   UNL     1       8.582   7.512  -0.489  0.00  0.00    +0.071 C 
ATOM      2  C   UNL     1       7.308   6.792  -0.037  0.00  0.00    +0.071 C 
ATOM      3  C   UNL     1       6.171   7.812  -0.018  0.00  0.00    -0.019 A 
ATOM      4  C   UNL     1       6.461   9.134  -0.014  0.00  0.00    +0.021 A 
ATOM      5  S   UNL     1       4.888   9.945   0.007  0.00  0.00    -0.071 S 
ATOM      6  C   UNL     1       3.848   8.506   0.011  0.00  0.00    +0.116 A 
ATOM      7  C   UNL     1       4.761   7.442  -0.004  0.00  0.00    +0.056 A 
ATOM      8  C   UNL     1       4.153   6.093  -0.005  0.00  0.00    +0.174 A 
ATOM      9  N   UNL     1       4.638   4.876  -0.015  0.00  0.00    -0.128 NA
ATOM     10  N   UNL     1       3.672   4.025  -0.006  0.00  0.00    -0.122 NA
ATOM     11  C   UNL     1       2.516   4.647   0.003  0.00  0.00    +0.199 A 
ATOM     12  N   UNL     1       2.779   5.990   0.008  0.00  0.00    -0.241 N 
ATOM     13  C   UNL     1       1.998   7.114   0.021  0.00  0.00    +0.202 A 
ATOM     14  N   UNL     1       2.530   8.313   0.022  0.00  0.00    -0.208 NA
ATOM     15  N   UNL     1       0.629   6.983   0.034  0.00  0.00    -0.328 N 
ATOM     16  C   UNL     1       7.830   9.741  -0.024  0.00  0.00    +0.203 C 
ATOM     17  O   UNL     1       8.775   8.702   0.279  0.00  0.00    -0.368 OA
ATOM     18  C   UNL     1       8.455   7.879  -1.969  0.00  0.00    +0.042 C 
ATOM     19  H   UNL     1       0.225   6.101   0.033  0.00  0.00    +0.145 HD
ATOM     20  H   UNL     1       0.066   7.774   0.044  0.00  0.00    +0.145 HD
ENDROOT
BRANCH   1  22
ATOM     21  C   UNL     1      11.055   7.294  -0.766  0.00  0.00    +0.007 C 
ATOM     22  C   UNL     1       9.783   6.584  -0.298  0.00  0.00    +0.032 C 
ENDBRANCH   1  22
BRANCH  11  23
ATOM     23  S   UNL     1       0.923   3.893   0.014  0.00  0.00    -0.076 S 
BRANCH  23  24
ATOM     24  C   UNL     1       1.278   2.115   0.001  0.00  0.00    +0.173 C 
BRANCH  24  25
ATOM     25  C   UNL     1      -0.016   1.344   0.009  0.00  0.00    +0.224 C 
ATOM     26  O   UNL     1      -1.075   1.936   0.018  0.00  0.00    -0.275 OA
ATOM     27  N   UNL     1       0.002  -0.004   0.002  0.00  0.00    -0.311 N 
ATOM     28  H   UNL     1       0.849  -0.478  -0.009  0.00  0.00    +0.149 HD
BRANCH  27  29
ATOM     29  C   UNL     1      -1.256  -0.754   0.010  0.00  0.00    +0.139 C 
BRANCH  29  30
ATOM     30  C   UNL     1      -0.961  -2.232  -0.001  0.00  0.00    -0.030 A 
ATOM     31  C   UNL     1      -0.843  -2.904  -1.203  0.00  0.00    +0.005 A 
ATOM     32  C   UNL     1      -0.567  -4.258  -1.213  0.00  0.00    +0.000 A 
ATOM     33  C   UNL     1      -0.419  -4.942  -0.021  0.00  0.00    +0.000 A 
ATOM     34  C   UNL     1      -0.544  -4.271   1.181  0.00  0.00    +0.000 A 
ATOM     35  C   UNL     1      -0.814  -2.916   1.191  0.00  0.00    +0.005 A 
ENDBRANCH  29  30
ENDBRANCH  27  29
ENDBRANCH  24  25
ENDBRANCH  23  24
ENDBRANCH  11  23
TORSDOF 6
