REMARK  Name = ZINC46746900
REMARK  7 active torsions:
REMARK  status: ('A' for Active; 'I' for Inactive)
REMARK    1  A    between atoms: C_4  and  O_7
REMARK    2  A    between atoms: O_7  and  C_8
REMARK    3  A    between atoms: C_8  and  C_9
REMARK    4  A    between atoms: C_12  and  C_15
REMARK    5  A    between atoms: C_15  and  N_16
REMARK    6  A    between atoms: N_16  and  S_17
REMARK    7  A    between atoms: S_17  and  C_20
REMARK                            x       y       z     vdW  Elec       q    Type
REMARK                         _______ _______ _______ _____ _____    ______ ____
ROOT
ATOM      1  N   UNL     1       9.866  -3.088  -0.109  0.00  0.00    -0.186 NA
ATOM      2  H   UNL     1       9.573  -2.187  -0.316  0.00  0.00    +0.148 HD
ENDROOT
BRANCH   1   3
ATOM      3  S   UNL     1      11.458  -3.379   0.245  0.00  0.00    +0.060 S 
ATOM      4  O   UNL     1      12.132  -2.133   0.140  0.00  0.00    -0.153 OA
ATOM      5  O   UNL     1      11.473  -4.155   1.436  0.00  0.00    -0.153 OA
BRANCH   3   6
ATOM      6  C   UNL     1      12.097  -4.408  -1.034  0.00  0.00    +0.127 A 
ATOM      7  C   UNL     1      13.091  -3.931  -1.870  0.00  0.00    +0.077 A 
ATOM      8  C   UNL     1      13.593  -4.739  -2.874  0.00  0.00    +0.144 A 
ATOM      9  C   UNL     1      13.095  -6.030  -3.042  0.00  0.00    +0.077 A 
ATOM     10  C   UNL     1      12.099  -6.503  -2.204  0.00  0.00    +0.049 A 
ATOM     11  C   UNL     1      11.606  -5.691  -1.196  0.00  0.00    +0.069 A 
ATOM     12 CL   UNL     1      10.363  -6.283  -0.138  0.00  0.00    -0.081 Cl
ATOM     13  N   UNL     1      13.612  -6.837  -4.066  0.00  0.00    -0.280 N 
ATOM     14  C   UNL     1      14.775  -6.482  -4.654  0.00  0.00    +0.255 C 
ATOM     15  O   UNL     1      15.226  -7.149  -5.562  0.00  0.00    -0.272 OA
ATOM     16  C   UNL     1      15.510  -5.255  -4.178  0.00  0.00    +0.325 C 
ATOM     17  O   UNL     1      14.572  -4.287  -3.704  0.00  0.00    -0.481 OA
ATOM     18  H   UNL     1      13.142  -7.638  -4.346  0.00  0.00    +0.155 HD
ENDBRANCH   3   6
ENDBRANCH   1   3
BRANCH   1  19
ATOM     19  C   UNL     1       8.902  -4.191  -0.111  0.00  0.00    +0.141 C 
BRANCH  19  23
ATOM     20  C   UNL     1       4.932  -2.615  -0.061  0.00  0.00    -0.010 A 
ATOM     21  C   UNL     1       5.564  -2.859  -1.266  0.00  0.00    +0.007 A 
ATOM     22  C   UNL     1       6.849  -3.368  -1.282  0.00  0.00    +0.005 A 
ATOM     23  C   UNL     1       7.502  -3.634  -0.093  0.00  0.00    -0.032 A 
ATOM     24  C   UNL     1       6.870  -3.390   1.112  0.00  0.00    +0.005 A 
ATOM     25  C   UNL     1       5.587  -2.877   1.128  0.00  0.00    +0.007 A 
BRANCH  20  26
ATOM     26  C   UNL     1       3.531  -2.060  -0.044  0.00  0.00    +0.264 C 
BRANCH  26  27
ATOM     27  O   UNL     1       3.586  -0.632  -0.037  0.00  0.00    -0.487 OA
BRANCH  27  31
ATOM     28  C   UNL     1      -0.017   1.378   0.010  0.00  0.00    +0.000 A 
ATOM     29  C   UNL     1       1.170   2.088   0.002  0.00  0.00    +0.004 A 
ATOM     30  C   UNL     1       2.377   1.417  -0.013  0.00  0.00    +0.045 A 
ATOM     31  C   UNL     1       2.399   0.030  -0.021  0.00  0.00    +0.121 A 
ATOM     32  C   UNL     1       1.207  -0.680  -0.013  0.00  0.00    +0.045 A 
ATOM     33  C   UNL     1       0.002  -0.004   0.002  0.00  0.00    +0.004 A 
ENDBRANCH  27  31
ENDBRANCH  26  27
ENDBRANCH  20  26
ENDBRANCH  19  23
ENDBRANCH   1  19
TORSDOF 7
