REMARK  Name = ZINC12832897
REMARK  11 active torsions:
REMARK  status: ('A' for Active; 'I' for Inactive)
REMARK    1  A    between atoms: C_1  and  C_2
REMARK    2  A    between atoms: C_12  and  C_14
REMARK    3  A    between atoms: C_14  and  N_67
REMARK    4  A    between atoms: C_15  and  C_16
REMARK    5  A    between atoms: C_15  and  N_67
REMARK    6  A    between atoms: C_25  and  C_26
REMARK    7  A    between atoms: C_25  and  N_67
REMARK    8  A    between atoms: N_30  and  C_31
REMARK    9  A    between atoms: C_31  and  C_32
REMARK   10  A    between atoms: C_35  and  O_38
REMARK   11  A    between atoms: O_38  and  C_39
REMARK                            x       y       z     vdW  Elec       q    Type
REMARK                         _______ _______ _______ _____ _____    ______ ____
ROOT
ATOM      1  N   UNL     1       1.570  -2.063  -1.365  0.00  0.00    +0.390 N 
ATOM      2  H   UNL     1       0.850  -1.833  -2.060  0.00  0.00    -0.080 HD
ENDROOT
BRANCH   1   3
ATOM      3  C   UNL     1       1.400  -3.469  -0.943  0.00  0.00    -0.036 C 
BRANCH   3  15
ATOM      4  C   UNL     1      -4.792  -4.158   1.152  0.00  0.00    +0.046 C 
ATOM      5  C   UNL     1      -4.149  -4.472  -0.174  0.00  0.00    -0.026 A 
ATOM      6  C   UNL     1      -4.903  -5.001  -1.200  0.00  0.00    +0.005 A 
ATOM      7  C   UNL     1      -4.323  -5.295  -2.426  0.00  0.00    +0.001 A 
ATOM      8  C   UNL     1      -2.993  -5.065  -2.640  0.00  0.00    +0.010 A 
ATOM      9  C   UNL     1      -2.209  -4.528  -1.613  0.00  0.00    -0.001 A 
ATOM     10  C   UNL     1      -2.794  -4.229  -0.368  0.00  0.00    +0.052 A 
ATOM     11  N   UNL     1      -2.016  -3.701   0.640  0.00  0.00    -0.322 N 
ATOM     12  H   UNL     1      -2.420  -3.495   1.498  0.00  0.00    +0.169 HD
ATOM     13  C   UNL     1      -0.706  -3.466   0.453  0.00  0.00    +0.251 A 
ATOM     14  O   UNL     1      -0.049  -2.998   1.366  0.00  0.00    -0.268 OA
ATOM     15  C   UNL     1      -0.071  -3.748  -0.776  0.00  0.00    +0.001 A 
ATOM     16  C   UNL     1      -0.783  -4.264  -1.809  0.00  0.00    +0.017 A 
ENDBRANCH   3  15
ENDBRANCH   1   3
BRANCH   1  17
ATOM     17  C   UNL     1       2.904  -1.876  -1.975  0.00  0.00    -0.042 C 
BRANCH  17  18
ATOM     18  C   UNL     1       2.908  -2.521  -3.337  0.00  0.00    -0.060 A 
ATOM     19  C   UNL     1       3.408  -3.800  -3.493  0.00  0.00    +0.005 A 
ATOM     20  C   UNL     1       3.409  -4.399  -4.739  0.00  0.00    +0.050 A 
ATOM     21  C   UNL     1       2.918  -3.712  -5.838  0.00  0.00    +0.166 A 
ATOM     22  C   UNL     1       2.419  -2.421  -5.682  0.00  0.00    +0.166 A 
ATOM     23  C   UNL     1       2.416  -1.831  -4.428  0.00  0.00    +0.051 A 
ATOM     24  O   UNL     1       2.000  -1.966  -6.898  0.00  0.00    -0.453 OA
ATOM     25  C   UNL     1       2.622  -2.830  -7.867  0.00  0.00    +0.466 C 
ATOM     26  O   UNL     1       2.812  -4.065  -7.152  0.00  0.00    -0.453 OA
ENDBRANCH  17  18
ENDBRANCH   1  17
BRANCH   1  27
ATOM     27  C   UNL     1       1.417  -1.165  -0.201  0.00  0.00    +0.001 C 
BRANCH  27  28
ATOM     28  C   UNL     1       1.441   0.264  -0.681  0.00  0.00    +0.135 A 
ATOM     29  N   UNL     1       2.504   1.003  -0.885  0.00  0.00    -0.115 NA
ATOM     30  N   UNL     1       2.111   2.160  -1.292  0.00  0.00    -0.023 NA
ATOM     31  N   UNL     1       0.826   2.179  -1.354  0.00  0.00    -0.044 NA
ATOM     32  N   UNL     1       0.375   1.027  -0.984  0.00  0.00    -0.227 N 
BRANCH  32  33
ATOM     33  C   UNL     1      -1.032   0.627  -0.909  0.00  0.00    +0.182 C 
BRANCH  33  34
ATOM     34  C   UNL     1      -1.504   0.193  -2.273  0.00  0.00    -0.026 A 
ATOM     35  C   UNL     1      -1.955   1.135  -3.179  0.00  0.00    +0.009 A 
ATOM     36  C   UNL     1      -2.383   0.740  -4.432  0.00  0.00    +0.046 A 
ATOM     37  C   UNL     1      -2.371  -0.604  -4.777  0.00  0.00    +0.120 A 
ATOM     38  C   UNL     1      -1.924  -1.547  -3.863  0.00  0.00    +0.046 A 
ATOM     39  C   UNL     1      -1.492  -1.147  -2.614  0.00  0.00    +0.009 A 
BRANCH  37  40
ATOM     40  O   UNL     1      -2.796  -0.995  -6.006  0.00  0.00    -0.495 OA
ATOM     41  C   UNL     1      -3.243   0.031  -6.895  0.00  0.00    +0.277 C 
ENDBRANCH  37  40
ENDBRANCH  33  34
ENDBRANCH  32  33
ENDBRANCH  27  28
ENDBRANCH   1  27
TORSDOF 9
