REMARK  Name = ZINC03877829
REMARK  2 active torsions:
REMARK  status: ('A' for Active; 'I' for Inactive)
REMARK    1  A    between atoms: C_1  and  N_2
REMARK    2  A    between atoms: C_10  and  C_11
REMARK                            x       y       z     vdW  Elec       q    Type
REMARK                         _______ _______ _______ _____ _____    ______ ____
ROOT
ATOM      1  C   UNL     1      -1.133   9.156  -0.363  0.00  0.00    +0.138 C 
ATOM      2  N   UNL     1      -0.492   7.844  -0.249  0.00  0.00    -0.270 N 
ATOM      3  C   UNL     1      -1.181   6.637  -0.190  0.00  0.00    +0.044 A 
ATOM      4  C   UNL     1      -2.541   6.349  -0.218  0.00  0.00    +0.025 A 
ATOM      5  C   UNL     1      -2.975   5.041  -0.143  0.00  0.00    +0.017 A 
ATOM      6  C   UNL     1      -2.066   4.000  -0.038  0.00  0.00    +0.019 A 
ATOM      7  C   UNL     1      -0.711   4.266  -0.008  0.00  0.00    +0.025 A 
ATOM      8  C   UNL     1      -0.264   5.582  -0.090  0.00  0.00    +0.010 A 
ATOM      9  C   UNL     1       1.081   6.197  -0.078  0.00  0.00    +0.050 C 
ATOM     10  C   UNL     1       2.283   5.561   0.009  0.00  0.00    +0.060 C 
ATOM     11  C   UNL     1       0.837   7.653  -0.188  0.00  0.00    +0.251 C 
ATOM     12  O   UNL     1       1.688   8.521  -0.217  0.00  0.00    -0.270 OA
ATOM     13 BR   UNL     1      -2.681   2.215   0.063  0.00  0.00    -0.050 Br
ENDROOT
BRANCH  10  14
ATOM     14  C   UNL     1       2.410   4.170  -0.436  0.00  0.00    +0.135 A 
ATOM     15  N   UNL     1       3.588   3.509  -0.190  0.00  0.00    -0.307 N 
ATOM     16  H   UNL     1       4.333   3.979   0.283  0.00  0.00    +0.170 HD
ATOM     17  C   UNL     1       3.745   2.224  -0.584  0.00  0.00    +0.259 A 
ATOM     18  O   UNL     1       4.782   1.621  -0.374  0.00  0.00    -0.267 OA
ATOM     19  C   UNL     1       2.616   1.582  -1.276  0.00  0.00    +0.065 A 
ATOM     20  C   UNL     1       2.682   0.264  -1.720  0.00  0.00    +0.015 A 
ATOM     21  C   UNL     1       1.597  -0.292  -2.364  0.00  0.00    +0.001 A 
ATOM     22  C   UNL     1       0.442   0.450  -2.572  0.00  0.00    +0.002 A 
ATOM     23  C   UNL     1       0.354   1.755  -2.142  0.00  0.00    +0.028 A 
ATOM     24  C   UNL     1       1.442   2.342  -1.486  0.00  0.00    +0.078 A 
ATOM     25  N   UNL     1       1.395   3.614  -1.050  0.00  0.00    -0.230 NA
ENDBRANCH  10  14
TORSDOF 1
