REMARK  Name = ZINC19733313
REMARK  9 active torsions:
REMARK  status: ('A' for Active; 'I' for Inactive)
REMARK    1  A    between atoms: C_1  and  C_2
REMARK    2  A    between atoms: C_2  and  C_3
REMARK    3  A    between atoms: C_3  and  C_4
REMARK    4  A    between atoms: C_4  and  C_5
REMARK    5  A    between atoms: C_8  and  C_10
REMARK    6  A    between atoms: C_19  and  C_27
REMARK    7  A    between atoms: C_20  and  N_26
REMARK    8  A    between atoms: C_21  and  C_22
REMARK    9  A    between atoms: C_21  and  C_24
REMARK                            x       y       z     vdW  Elec       q    Type
REMARK                         _______ _______ _______ _____ _____    ______ ____
ROOT
ATOM      1  C   UNL     1      -2.067   3.698   4.596  0.00  0.00    +0.073 C 
ATOM      2  C   UNL     1      -2.540   5.058   4.078  0.00  0.00    +0.031 C 
ATOM      3  C   UNL     1      -3.584   4.915   2.995  0.00  0.00    +0.009 C 
ATOM      4  C   UNL     1      -4.998   5.101   3.540  0.00  0.00    +0.005 C 
ATOM      5  C   UNL     1      -5.094   6.497   4.171  0.00  0.00    +0.027 C 
ATOM      6  C   UNL     1      -4.101   6.560   5.302  0.00  0.00    -0.022 C 
ATOM      7  C   UNL     1      -2.969   5.886   5.252  0.00  0.00    -0.029 C 
ATOM      8  C   UNL     1      -2.070   5.891   6.436  0.00  0.00    +0.074 C 
ATOM      9  C   UNL     1      -1.094   4.954   6.533  0.00  0.00    +0.054 C 
ATOM     10  C   UNL     1      -0.844   3.907   5.490  0.00  0.00    +0.189 C 
ENDROOT
BRANCH   1  14
ATOM     11  C   UNL     1      -0.718   1.572   1.248  0.00  0.00    -0.010 A 
ATOM     12  C   UNL     1      -1.718   0.982   1.948  0.00  0.00    +0.011 A 
ATOM     13  C   UNL     1      -2.215   1.617   3.070  0.00  0.00    +0.012 A 
ATOM     14  C   UNL     1      -1.696   2.816   3.432  0.00  0.00    -0.003 A 
ATOM     15  S   UNL     1      -0.459   3.078   2.171  0.00  0.00    -0.098 S 
BRANCH  11  16
ATOM     16  C   UNL     1      -0.013   1.086   0.008  0.00  0.00    +0.042 C 
BRANCH  16  17
ATOM     17  C   UNL     1      -0.753   1.593  -1.232  0.00  0.00    +0.005 C 
BRANCH  17  19
ATOM     18  C   UNL     1      -0.777   1.606  -3.730  0.00  0.00    +0.004 C 
ATOM     19  C   UNL     1      -0.037   1.099  -2.490  0.00  0.00    -0.003 C 
ENDBRANCH  17  19
ENDBRANCH  16  17
ENDBRANCH  11  16
ENDBRANCH   1  14
BRANCH   9  20
ATOM     20  N   UNL     1      -0.295   4.965   7.643  0.00  0.00    -0.358 N 
ATOM     21  H   UNL     1       0.505   4.218   7.751  0.00  0.00    +0.142 HD
ATOM     22  H   UNL     1      -0.453   5.720   8.427  0.00  0.00    +0.142 HD
ENDBRANCH   9  20
BRANCH  10  23
ATOM     23  C   UNL     1      -0.512   2.636   6.155  0.00  0.00    +0.091 C 
ATOM     24  N   UNL     1      -0.256   1.655   6.668  0.00  0.00    -0.194 NA
ENDBRANCH  10  23
BRANCH  10  25
ATOM     25  C   UNL     1       0.296   4.322   4.656  0.00  0.00    +0.091 C 
ATOM     26  N   UNL     1       1.175   4.643   4.012  0.00  0.00    -0.194 NA
ENDBRANCH  10  25
BRANCH   8  27
ATOM     27  C   UNL     1      -2.232   6.875   7.463  0.00  0.00    +0.101 C 
ATOM     28  N   UNL     1      -2.361   7.656   8.279  0.00  0.00    -0.191 NA
ENDBRANCH   8  27
TORSDOF 8
