REMARK  Name = ZINC12572764
REMARK  8 active torsions:
REMARK  status: ('A' for Active; 'I' for Inactive)
REMARK    1  A    between atoms: C_1  and  C_2
REMARK    2  A    between atoms: C_7  and  O_8
REMARK    3  A    between atoms: O_8  and  C_9
REMARK    4  A    between atoms: C_9  and  C_10
REMARK    5  A    between atoms: N_12  and  C_13
REMARK    6  A    between atoms: C_13  and  N_15
REMARK    7  A    between atoms: N_15  and  N_16
REMARK    8  A    between atoms: C_17  and  C_19
REMARK                            x       y       z     vdW  Elec       q    Type
REMARK                         _______ _______ _______ _____ _____    ______ ____
ROOT
ATOM      1  C   UNL     1      -1.046   1.013   4.254  0.00  0.00    +0.256 C 
ATOM      2  O   UNL     1       0.075   1.256   4.646  0.00  0.00    -0.272 OA
ATOM      3  N   UNL     1      -2.113   1.404   4.978  0.00  0.00    -0.264 N 
ATOM      4  H   UNL     1      -3.010   1.209   4.664  0.00  0.00    +0.157 HD
ENDROOT
BRANCH   3   5
ATOM      5  C   UNL     1      -1.934   2.067   6.137  0.00  0.00    +0.153 C 
ATOM      6  S   UNL     1      -0.351   2.411   6.691  0.00  0.00    -0.017 S 
BRANCH   5   7
ATOM      7  N   UNL     1      -3.001   2.459   6.862  0.00  0.00    -0.246 N 
ATOM      8  H   UNL     1      -2.873   2.936   7.696  0.00  0.00    +0.172 HD
BRANCH   7   9
ATOM      9  N   UNL     1      -4.297   2.177   6.409  0.00  0.00    -0.235 N 
ATOM     10  C   UNL     1      -5.364   2.568   7.133  0.00  0.00    +0.232 C 
ATOM     11  O   UNL     1      -5.203   3.165   8.176  0.00  0.00    -0.274 OA
ATOM     12  H   UNL     1      -4.426   1.700   5.574  0.00  0.00    +0.173 HD
BRANCH  10  13
ATOM     13  C   UNL     1      -6.758   2.265   6.645  0.00  0.00    +0.076 C 
ATOM     14  C   UNL     1      -6.975   2.923   5.281  0.00  0.00    +0.013 C 
ATOM     15  C   UNL     1      -8.390   2.615   4.786  0.00  0.00    +0.001 C 
ATOM     16  C   UNL     1      -9.410   3.164   5.786  0.00  0.00    +0.000 C 
ATOM     17  C   UNL     1      -9.193   2.506   7.150  0.00  0.00    +0.001 C 
ATOM     18  C   UNL     1      -7.778   2.814   7.645  0.00  0.00    +0.013 C 
ENDBRANCH  10  13
ENDBRANCH   7   9
ENDBRANCH   5   7
ENDBRANCH   3   5
BRANCH   1  19
ATOM     19  C   UNL     1      -1.246   0.272   2.957  0.00  0.00    +0.325 C 
BRANCH  19  20
ATOM     20  O   UNL     1       0.025  -0.032   2.381  0.00  0.00    -0.481 OA
BRANCH  20  27
ATOM     21  C   UNL     1      -0.018   1.503   0.010  0.00  0.00    +0.047 C 
ATOM     22  C   UNL     1       0.002  -0.004   0.002  0.00  0.00    -0.007 A 
ATOM     23  C   UNL     1       0.006  -0.689  -1.198  0.00  0.00    +0.022 A 
ATOM     24  C   UNL     1       0.024  -2.072  -1.207  0.00  0.00    +0.019 A 
ATOM     25  C   UNL     1       0.040  -2.773  -0.014  0.00  0.00    +0.034 A 
ATOM     26  C   UNL     1       0.035  -2.092   1.188  0.00  0.00    +0.061 A 
ATOM     27  C   UNL     1       0.023  -0.704   1.199  0.00  0.00    +0.138 A 
ATOM     28 BR   UNL     1       0.055  -3.051   2.818  0.00  0.00    -0.046 Br
ATOM     29 BR   UNL     1       0.029  -3.006  -2.851  0.00  0.00    -0.050 Br
ENDBRANCH  20  27
ENDBRANCH  19  20
ENDBRANCH   1  19
TORSDOF 7
