REMARK  Name = ZINC67466909
REMARK  7 active torsions:
REMARK  status: ('A' for Active; 'I' for Inactive)
REMARK    1  A    between atoms: C_3  and  S_23
REMARK    2  A    between atoms: C_6  and  C_7
REMARK    3  A    between atoms: C_8  and  C_9
REMARK    4  A    between atoms: N_11  and  C_12
REMARK    5  A    between atoms: C_12  and  C_13
REMARK    6  A    between atoms: C_13  and  N_14
REMARK    7  A    between atoms: S_23  and  N_26
REMARK                            x       y       z     vdW  Elec       q    Type
REMARK                         _______ _______ _______ _____ _____    ______ ____
ROOT
ATOM      1  C   UNL     1      -2.494  -2.862   0.011  0.00  0.00    +0.237 C 
ATOM      2  O   UNL     1      -3.558  -2.271   0.025  0.00  0.00    -0.271 OA
ATOM      3  N   UNL     1      -2.472  -4.210   0.004  0.00  0.00    -0.314 N 
ATOM      4  H   UNL     1      -1.624  -4.681  -0.007  0.00  0.00    +0.149 HD
ENDROOT
BRANCH   1   6
ATOM      5  C   UNL     1      -1.260  -0.761   0.011  0.00  0.00    +0.013 C 
ATOM      6  C   UNL     1      -1.238  -2.109   0.003  0.00  0.00    +0.068 C 
BRANCH   5  12
ATOM      7  C   UNL     1      -0.017   1.394   0.010  0.00  0.00    +0.010 A 
ATOM      8  C   UNL     1       1.170   2.096   0.002  0.00  0.00    +0.029 A 
ATOM      9  C   UNL     1       2.378   1.421  -0.013  0.00  0.00    +0.105 A 
ATOM     10  C   UNL     1       2.405   0.037  -0.021  0.00  0.00    +0.029 A 
ATOM     11  C   UNL     1       1.226  -0.679  -0.013  0.00  0.00    +0.010 A 
ATOM     12  C   UNL     1       0.002  -0.004   0.002  0.00  0.00    -0.025 A 
BRANCH   9  13
ATOM     13  S   UNL     1       3.889   2.327  -0.024  0.00  0.00    +0.056 S 
ATOM     14  O   UNL     1       4.872   1.470  -0.589  0.00  0.00    -0.153 OA
ATOM     15  O   UNL     1       3.591   3.606  -0.566  0.00  0.00    -0.153 OA
BRANCH  13  16
ATOM     16  N   UNL     1       4.325   2.571   1.555  0.00  0.00    -0.204 NA
ATOM     17  H   UNL     1       5.262   2.640   1.794  0.00  0.00    +0.144 HD
ATOM     18  H   UNL     1       3.643   2.644   2.240  0.00  0.00    +0.144 HD
ENDBRANCH  13  16
ENDBRANCH   9  13
ENDBRANCH   5  12
ENDBRANCH   1   6
BRANCH   3  19
ATOM     19  C   UNL     1      -3.728  -4.963   0.013  0.00  0.00    +0.086 C 
BRANCH  19  20
ATOM     20  C   UNL     1      -3.424  -6.462   0.001  0.00  0.00    -0.059 C 
BRANCH  20  21
ATOM     21  N   UNL     1      -4.684  -7.218   0.010  0.00  0.00    +0.384 N 
ATOM     22  C   UNL     1      -4.388  -8.650   0.152  0.00  0.00    -0.073 C 
ATOM     23  C   UNL     1      -5.689  -9.396   0.492  0.00  0.00    +0.024 C 
ATOM     24  C   UNL     1      -6.742  -8.918  -0.455  0.00  0.00    -0.011 A 
ATOM     25  C   UNL     1      -6.666  -7.824  -1.264  0.00  0.00    -0.054 A 
ATOM     26  C   UNL     1      -7.771  -7.571  -2.072  0.00  0.00    +0.009 A 
ATOM     27  C   UNL     1      -8.847  -8.393  -2.025  0.00  0.00    +0.045 A 
ATOM     28  S   UNL     1      -8.339  -9.595  -0.804  0.00  0.00    -0.101 S 
ATOM     29  C   UNL     1      -5.411  -6.957  -1.238  0.00  0.00    -0.042 C 
ATOM     30  H   UNL     1      -5.246  -6.917   0.791  0.00  0.00    -0.081 HD
ENDBRANCH  20  21
ENDBRANCH  19  20
ENDBRANCH   3  19
TORSDOF 7
