REMARK  Name = ZINC63891572
REMARK  6 active torsions:
REMARK  status: ('A' for Active; 'I' for Inactive)
REMARK    1  A    between atoms: C_1  and  C_2
REMARK    2  A    between atoms: C_2  and  C_3
REMARK    3  A    between atoms: C_2  and  N_13
REMARK    4  A    between atoms: N_5  and  C_6
REMARK    5  A    between atoms: N_13  and  C_14
REMARK    6  A    between atoms: C_21  and  C_23
REMARK                            x       y       z     vdW  Elec       q    Type
REMARK                         _______ _______ _______ _____ _____    ______ ____
ROOT
ATOM      1  N   UNL     1       0.718  -0.439  -1.203  0.00  0.00    -0.333 N 
ATOM      2  H   UNL     1       1.662  -0.658  -1.164  0.00  0.00    +0.147 HD
ENDROOT
BRANCH   1   3
ATOM      3  C   UNL     1       0.021  -0.562  -2.408  0.00  0.00    +0.029 A 
ATOM      4  C   UNL     1      -1.335  -0.244  -2.475  0.00  0.00    +0.025 A 
ATOM      5  C   UNL     1      -2.036  -0.356  -3.634  0.00  0.00    +0.031 A 
ATOM      6  C   UNL     1      -1.411  -0.802  -4.822  0.00  0.00    +0.079 A 
ATOM      7  C   UNL     1      -0.036  -1.117  -4.726  0.00  0.00    +0.041 A 
ATOM      8  C   UNL     1       0.671  -0.998  -3.555  0.00  0.00    +0.040 A 
ATOM      9  S   UNL     1       0.351  -1.620  -6.386  0.00  0.00    -0.072 S 
ATOM     10  C   UNL     1      -1.282  -1.387  -7.075  0.00  0.00    +0.083 A 
ATOM     11  N   UNL     1      -1.962  -0.966  -6.045  0.00  0.00    -0.244 NA
BRANCH  10  12
ATOM     12  C   UNL     1      -1.752  -1.617  -8.488  0.00  0.00    +0.045 C 
ATOM     13  C   UNL     1      -3.161  -1.143  -8.850  0.00  0.00    +0.011 C 
ATOM     14  C   UNL     1      -2.871  -2.638  -8.703  0.00  0.00    +0.011 C 
ENDBRANCH  10  12
ENDBRANCH   1   3
BRANCH   1  16
ATOM     15  C   UNL     1       0.003   1.551   0.026  0.00  0.00    +0.038 C 
ATOM     16  C   UNL     1       0.023   0.022   0.002  0.00  0.00    +0.154 C 
BRANCH  16  17
ATOM     17  C   UNL     1       0.741  -0.491   1.224  0.00  0.00    +0.237 C 
ATOM     18  O   UNL     1       1.736  -1.173   1.100  0.00  0.00    -0.273 OA
ATOM     19  N   UNL     1       0.278  -0.191   2.453  0.00  0.00    -0.282 N 
ATOM     20  H   UNL     1      -0.481   0.406   2.553  0.00  0.00    +0.155 HD
BRANCH  19  21
ATOM     21  C   UNL     1       0.892  -0.739   3.586  0.00  0.00    +0.071 A 
ATOM     22  C   UNL     1       2.265  -0.967   3.604  0.00  0.00    +0.028 A 
ATOM     23  C   UNL     1       2.826  -1.512   4.747  0.00  0.00    +0.022 A 
ATOM     24  C   UNL     1       2.013  -1.809   5.825  0.00  0.00    +0.112 A 
ATOM     25  N   UNL     1       0.714  -1.581   5.777  0.00  0.00    -0.242 NA
ATOM     26  C   UNL     1       0.140  -1.058   4.710  0.00  0.00    +0.150 A 
ATOM     27 CL   UNL     1      -1.573  -0.774   4.709  0.00  0.00    -0.060 Cl
ENDBRANCH  19  21
ENDBRANCH  16  17
ENDBRANCH   1  16
TORSDOF 5
