REMARK  Name = ZINC08620874
REMARK  6 active torsions:
REMARK  status: ('A' for Active; 'I' for Inactive)
REMARK    1  A    between atoms: C_1  and  C_2
REMARK    2  A    between atoms: C_2  and  C_4
REMARK    3  A    between atoms: C_2  and  O_16
REMARK    4  A    between atoms: O_16  and  C_17
REMARK    5  A    between atoms: C_17  and  C_19
REMARK    6  A    between atoms: C_32  and  C_33
REMARK                            x       y       z     vdW  Elec       q    Type
REMARK                         _______ _______ _______ _____ _____    ______ ____
ROOT
ATOM      1  C   UNL     1      -3.735  -5.042  -2.689  0.00  0.00    +0.073 A 
ATOM      2  C   UNL     1      -2.838  -6.023  -3.300  0.00  0.00    +0.015 A 
ATOM      3  C   UNL     1      -1.662  -6.435  -2.667  0.00  0.00    +0.011 A 
ATOM      4  C   UNL     1      -0.858  -7.356  -3.272  0.00  0.00    +0.001 A 
ATOM      5  C   UNL     1      -1.197  -7.894  -4.511  0.00  0.00    +0.002 A 
ATOM      6  C   UNL     1      -2.337  -7.518  -5.152  0.00  0.00    +0.028 A 
ATOM      7  C   UNL     1      -3.192  -6.570  -4.559  0.00  0.00    +0.072 A 
ATOM      8  N   UNL     1      -4.313  -6.182  -5.163  0.00  0.00    -0.247 NA
ATOM      9  C   UNL     1      -5.147  -5.289  -4.636  0.00  0.00    +0.072 A 
ATOM     10  C   UNL     1      -4.881  -4.697  -3.389  0.00  0.00    -0.007 A 
ATOM     11  C   UNL     1      -5.986  -3.730  -3.040  0.00  0.00    +0.043 C 
ATOM     12  C   UNL     1      -6.982  -3.776  -4.206  0.00  0.00    +0.042 C 
ATOM     13  C   UNL     1      -6.412  -4.771  -5.186  0.00  0.00    -0.018 C 
ATOM     14  C   UNL     1      -6.965  -5.126  -6.364  0.00  0.00    +0.052 C 
ENDROOT
BRANCH  14  15
ATOM     15  C   UNL     1      -8.232  -4.528  -6.787  0.00  0.00    +0.128 A 
ATOM     16  C   UNL     1      -8.896  -4.792  -7.952  0.00  0.00    +0.049 A 
ATOM     17  C   UNL     1     -10.059  -4.003  -7.942  0.00  0.00    +0.042 A 
ATOM     18  C   UNL     1     -10.050  -3.296  -6.793  0.00  0.00    +0.195 A 
ATOM     19  O   UNL     1      -8.946  -3.615  -6.098  0.00  0.00    -0.464 OA
ENDBRANCH  14  15
BRANCH   1  20
ATOM     20  C   UNL     1      -3.428  -4.436  -1.376  0.00  0.00    +0.341 C 
ATOM     21  O   UNL     1      -3.828  -4.961  -0.357  0.00  0.00    -0.245 OA
BRANCH  20  22
ATOM     22  O   UNL     1      -2.704  -3.301  -1.311  0.00  0.00    -0.450 OA
BRANCH  22  24
ATOM     23  C   UNL     1      -3.561  -1.796   0.401  0.00  0.00    +0.060 C 
ATOM     24  C   UNL     1      -2.441  -2.763   0.012  0.00  0.00    +0.239 C 
BRANCH  24  25
ATOM     25  C   UNL     1      -1.125  -2.030   0.003  0.00  0.00    +0.151 A 
ATOM     26  N   UNL     1       0.020  -2.761  -0.012  0.00  0.00    -0.307 N 
ATOM     27  H   UNL     1      -0.028  -3.729  -0.017  0.00  0.00    +0.170 HD
ATOM     28  C   UNL     1       1.228  -2.150  -0.021  0.00  0.00    +0.259 A 
ATOM     29  O   UNL     1       2.262  -2.792  -0.034  0.00  0.00    -0.267 OA
ATOM     30  C   UNL     1       1.242  -0.679  -0.013  0.00  0.00    +0.065 A 
ATOM     31  C   UNL     1       2.432   0.046  -0.021  0.00  0.00    +0.015 A 
ATOM     32  C   UNL     1       2.388   1.423  -0.013  0.00  0.00    +0.001 A 
ATOM     33  C   UNL     1       1.170   2.090   0.002  0.00  0.00    +0.002 A 
ATOM     34  C   UNL     1      -0.017   1.392   0.010  0.00  0.00    +0.028 A 
ATOM     35  C   UNL     1       0.002  -0.004   0.002  0.00  0.00    +0.078 A 
ATOM     36  N   UNL     1      -1.143  -0.731   0.009  0.00  0.00    -0.230 NA
ENDBRANCH  24  25
ENDBRANCH  22  24
ENDBRANCH  20  22
ENDBRANCH   1  20
TORSDOF 5
