REMARK  Name = ZINC27104396
REMARK  8 active torsions:
REMARK  status: ('A' for Active; 'I' for Inactive)
REMARK    1  A    between atoms: C_1  and  C_2
REMARK    2  A    between atoms: C_2  and  N_3
REMARK    3  A    between atoms: C_4  and  C_27
REMARK    4  A    between atoms: C_7  and  S_8
REMARK    5  A    between atoms: S_8  and  C_9
REMARK    6  A    between atoms: C_9  and  C_11
REMARK    7  A    between atoms: C_9  and  C_12
REMARK    8  A    between atoms: N_14  and  C_15
REMARK                            x       y       z     vdW  Elec       q    Type
REMARK                         _______ _______ _______ _____ _____    ______ ____
ROOT
ATOM      1  S   UNL     1      -7.161  -1.263  -1.167  0.00  0.00    -0.075 S 
ENDROOT
BRANCH   1   6
ATOM      2  N   UNL     1      -4.657  -0.262  -0.470  0.00  0.00    -0.319 N 
ATOM      3  C   UNL     1      -3.449  -0.753  -0.005  0.00  0.00    +0.069 A 
ATOM      4  C   UNL     1      -3.603  -2.095   0.133  0.00  0.00    +0.140 A 
ATOM      5  N   UNL     1      -4.851  -2.414  -0.236  0.00  0.00    -0.230 NA
ATOM      6  C   UNL     1      -5.493  -1.329  -0.604  0.00  0.00    +0.170 A 
BRANCH   3   7
ATOM      7  C   UNL     1      -2.232   0.032   0.289  0.00  0.00    +0.004 A 
ATOM      8  C   UNL     1      -2.048   1.285  -0.297  0.00  0.00    +0.014 A 
ATOM      9  C   UNL     1      -0.909   2.013  -0.024  0.00  0.00    +0.050 A 
ATOM     10  C   UNL     1       0.055   1.507   0.838  0.00  0.00    +0.162 A 
ATOM     11  C   UNL     1      -0.123   0.259   1.427  0.00  0.00    +0.163 A 
ATOM     12  C   UNL     1      -1.262  -0.478   1.153  0.00  0.00    +0.059 A 
ATOM     13  O   UNL     1       0.812  -0.251   2.275  0.00  0.00    -0.485 OA
ATOM     14  C   UNL     1       2.112   0.347   2.233  0.00  0.00    +0.270 C 
ATOM     15  C   UNL     1       1.940   1.872   2.242  0.00  0.00    +0.270 C 
ATOM     16  O   UNL     1       1.172   2.243   1.092  0.00  0.00    -0.485 OA
ENDBRANCH   3   7
BRANCH   2  18
ATOM     17  C   UNL     1      -4.749   1.409  -2.254  0.00  0.00    +0.027 C 
ATOM     18  C   UNL     1      -4.975   1.138  -0.765  0.00  0.00    +0.121 C 
ENDBRANCH   2  18
ENDBRANCH   1   6
BRANCH   1  19
ATOM     19  C   UNL     1      -7.597  -3.017  -1.064  0.00  0.00    +0.137 C 
ATOM     20  C   UNL     1      -6.751  -3.812  -2.060  0.00  0.00    +0.029 C 
BRANCH  19  21
ATOM     21  C   UNL     1      -9.057  -3.192  -1.392  0.00  0.00    +0.230 C 
ATOM     22  O   UNL     1      -9.626  -2.373  -2.084  0.00  0.00    -0.274 OA
ATOM     23  N   UNL     1      -9.732  -4.257  -0.917  0.00  0.00    -0.285 N 
ATOM     24  H   UNL     1      -9.239  -4.958  -0.228  0.00  0.00    +0.155 HD
BRANCH  23  25
ATOM     25  C   UNL     1     -11.062  -4.472  -1.301  0.00  0.00    +0.035 A 
ATOM     26  C   UNL     1     -11.529  -5.768  -1.491  0.00  0.00    +0.025 A 
ATOM     27  C   UNL     1     -12.840  -5.986  -1.863  0.00  0.00    +0.029 A 
ATOM     28  C   UNL     1     -13.692  -4.910  -2.060  0.00  0.00    +0.067 A 
ATOM     29  C   UNL     1     -13.225  -3.607  -1.875  0.00  0.00    +0.069 A 
ATOM     30  C   UNL     1     -11.909  -3.391  -1.495  0.00  0.00    +0.051 A 
ATOM     31  N   UNL     1     -14.294  -2.755  -2.141  0.00  0.00    -0.306 N 
ATOM     32  H   UNL     1     -14.162  -1.666  -2.060  0.00  0.00    +0.170 HD
ATOM     33  C   UNL     1     -15.362  -3.503  -2.473  0.00  0.00    +0.325 A 
ATOM     34  O   UNL     1     -16.460  -3.067  -2.764  0.00  0.00    -0.247 OA
ATOM     35  N   UNL     1     -15.032  -4.808  -2.433  0.00  0.00    -0.306 N 
ATOM     36  H   UNL     1     -15.617  -5.717  -2.635  0.00  0.00    +0.170 HD
ENDBRANCH  23  25
ENDBRANCH  19  21
ENDBRANCH   1  19
TORSDOF 6
