REMARK  Name = ZINC17142480
REMARK  8 active torsions:
REMARK  status: ('A' for Active; 'I' for Inactive)
REMARK    1  A    between atoms: C_1  and  C_2
REMARK    2  A    between atoms: C_5  and  N_9
REMARK    3  A    between atoms: C_6  and  C_8
REMARK    4  A    between atoms: C_10  and  C_12
REMARK    5  A    between atoms: C_20  and  N_23
REMARK    6  A    between atoms: C_21  and  O_22
REMARK    7  A    between atoms: N_24  and  C_25
REMARK    8  A    between atoms: C_30  and  O_31
REMARK                            x       y       z     vdW  Elec       q    Type
REMARK                         _______ _______ _______ _____ _____    ______ ____
ROOT
ATOM      1  C   UNL     1      -0.132  -6.311  -1.187  0.00  0.00    +0.081 A 
ATOM      2  C   UNL     1      -0.121  -6.992   0.018  0.00  0.00    +0.025 A 
ATOM      3  C   UNL     1      -0.207  -8.392   0.048  0.00  0.00    -0.015 A 
ATOM      4  C   UNL     1      -0.196  -9.094   1.268  0.00  0.00    +0.008 A 
ATOM      5  C   UNL     1      -0.281 -10.453   1.264  0.00  0.00    +0.001 A 
ATOM      6  C   UNL     1      -0.378 -11.161   0.069  0.00  0.00    +0.001 A 
ATOM      7  C   UNL     1      -0.391 -10.513  -1.131  0.00  0.00    +0.011 A 
ATOM      8  C   UNL     1      -0.307  -9.116  -1.166  0.00  0.00    +0.013 A 
ATOM      9  C   UNL     1      -0.318  -8.388  -2.434  0.00  0.00    +0.136 A 
ATOM     10  C   UNL     1      -0.235  -6.996  -2.412  0.00  0.00    +0.157 A 
ENDROOT
BRANCH   1  12
ATOM     11  N   UNL     1       0.059  -4.169  -0.021  0.00  0.00    -0.281 N 
ATOM     12  C   UNL     1      -0.040  -4.838  -1.187  0.00  0.00    +0.252 C 
ATOM     13  O   UNL     1      -0.054  -4.228  -2.239  0.00  0.00    -0.270 OA
ATOM     14  H   UNL     1       0.136  -4.658   0.814  0.00  0.00    +0.155 HD
BRANCH  11  19
ATOM     15  C   UNL     1       0.023   1.503   0.006  0.00  0.00    +0.044 C 
ATOM     16  C   UNL     1       0.033  -0.004  -0.001  0.00  0.00    -0.050 A 
ATOM     17  C   UNL     1       0.630  -0.685  -1.046  0.00  0.00    +0.005 A 
ATOM     18  C   UNL     1       0.641  -2.066  -1.056  0.00  0.00    +0.024 A 
ATOM     19  C   UNL     1       0.050  -2.771  -0.014  0.00  0.00    +0.037 A 
ATOM     20  C   UNL     1      -0.549  -2.083   1.033  0.00  0.00    -0.029 A 
ATOM     21  C   UNL     1      -0.551  -0.702   1.039  0.00  0.00    +0.008 A 
ATOM     22  C   UNL     1      -1.191  -2.844   2.165  0.00  0.00    +0.045 C 
ENDBRANCH  11  19
ENDBRANCH   1  12
BRANCH  10  23
ATOM     23  O   UNL     1      -0.248  -6.300  -3.575  0.00  0.00    -0.504 OA
ATOM     24  H   UNL     1       0.628  -6.154  -3.956  0.00  0.00    +0.292 HD
ENDBRANCH  10  23
BRANCH   9  25
ATOM     25  N   UNL     1      -0.413  -9.056  -3.614  0.00  0.00    -0.145 NA
ATOM     26  N   UNL     1      -0.422  -8.403  -4.726  0.00  0.00    -0.145 NA
BRANCH  26  27
ATOM     27  C   UNL     1      -0.517  -9.074  -5.911  0.00  0.00    +0.127 A 
ATOM     28  C   UNL     1      -0.610 -10.469  -5.924  0.00  0.00    +0.033 A 
ATOM     29  C   UNL     1      -0.705 -11.140  -7.124  0.00  0.00    +0.002 A 
ATOM     30  C   UNL     1      -0.709 -10.438  -8.318  0.00  0.00    +0.004 A 
ATOM     31  C   UNL     1      -0.617  -9.060  -8.320  0.00  0.00    +0.047 A 
ATOM     32  C   UNL     1      -0.527  -8.368  -7.123  0.00  0.00    +0.144 A 
BRANCH  32  33
ATOM     33  O   UNL     1      -0.443  -7.013  -7.123  0.00  0.00    -0.505 OA
ATOM     34  H   UNL     1       0.463  -6.675  -7.163  0.00  0.00    +0.292 HD
ENDBRANCH  32  33
ENDBRANCH  26  27
ENDBRANCH   9  25
TORSDOF 6
