REMARK  Name = ZINC59476984
REMARK  6 active torsions:
REMARK  status: ('A' for Active; 'I' for Inactive)
REMARK    1  A    between atoms: C_1  and  C_2
REMARK    2  A    between atoms: C_2  and  C_3
REMARK    3  A    between atoms: C_6  and  C_9
REMARK    4  A    between atoms: C_13  and  N_18
REMARK    5  A    between atoms: C_19  and  C_20
REMARK    6  A    between atoms: C_25  and  O_26
REMARK                            x       y       z     vdW  Elec       q    Type
REMARK                         _______ _______ _______ _____ _____    ______ ____
ROOT
ATOM      1  C   UNL     1       2.785  -1.911   4.664  0.00  0.00    +0.228 A 
ATOM      2  N   UNL     1       2.223  -2.184   5.813  0.00  0.00    -0.209 NA
ATOM      3  C   UNL     1       3.181  -2.608   6.678  0.00  0.00    +0.112 A 
ATOM      4  C   UNL     1       3.157  -3.024   8.010  0.00  0.00    +0.059 A 
ATOM      5  C   UNL     1       4.341  -3.406   8.631  0.00  0.00    +0.066 A 
ATOM      6  C   UNL     1       5.549  -3.373   7.922  0.00  0.00    +0.031 A 
ATOM      7  C   UNL     1       5.574  -2.963   6.609  0.00  0.00    +0.050 A 
ATOM      8  C   UNL     1       4.398  -2.579   5.977  0.00  0.00    +0.156 A 
ATOM      9  O   UNL     1       4.109  -2.146   4.729  0.00  0.00    -0.435 OA
ENDROOT
BRANCH   1  13
ATOM     10  C   UNL     1       0.731  -0.503   1.223  0.00  0.00    -0.048 A 
ATOM     11  C   UNL     1       2.098  -0.709   1.173  0.00  0.00    +0.004 A 
ATOM     12  C   UNL     1       2.772  -1.166   2.287  0.00  0.00    +0.013 A 
ATOM     13  C   UNL     1       2.070  -1.421   3.466  0.00  0.00    +0.037 A 
ATOM     14  C   UNL     1       0.691  -1.211   3.510  0.00  0.00    +0.013 A 
ATOM     15  C   UNL     1       0.031  -0.749   2.391  0.00  0.00    +0.004 A 
BRANCH  10  17
ATOM     16  C   UNL     1      -0.019   1.526   0.010  0.00  0.00    +0.009 C 
ATOM     17  C   UNL     1       0.002  -0.004   0.002  0.00  0.00    +0.032 C 
ENDBRANCH  10  17
ENDBRANCH   1  13
BRANCH   5  18
ATOM     18  N   UNL     1       4.327  -3.814   9.938  0.00  0.00    -0.255 NA
ATOM     19  C   UNL     1       4.990  -4.878  10.296  0.00  0.00    +0.123 C 
BRANCH  19  20
ATOM     20  C   UNL     1       4.975  -5.317  11.699  0.00  0.00    +0.037 A 
ATOM     21  C   UNL     1       5.690  -6.454  12.088  0.00  0.00    +0.028 A 
ATOM     22  C   UNL     1       5.671  -6.859  13.406  0.00  0.00    +0.020 A 
ATOM     23  C   UNL     1       4.946  -6.146  14.347  0.00  0.00    +0.034 A 
ATOM     24  C   UNL     1       4.235  -5.021  13.976  0.00  0.00    +0.061 A 
ATOM     25  C   UNL     1       4.247  -4.594  12.656  0.00  0.00    +0.139 A 
ATOM     26 BR   UNL     1       3.249  -4.057  15.270  0.00  0.00    -0.046 Br
ATOM     27 BR   UNL     1       6.639  -8.397  13.931  0.00  0.00    -0.050 Br
BRANCH  25  28
ATOM     28  O   UNL     1       3.553  -3.486  12.291  0.00  0.00    -0.505 OA
ATOM     29  H   UNL     1       2.642  -3.664  12.022  0.00  0.00    +0.292 HD
ENDBRANCH  25  28
ENDBRANCH  19  20
ENDBRANCH   5  18
TORSDOF 5
