REMARK  Name = ZINC20503091
REMARK  7 active torsions:
REMARK  status: ('A' for Active; 'I' for Inactive)
REMARK    1  A    between atoms: C_1  and  C_2
REMARK    2  A    between atoms: C_12  and  C_14
REMARK    3  A    between atoms: N_21  and  C_22
REMARK    4  A    between atoms: C_22  and  C_23
REMARK    5  A    between atoms: C_23  and  C_24
REMARK    6  A    between atoms: C_31  and  O_34
REMARK    7  A    between atoms: O_34  and  C_35
REMARK                            x       y       z     vdW  Elec       q    Type
REMARK                         _______ _______ _______ _____ _____    ______ ____
ROOT
ATOM      1  C   UNL     1     -10.483   3.155   4.494  0.00  0.00    +0.066 C 
ATOM      2  C   UNL     1      -9.075   2.646   4.668  0.00  0.00    +0.047 C 
ATOM      3  C   UNL     1      -8.473   2.716   5.890  0.00  0.00    +0.091 C 
ATOM      4  C   UNL     1      -7.159   2.229   6.033  0.00  0.00    +0.249 C 
ATOM      5  O   UNL     1      -6.586   2.286   7.109  0.00  0.00    -0.270 OA
ATOM      6  N   UNL     1      -6.552   1.701   4.956  0.00  0.00    -0.211 N 
ATOM      7  C   UNL     1      -7.198   1.675   3.753  0.00  0.00    +0.229 C 
ATOM      8  N   UNL     1      -8.423   2.128   3.627  0.00  0.00    -0.219 NA
ATOM      9  N   UNL     1      -6.503   1.154   2.678  0.00  0.00    -0.183 NA
ATOM     10  C   UNL     1      -5.135   1.405   2.653  0.00  0.00    +0.194 C 
ATOM     11  N   UNL     1      -4.485   1.410   3.788  0.00  0.00    -0.335 N 
ATOM     12  C   UNL     1      -5.204   1.130   5.038  0.00  0.00    +0.211 C 
ATOM     13  N   UNL     1      -4.482   1.637   1.466  0.00  0.00    -0.315 N 
ATOM     14  H   UNL     1      -5.042   1.625   0.519  0.00  0.00    +0.149 HD
ATOM     15  H   UNL     1      -3.406   1.623   3.803  0.00  0.00    +0.164 HD
ENDROOT
BRANCH  12  16
ATOM     16  C   UNL     1      -5.298  -0.360   5.237  0.00  0.00    -0.007 A 
ATOM     17  C   UNL     1      -6.377  -0.900   5.913  0.00  0.00    +0.009 A 
ATOM     18  C   UNL     1      -6.467  -2.268   6.091  0.00  0.00    +0.020 A 
ATOM     19  C   UNL     1      -5.472  -3.096   5.602  0.00  0.00    +0.041 A 
ATOM     20  C   UNL     1      -4.391  -2.554   4.930  0.00  0.00    +0.020 A 
ATOM     21  C   UNL     1      -4.304  -1.187   4.748  0.00  0.00    +0.009 A 
ATOM     22 CL   UNL     1      -5.582  -4.813   5.830  0.00  0.00    -0.084 Cl
ENDBRANCH  12  16
BRANCH  13  23
ATOM     23  C   UNL     1      -3.041   1.901   1.462  0.00  0.00    +0.109 C 
BRANCH  23  24
ATOM     24  C   UNL     1      -2.568   2.124   0.024  0.00  0.00    +0.056 C 
BRANCH  24  25
ATOM     25  C   UNL     1      -1.085   2.394   0.019  0.00  0.00    -0.021 A 
ATOM     26  C   UNL     1      -0.494   3.599   0.025  0.00  0.00    +0.087 A 
ATOM     27  N   UNL     1       0.866   3.452   0.012  0.00  0.00    -0.360 N 
ATOM     28  H   UNL     1       1.516   4.340   0.010  0.00  0.00    +0.165 HD
ATOM     29  C   UNL     1       1.192   2.112   0.002  0.00  0.00    +0.047 A 
ATOM     30  C   UNL     1      -0.017   1.392   0.010  0.00  0.00    +0.006 A 
ATOM     31  C   UNL     1       0.002  -0.004   0.002  0.00  0.00    +0.056 A 
ATOM     32  C   UNL     1       1.212  -0.670  -0.013  0.00  0.00    +0.121 A 
ATOM     33  C   UNL     1       2.406   0.045  -0.021  0.00  0.00    +0.047 A 
ATOM     34  C   UNL     1       2.399   1.423  -0.013  0.00  0.00    +0.030 A 
BRANCH  32  35
ATOM     35  O   UNL     1       1.236  -2.029  -0.021  0.00  0.00    -0.495 OA
ATOM     36  C   UNL     1       2.521  -2.655  -0.037  0.00  0.00    +0.277 C 
ENDBRANCH  32  35
ENDBRANCH  24  25
ENDBRANCH  23  24
ENDBRANCH  13  23
TORSDOF 5
