REMARK  Name = ZINC63572676
REMARK  3 active torsions:
REMARK  status: ('A' for Active; 'I' for Inactive)
REMARK    1  A    between atoms: C_6  and  C_7
REMARK    2  A    between atoms: C_7  and  N_8
REMARK    3  A    between atoms: C_24  and  C_26
REMARK                            x       y       z     vdW  Elec       q    Type
REMARK                         _______ _______ _______ _____ _____    ______ ____
ROOT
ATOM      1  N   UNL     1      -1.497  -1.075  -1.759  0.00  0.00    -0.295 N 
ATOM      2  C   UNL     1      -2.692  -1.694  -1.839  0.00  0.00    +0.303 C 
ATOM      3  O   UNL     1      -3.253  -2.064  -0.826  0.00  0.00    -0.253 OA
ATOM      4  N   UNL     1      -3.264  -1.902  -3.041  0.00  0.00    -0.276 N 
ATOM      5  C   UNL     1      -2.528  -1.564  -4.263  0.00  0.00    +0.114 C 
ATOM      6  C   UNL     1      -2.400  -2.817  -5.148  0.00  0.00    +0.052 C 
ATOM      7  C   UNL     1      -3.761  -3.468  -5.176  0.00  0.00    -0.035 C 
ATOM      8  C   UNL     1      -4.525  -3.863  -6.187  0.00  0.00    +0.001 A 
ATOM      9  C   UNL     1      -4.281  -3.913  -7.637  0.00  0.00    +0.030 A 
ATOM     10  C   UNL     1      -5.310  -4.364  -8.403  0.00  0.00    +0.042 A 
ATOM     11  C   UNL     1      -6.543  -4.766  -7.876  0.00  0.00    +0.022 A 
ATOM     12  C   UNL     1      -6.850  -4.761  -6.555  0.00  0.00    +0.027 A 
ATOM     13  C   UNL     1      -5.845  -4.314  -5.649  0.00  0.00    +0.043 A 
ATOM     14  N   UNL     1      -5.859  -4.229  -4.351  0.00  0.00    -0.375 N 
ATOM     15  C   UNL     1      -4.542  -3.776  -3.904  0.00  0.00    +0.131 C 
ATOM     16  C   UNL     1      -4.619  -2.472  -3.113  0.00  0.00    +0.134 C 
ATOM     17 CL   UNL     1      -5.084  -4.446 -10.122  0.00  0.00    -0.084 Cl
ATOM     18  H   UNL     1      -1.016  -0.844  -2.569  0.00  0.00    +0.151 HD
ATOM     19  H   UNL     1      -6.615  -4.431  -3.778  0.00  0.00    +0.160 HD
ENDROOT
BRANCH  16  20
ATOM     20  C   UNL     1      -5.541  -1.508  -3.814  0.00  0.00    -0.025 A 
ATOM     21  C   UNL     1      -6.681  -1.056  -3.177  0.00  0.00    +0.008 A 
ATOM     22  C   UNL     1      -7.528  -0.172  -3.819  0.00  0.00    +0.038 A 
ATOM     23  C   UNL     1      -7.233   0.261  -5.101  0.00  0.00    +0.123 A 
ATOM     24  C   UNL     1      -6.091  -0.193  -5.738  0.00  0.00    +0.038 A 
ATOM     25  C   UNL     1      -5.244  -1.073  -5.092  0.00  0.00    +0.008 A 
ATOM     26  F   UNL     1      -8.060   1.125  -5.729  0.00  0.00    -0.205 F 
ENDBRANCH  16  20
BRANCH   1  27
ATOM     27  C   UNL     1      -0.926  -0.751  -0.450  0.00  0.00    +0.141 C 
BRANCH  27  33
ATOM     28  C   UNL     1       0.465   1.309  -0.746  0.00  0.00    +0.008 A 
ATOM     29  C   UNL     1       1.684   1.936  -0.918  0.00  0.00    +0.038 A 
ATOM     30  C   UNL     1       2.845   1.185  -0.981  0.00  0.00    +0.123 A 
ATOM     31  C   UNL     1       2.784  -0.194  -0.871  0.00  0.00    +0.038 A 
ATOM     32  C   UNL     1       1.564  -0.819  -0.699  0.00  0.00    +0.008 A 
ATOM     33  C   UNL     1       0.404  -0.068  -0.637  0.00  0.00    -0.030 A 
ATOM     34  F   UNL     1       4.038   1.798  -1.149  0.00  0.00    -0.205 F 
ENDBRANCH  27  33
ENDBRANCH   1  27
TORSDOF 3
