REMARK  Name = ZINC09938324
REMARK  4 active torsions:
REMARK  status: ('A' for Active; 'I' for Inactive)
REMARK    1  A    between atoms: C_1  and  C_2
REMARK    2  A    between atoms: C_5  and  C_8
REMARK    3  A    between atoms: C_14  and  C_32
REMARK    4  A    between atoms: N_15  and  C_18
REMARK                            x       y       z     vdW  Elec       q    Type
REMARK                         _______ _______ _______ _____ _____    ______ ____
ROOT
ATOM      1  C   UNL     1      -3.260   2.840  -1.603  0.00  0.00    +0.255 C 
ATOM      2  O   UNL     1      -3.090   2.659  -2.793  0.00  0.00    -0.269 OA
ATOM      3  N   UNL     1      -3.059   4.062  -1.073  0.00  0.00    -0.214 N 
ATOM      4  C   UNL     1      -3.087   4.247   0.388  0.00  0.00    +0.125 C 
ATOM      5  C   UNL     1      -3.750   5.605   0.671  0.00  0.00    +0.097 C 
ATOM      6  C   UNL     1      -2.865   6.677   0.017  0.00  0.00    +0.185 C 
ATOM      7  N   UNL     1      -2.694   6.364  -1.399  0.00  0.00    -0.216 N 
ATOM      8  C   UNL     1      -2.833   5.117  -1.874  0.00  0.00    +0.319 C 
ATOM      9  O   UNL     1      -2.750   4.934  -3.073  0.00  0.00    -0.251 OA
ATOM     10  O   UNL     1      -1.609   6.703   0.687  0.00  0.00    -0.468 OA
ATOM     11  C   UNL     1      -0.996   5.526   0.974  0.00  0.00    +0.128 A 
ATOM     12  C   UNL     1      -1.652   4.313   0.861  0.00  0.00    +0.015 A 
ATOM     13  C   UNL     1      -0.996   3.136   1.175  0.00  0.00    +0.009 A 
ATOM     14  C   UNL     1       0.317   3.167   1.607  0.00  0.00    +0.001 A 
ATOM     15  C   UNL     1       0.979   4.376   1.716  0.00  0.00    +0.004 A 
ATOM     16  C   UNL     1       0.328   5.552   1.402  0.00  0.00    +0.046 A 
ATOM     17  C   UNL     1      -3.545   8.041   0.157  0.00  0.00    +0.079 C 
ENDROOT
BRANCH   1  22
ATOM     18  C   UNL     1      -4.922  -1.522   1.762  0.00  0.00    +0.044 C 
ATOM     19  C   UNL     1      -4.487  -0.379   0.881  0.00  0.00    -0.050 A 
ATOM     20  C   UNL     1      -4.819  -0.381  -0.463  0.00  0.00    +0.004 A 
ATOM     21  C   UNL     1      -4.424   0.662  -1.275  0.00  0.00    +0.013 A 
ATOM     22  C   UNL     1      -3.687   1.720  -0.739  0.00  0.00    +0.037 A 
ATOM     23  C   UNL     1      -3.351   1.712   0.616  0.00  0.00    +0.013 A 
ATOM     24  C   UNL     1      -3.757   0.666   1.418  0.00  0.00    +0.004 A 
ENDBRANCH   1  22
BRANCH   7  25
ATOM     25  C   UNL     1      -2.376   7.397  -2.288  0.00  0.00    +0.042 A 
ATOM     26  C   UNL     1      -1.054   7.787  -2.456  0.00  0.00    +0.025 A 
ATOM     27  C   UNL     1      -0.742   8.803  -3.338  0.00  0.00    +0.022 A 
ATOM     28  C   UNL     1      -1.746   9.439  -4.047  0.00  0.00    +0.041 A 
ATOM     29  C   UNL     1      -3.065   9.055  -3.877  0.00  0.00    +0.022 A 
ATOM     30  C   UNL     1      -3.382   8.036  -3.000  0.00  0.00    +0.025 A 
ATOM     31 CL   UNL     1      -1.351  10.720  -5.149  0.00  0.00    -0.084 Cl
ENDBRANCH   7  25
TORSDOF 2
