REMARK  Name = ZINC64698039
REMARK  7 active torsions:
REMARK  status: ('A' for Active; 'I' for Inactive)
REMARK    1  A    between atoms: C_7  and  C_10
REMARK    2  A    between atoms: C_10  and  C_11
REMARK    3  A    between atoms: C_11  and  N_12
REMARK    4  A    between atoms: C_13  and  C_15
REMARK    5  A    between atoms: C_15  and  N_16
REMARK    6  A    between atoms: N_19  and  C_22
REMARK    7  A    between atoms: C_22  and  C_23
REMARK                            x       y       z     vdW  Elec       q    Type
REMARK                         _______ _______ _______ _____ _____    ______ ____
ROOT
ATOM      1  N   UNL     1      -0.458  -4.798  -1.460  0.00  0.00    -0.314 N 
ATOM      2  C   UNL     1      -0.811  -5.380  -2.623  0.00  0.00    +0.227 C 
ATOM      3  O   UNL     1      -0.371  -4.957  -3.671  0.00  0.00    -0.274 OA
ATOM      4  H   UNL     1      -0.810  -5.136  -0.622  0.00  0.00    +0.149 HD
ENDROOT
BRANCH   1   5
ATOM      5  C   UNL     1       0.457  -3.653  -1.462  0.00  0.00    +0.108 C 
BRANCH   5   6
ATOM      6  C   UNL     1       0.691  -3.186  -0.024  0.00  0.00    +0.052 C 
BRANCH   6  13
ATOM      7  C   UNL     1      -0.016   1.348   0.009  0.00  0.00    +0.001 A 
ATOM      8  C   UNL     1       1.166   2.101   0.002  0.00  0.00    +0.002 A 
ATOM      9  C   UNL     1       2.391   1.535  -0.013  0.00  0.00    +0.026 A 
ATOM     10  C   UNL     1       2.529   0.120  -0.022  0.00  0.00    +0.043 A 
ATOM     11  N   UNL     1       3.587  -0.654  -0.037  0.00  0.00    -0.380 N 
ATOM     12  C   UNL     1       3.143  -2.053  -0.041  0.00  0.00    +0.144 C 
ATOM     13  C   UNL     1       1.631  -2.008  -0.025  0.00  0.00    -0.040 C 
ATOM     14  C   UNL     1       1.295  -0.698  -0.014  0.00  0.00    -0.001 A 
ATOM     15  C   UNL     1       0.002  -0.004   0.002  0.00  0.00    +0.010 A 
ATOM     16  H   UNL     1       4.509  -0.353  -0.045  0.00  0.00    +0.160 HD
ENDBRANCH   6  13
ENDBRANCH   5   6
ENDBRANCH   1   5
BRANCH   2  17
ATOM     17  C   UNL     1      -1.752  -6.557  -2.622  0.00  0.00    +0.180 C 
BRANCH  17  18
ATOM     18  N   UNL     1      -1.976  -7.006  -4.002  0.00  0.00    -0.298 NA
ATOM     19  C   UNL     1      -2.700  -5.988  -4.776  0.00  0.00    +0.066 C 
ATOM     20  C   UNL     1      -2.861  -6.468  -6.220  0.00  0.00    -0.063 C 
ATOM     21  N   UNL     1      -3.601  -7.737  -6.235  0.00  0.00    +0.384 N 
ATOM     22  C   UNL     1      -2.854  -8.751  -5.479  0.00  0.00    -0.063 C 
ATOM     23  C   UNL     1      -2.693  -8.289  -4.029  0.00  0.00    +0.066 C 
ATOM     24  H   UNL     1      -4.508  -7.602  -5.812  0.00  0.00    -0.081 HD
BRANCH  21  25
ATOM     25  C   UNL     1      -3.771  -8.188  -7.622  0.00  0.00    -0.042 C 
BRANCH  25  26
ATOM     26  C   UNL     1      -4.635  -9.423  -7.647  0.00  0.00    -0.057 A 
ATOM     27  C   UNL     1      -4.066 -10.679  -7.551  0.00  0.00    +0.009 A 
ATOM     28  C   UNL     1      -4.871 -11.769  -7.576  0.00  0.00    +0.045 A 
ATOM     29  S   UNL     1      -6.488 -11.030  -7.740  0.00  0.00    -0.105 S 
ATOM     30  C   UNL     1      -5.982  -9.318  -7.758  0.00  0.00    +0.047 A 
ENDBRANCH  25  26
ENDBRANCH  21  25
ENDBRANCH  17  18
ENDBRANCH   2  17
TORSDOF 7
