REMARK  Name = ZINC15636883
REMARK  4 active torsions:
REMARK  status: ('A' for Active; 'I' for Inactive)
REMARK    1  A    between atoms: C_3  and  N_27
REMARK    2  A    between atoms: C_6  and  C_7
REMARK    3  A    between atoms: N_11  and  C_12
REMARK    4  A    between atoms: N_19  and  C_20
REMARK                            x       y       z     vdW  Elec       q    Type
REMARK                         _______ _______ _______ _____ _____    ______ ____
ROOT
ATOM      1  C   UNL     1      -3.576   3.161  -0.038  0.00  0.00    +0.063 A 
ATOM      2  C   UNL     1      -4.761   3.910  -0.203  0.00  0.00    +0.075 A 
ATOM      3  S   UNL     1      -4.206   5.538   0.031  0.00  0.00    -0.059 S 
ATOM      4  C   UNL     1      -2.485   5.179   0.337  0.00  0.00    +0.157 A 
ATOM      5  N   UNL     1      -1.497   6.016   0.593  0.00  0.00    -0.335 N 
ATOM      6  N   UNL     1      -2.451   3.808   0.236  0.00  0.00    -0.289 N 
ATOM      7  H   UNL     1      -0.467   5.641   0.678  0.00  0.00    +0.168 HD
ENDROOT
BRANCH   5   8
ATOM      8  C   UNL     1      -1.750   7.326   0.750  0.00  0.00    +0.041 A 
ATOM      9  C   UNL     1      -1.813   8.176  -0.371  0.00  0.00    +0.027 A 
ATOM     10  C   UNL     1      -2.077   9.505  -0.201  0.00  0.00    +0.022 A 
ATOM     11  C   UNL     1      -2.271  10.021   1.074  0.00  0.00    +0.041 A 
ATOM     12  C   UNL     1      -2.205   9.193   2.188  0.00  0.00    +0.022 A 
ATOM     13  C   UNL     1      -1.949   7.860   2.039  0.00  0.00    +0.027 A 
ATOM     14 CL   UNL     1      -2.598  11.714   1.278  0.00  0.00    -0.084 Cl
ENDBRANCH   5   8
BRANCH   6  15
ATOM     15  C   UNL     1      -1.256   3.112   0.413  0.00  0.00    +0.049 A 
ATOM     16  C   UNL     1      -0.106   3.518  -0.257  0.00  0.00    +0.027 A 
ATOM     17  C   UNL     1       1.073   2.824  -0.083  0.00  0.00    +0.022 A 
ATOM     18  C   UNL     1       1.117   1.730   0.765  0.00  0.00    +0.041 A 
ATOM     19  C   UNL     1      -0.025   1.326   1.438  0.00  0.00    +0.022 A 
ATOM     20  C   UNL     1      -1.209   2.013   1.265  0.00  0.00    +0.027 A 
ATOM     21 CL   UNL     1       2.605   0.864   0.986  0.00  0.00    -0.084 Cl
ENDBRANCH   6  15
BRANCH   1  27
ATOM     22  C   UNL     1      -2.587   1.041  -0.889  0.00  0.00    +0.012 A 
ATOM     23  C   UNL     1      -2.604  -0.333  -0.994  0.00  0.00    +0.033 A 
ATOM     24  C   UNL     1      -3.616  -1.065  -0.395  0.00  0.00    +0.126 A 
ATOM     25  C   UNL     1      -4.615  -0.425   0.321  0.00  0.00    +0.033 A 
ATOM     26  C   UNL     1      -4.610   0.948   0.442  0.00  0.00    +0.012 A 
ATOM     27  C   UNL     1      -3.590   1.696  -0.162  0.00  0.00    -0.000 A 
BRANCH  24  28
ATOM     28  N   UNL     1      -3.629  -2.540  -0.518  0.00  0.00    +0.056 N 
ATOM     29  O   UNL     1      -4.589  -3.240   0.051  0.00  0.00    -0.126 OA
ATOM     30  O   UNL     1      -2.682  -3.152  -1.198  0.00  0.00    -0.126 OA
ENDBRANCH  24  28
ENDBRANCH   1  27
TORSDOF 4
