REMARK  Name = ZINC15967486
REMARK  7 active torsions:
REMARK  status: ('A' for Active; 'I' for Inactive)
REMARK    1  A    between atoms: C_1  and  C_2
REMARK    2  A    between atoms: C_4  and  C_36
REMARK    3  A    between atoms: C_13  and  C_16
REMARK    4  A    between atoms: C_16  and  C_17
REMARK    5  A    between atoms: N_22  and  C_25
REMARK    6  A    between atoms: C_25  and  C_26
REMARK    7  A    between atoms: C_26  and  C_27
REMARK                            x       y       z     vdW  Elec       q    Type
REMARK                         _______ _______ _______ _____ _____    ______ ____
ROOT
ATOM      1  C   UNL     1      -0.018   1.503   0.010  0.00  0.00    +0.044 C 
ATOM      2  C   UNL     1       0.002  -0.004   0.002  0.00  0.00    -0.050 A 
ATOM      3  C   UNL     1       0.006  -0.691  -1.199  0.00  0.00    +0.008 A 
ATOM      4  C   UNL     1       0.025  -2.070  -1.212  0.00  0.00    -0.029 A 
ATOM      5  C   UNL     1       0.041  -2.782  -0.015  0.00  0.00    +0.042 A 
ATOM      6  C   UNL     1       0.036  -2.081   1.187  0.00  0.00    +0.004 A 
ATOM      7  C   UNL     1       0.023  -0.704   1.195  0.00  0.00    +0.011 A 
ATOM      8  C   UNL     1       0.055  -3.122   2.269  0.00  0.00    +0.136 C 
ATOM      9  C   UNL     1      -1.169  -3.004   3.186  0.00  0.00    +0.122 C 
ATOM     10  C   UNL     1      -0.655  -2.220   4.426  0.00  0.00    +0.107 C 
ATOM     11  C   UNL     1       0.825  -1.915   4.116  0.00  0.00    +0.076 C 
ATOM     12  N   UNL     1       1.232  -2.974   3.145  0.00  0.00    -0.295 NA
ATOM     13  C   UNL     1      -0.749  -3.233   5.543  0.00  0.00    +0.227 C 
ATOM     14  O   UNL     1      -0.432  -3.035   6.697  0.00  0.00    -0.275 OA
ATOM     15  N   UNL     1      -1.236  -4.383   5.062  0.00  0.00    -0.241 N 
ATOM     16  C   UNL     1      -1.520  -4.367   3.739  0.00  0.00    +0.228 C 
ATOM     17  O   UNL     1      -1.979  -5.287   3.096  0.00  0.00    -0.275 OA
ATOM     18  C   UNL     1       0.072  -4.440   1.545  0.00  0.00    +0.243 C 
ATOM     19  O   UNL     1       0.091  -5.543   2.048  0.00  0.00    -0.273 OA
ATOM     20  N   UNL     1       0.061  -4.157   0.228  0.00  0.00    -0.283 N 
ATOM     21  C   UNL     1       0.028  -2.808  -2.526  0.00  0.00    +0.045 C 
ATOM     22  H   UNL     1       1.448  -3.842   3.611  0.00  0.00    +0.124 HD
ATOM     23  H   UNL     1       0.067  -4.830  -0.471  0.00  0.00    +0.155 HD
ENDROOT
BRANCH  11  24
ATOM     24  C   UNL     1       1.669  -2.025   5.388  0.00  0.00    +0.115 C 
BRANCH  24  25
ATOM     25  C   UNL     1       3.085  -1.605   5.090  0.00  0.00    +0.212 C 
ATOM     26  O   UNL     1       3.390  -1.252   3.970  0.00  0.00    -0.276 OA
ATOM     27  N   UNL     1       4.013  -1.622   6.067  0.00  0.00    -0.329 N 
ATOM     28  H   UNL     1       3.769  -1.904   6.963  0.00  0.00    +0.145 HD
ATOM     29  H   UNL     1       4.924  -1.351   5.876  0.00  0.00    +0.145 HD
ENDBRANCH  24  25
ENDBRANCH  11  24
BRANCH  15  30
ATOM     30  C   UNL     1      -1.452  -5.565   5.900  0.00  0.00    +0.121 C 
BRANCH  30  31
ATOM     31  C   UNL     1      -2.867  -5.529   6.479  0.00  0.00    +0.054 C 
BRANCH  31  32
ATOM     32  C   UNL     1      -3.089  -6.745   7.341  0.00  0.00    -0.046 A 
ATOM     33  C   UNL     1      -3.590  -7.906   6.782  0.00  0.00    +0.004 A 
ATOM     34  C   UNL     1      -3.793  -9.021   7.573  0.00  0.00    +0.000 A 
ATOM     35  C   UNL     1      -3.495  -8.976   8.922  0.00  0.00    +0.000 A 
ATOM     36  C   UNL     1      -2.993  -7.815   9.480  0.00  0.00    +0.000 A 
ATOM     37  C   UNL     1      -2.786  -6.701   8.689  0.00  0.00    +0.004 A 
ENDBRANCH  31  32
ENDBRANCH  30  31
ENDBRANCH  15  30
TORSDOF 5
