REMARK  Name = ZINC16735381
REMARK  4 active torsions:
REMARK  status: ('A' for Active; 'I' for Inactive)
REMARK    1  A    between atoms: C_1  and  S_2
REMARK    2  A    between atoms: S_2  and  C_3
REMARK    3  A    between atoms: C_6  and  C_9
REMARK    4  A    between atoms: C_17  and  C_19
REMARK                            x       y       z     vdW  Elec       q    Type
REMARK                         _______ _______ _______ _____ _____    ______ ____
ROOT
ATOM      1  C   UNL     1       1.174   3.543   0.009  0.00  0.00    +0.028 C 
ATOM      2  C   UNL     1       2.341   4.234   0.105  0.00  0.00    +0.082 A 
ATOM      3  C   UNL     1       2.563   5.681   0.224  0.00  0.00    +0.288 A 
ATOM      4  O   UNL     1       1.628   6.461   0.250  0.00  0.00    -0.265 OA
ATOM      5  N   UNL     1       3.829   6.114   0.306  0.00  0.00    -0.169 N 
ATOM      6  C   UNL     1       4.843   5.199   0.265  0.00  0.00    +0.200 A 
ATOM      7  S   UNL     1       4.023   3.630   0.111  0.00  0.00    -0.044 S 
ATOM      8  N   UNL     1       5.991   5.810   0.353  0.00  0.00    -0.197 NA
ATOM      9  C   UNL     1       5.782   7.133   0.453  0.00  0.00    +0.218 A 
ATOM     10  N   UNL     1       4.490   7.367   0.429  0.00  0.00    -0.138 NA
ENDROOT
BRANCH   1  14
ATOM     11  C   UNL     1       1.202  -0.684   0.153  0.00  0.00    +0.008 A 
ATOM     12  C   UNL     1       2.313   0.033   0.592  0.00  0.00    +0.015 A 
ATOM     13  C   UNL     1       2.309   1.398   0.547  0.00  0.00    +0.009 A 
ATOM     14  C   UNL     1       1.184   2.077   0.059  0.00  0.00    -0.024 A 
ATOM     15  C   UNL     1       0.068   1.352  -0.381  0.00  0.00    +0.009 A 
ATOM     16  C   UNL     1       0.082  -0.013  -0.333  0.00  0.00    +0.015 A 
BRANCH  11  18
ATOM     17  C   UNL     1      -0.410  -2.917  -0.445  0.00  0.00    +0.090 C 
ATOM     18  S   UNL     1       1.213  -2.445   0.214  0.00  0.00    -0.129 S 
ENDBRANCH  11  18
ENDBRANCH   1  14
BRANCH   9  19
ATOM     19  C   UNL     1       6.836   8.161   0.572  0.00  0.00    +0.173 A 
ATOM     20  C   UNL     1       8.176   7.930   0.603  0.00  0.00    +0.053 A 
ATOM     21  C   UNL     1       8.802   9.186   0.721  0.00  0.00    +0.042 A 
ATOM     22  C   UNL     1       7.824  10.112   0.764  0.00  0.00    +0.196 A 
ATOM     23  O   UNL     1       6.638   9.489   0.674  0.00  0.00    -0.460 OA
ENDBRANCH   9  19
TORSDOF 3
