REMARK  Name = ZINC09291448
REMARK  4 active torsions:
REMARK  status: ('A' for Active; 'I' for Inactive)
REMARK    1  A    between atoms: C_4  and  C_7
REMARK    2  A    between atoms: C_9  and  C_13
REMARK    3  A    between atoms: N_17  and  N_18
REMARK    4  A    between atoms: C_19  and  C_20
REMARK                            x       y       z     vdW  Elec       q    Type
REMARK                         _______ _______ _______ _____ _____    ______ ____
ROOT
ATOM      1  C   UNL     1       5.847  -3.675  -0.082  0.00  0.00    +0.203 A 
ATOM      2  N   UNL     1       5.262  -4.823   0.180  0.00  0.00    -0.125 NA
ATOM      3  N   UNL     1       6.109  -5.783   0.071  0.00  0.00    -0.119 NA
ATOM      4  C   UNL     1       7.289  -5.311  -0.267  0.00  0.00    +0.223 A 
ATOM      5  N   UNL     1       7.165  -3.953  -0.382  0.00  0.00    -0.185 N 
ATOM      6  S   UNL     1       8.755  -6.253  -0.529  0.00  0.00    -0.007 SA
ENDROOT
BRANCH   1   9
ATOM      7  C   UNL     1       3.699  -0.689  -0.037  0.00  0.00    +0.093 A 
ATOM      8  C   UNL     1       3.862  -2.084  -0.052  0.00  0.00    +0.061 A 
ATOM      9  C   UNL     1       5.215  -2.345  -0.065  0.00  0.00    +0.105 A 
ATOM     10  N   UNL     1       5.860  -1.141  -0.058  0.00  0.00    -0.273 N 
ATOM     11  H   UNL     1       6.821  -1.009  -0.065  0.00  0.00    +0.189 HD
ATOM     12  N   UNL     1       4.891  -0.131  -0.047  0.00  0.00    -0.173 NA
BRANCH   7  16
ATOM     13  C   UNL     1      -0.017   1.379   0.010  0.00  0.00    +0.000 A 
ATOM     14  C   UNL     1       1.169   2.092   0.002  0.00  0.00    +0.001 A 
ATOM     15  C   UNL     1       2.377   1.425  -0.013  0.00  0.00    +0.010 A 
ATOM     16  C   UNL     1       2.402   0.033  -0.021  0.00  0.00    +0.002 A 
ATOM     17  C   UNL     1       1.205  -0.680  -0.013  0.00  0.00    +0.010 A 
ATOM     18  C   UNL     1       0.002  -0.004   0.002  0.00  0.00    +0.001 A 
ENDBRANCH   7  16
ENDBRANCH   1   9
BRANCH   5  19
ATOM     19  N   UNL     1       8.166  -3.037  -0.728  0.00  0.00    -0.170 NA
ATOM     20  C   UNL     1       8.901  -2.498   0.196  0.00  0.00    +0.142 C 
BRANCH  20  21
ATOM     21  C   UNL     1       9.956  -1.534  -0.169  0.00  0.00    +0.009 A 
ATOM     22  C   UNL     1      10.752  -0.957   0.823  0.00  0.00    +0.010 A 
ATOM     23  C   UNL     1      11.737  -0.056   0.475  0.00  0.00    +0.001 A 
ATOM     24  C   UNL     1      11.937   0.278  -0.853  0.00  0.00    +0.001 A 
ATOM     25  C   UNL     1      11.152  -0.289  -1.841  0.00  0.00    +0.016 A 
ATOM     26  C   UNL     1      10.167  -1.198  -1.508  0.00  0.00    +0.027 A 
ATOM     27 BR   UNL     1       9.100  -1.978  -2.861  0.00  0.00    -0.050 Br
ENDBRANCH  20  21
ENDBRANCH   5  19
TORSDOF 4
