REMARK  Name = ZINC39607730
REMARK  11 active torsions:
REMARK  status: ('A' for Active; 'I' for Inactive)
REMARK    1  A    between atoms: C_1  and  C_2
REMARK    2  A    between atoms: C_2  and  C_3
REMARK    3  A    between atoms: C_3  and  O_4
REMARK    4  A    between atoms: O_4  and  C_5
REMARK    5  A    between atoms: C_5  and  C_6
REMARK    6  A    between atoms: C_6  and  N_7
REMARK    7  A    between atoms: C_8  and  C_10
REMARK    8  A    between atoms: C_21  and  C_23
REMARK    9  A    between atoms: C_23  and  O_24
REMARK   10  A    between atoms: O_24  and  C_25
REMARK   11  A    between atoms: C_35  and  C_36
REMARK                            x       y       z     vdW  Elec       q    Type
REMARK                         _______ _______ _______ _____ _____    ______ ____
ROOT
ATOM      1  C   UNL     1       3.055  -6.213  -0.437  0.00  0.00    +0.100 C 
ATOM      2  C   UNL     1       4.514  -5.713  -0.334  0.00  0.00    +0.121 C 
ATOM      3  N   UNL     1       5.259  -6.850   0.255  0.00  0.00    -0.297 N 
ATOM      4  C   UNL     1       4.675  -8.049  -0.394  0.00  0.00    +0.115 C 
ATOM      5  C   UNL     1       3.166  -7.747  -0.479  0.00  0.00    -0.004 C 
ATOM      6  C   UNL     1       2.437  -8.362   0.711  0.00  0.00    -0.010 C 
ATOM      7  C   UNL     1       2.513  -9.888   0.617  0.00  0.00    -0.082 C 
ATOM      8  N   UNL     1       1.900 -10.333  -0.641  0.00  0.00    +0.379 N 
ATOM      9  C   UNL     1       2.663  -9.812  -1.782  0.00  0.00    -0.082 C 
ATOM     10  C   UNL     1       2.594  -8.282  -1.788  0.00  0.00    -0.010 C 
ATOM     11  C   UNL     1       6.245  -6.805   1.172  0.00  0.00    +0.253 C 
ATOM     12  O   UNL     1       6.762  -7.832   1.558  0.00  0.00    -0.272 OA
ATOM     13  H   UNL     1       1.896 -11.342  -0.673  0.00  0.00    -0.086 HD
ATOM     14  H   UNL     1       0.951  -9.994  -0.689  0.00  0.00    -0.086 HD
ENDROOT
BRANCH   1  16
ATOM     15  N   UNL     1       0.935  -5.583   0.669  0.00  0.00    -0.313 N 
ATOM     16  C   UNL     1       2.265  -5.777   0.769  0.00  0.00    +0.218 C 
ATOM     17  O   UNL     1       2.825  -5.601   1.830  0.00  0.00    -0.275 OA
ATOM     18  H   UNL     1       0.487  -5.724  -0.179  0.00  0.00    +0.149 HD
BRANCH  15  19
ATOM     19  C   UNL     1       0.166  -5.159   1.842  0.00  0.00    +0.132 C 
BRANCH  19  20
ATOM     20  C   UNL     1      -1.308  -5.012   1.460  0.00  0.00    +0.178 C 
BRANCH  20  21
ATOM     21  O   UNL     1      -1.837  -6.291   1.103  0.00  0.00    -0.378 OA
BRANCH  21  22
ATOM     22  C   UNL     1      -3.216  -6.265   0.728  0.00  0.00    +0.159 C 
BRANCH  22  24
ATOM     23  C   UNL     1      -5.149  -7.653  -0.034  0.00  0.00    +0.006 C 
ATOM     24  C   UNL     1      -3.673  -7.680   0.368  0.00  0.00    +0.025 C 
ENDBRANCH  22  24
ENDBRANCH  21  22
ENDBRANCH  20  21
ENDBRANCH  19  20
ENDBRANCH  15  19
ENDBRANCH   1  16
BRANCH  11  25
ATOM     25  C   UNL     1       6.706  -5.479   1.719  0.00  0.00    +0.324 C 
BRANCH  25  26
ATOM     26  O   UNL     1       7.752  -5.692   2.669  0.00  0.00    -0.479 OA
BRANCH  26  27
ATOM     27  C   UNL     1       8.283  -4.589   3.260  0.00  0.00    +0.164 A 
ATOM     28  C   UNL     1       7.805  -3.332   2.938  0.00  0.00    +0.049 A 
ATOM     29  C   UNL     1       8.338  -2.199   3.535  0.00  0.00    +0.004 A 
ATOM     30  C   UNL     1       9.354  -2.310   4.458  0.00  0.00    +0.012 A 
ATOM     31  C   UNL     1       9.849  -3.574   4.795  0.00  0.00    +0.024 A 
ATOM     32  C   UNL     1       9.306  -4.723   4.196  0.00  0.00    +0.181 A 
ATOM     33  O   UNL     1       9.783  -5.943   4.527  0.00  0.00    -0.418 OA
ATOM     34  C   UNL     1      10.768  -6.090   5.426  0.00  0.00    +0.338 A 
ATOM     35  O   UNL     1      11.166  -7.209   5.693  0.00  0.00    -0.245 OA
ATOM     36  C   UNL     1      11.355  -4.979   6.071  0.00  0.00    +0.096 A 
ATOM     37  C   UNL     1      10.929  -3.725   5.774  0.00  0.00    -0.033 A 
ATOM     38  C   UNL     1      11.539  -2.522   6.447  0.00  0.00    +0.045 C 
ENDBRANCH  26  27
ENDBRANCH  25  26
ENDBRANCH  11  25
TORSDOF 9
