REMARK  Name = ZINC43743414
REMARK  13 active torsions:
REMARK  status: ('A' for Active; 'I' for Inactive)
REMARK    1  A    between atoms: CD1_1  and  CG1_2
REMARK    2  A    between atoms: CG1_2  and  CB_3
REMARK    3  A    between atoms: CB_3  and  CG2_5
REMARK    4  A    between atoms: CB_3  and  CA_6
REMARK    5  A    between atoms: CA_6  and  C_8
REMARK    6  A    between atoms: CA_6  and  N_11
REMARK    7  A    between atoms: C_12  and  C_14
REMARK    8  A    between atoms: C_14  and  O_15
REMARK    9  A    between atoms: O_15  and  N_16
REMARK   10  A    between atoms: C_20  and  C_40
REMARK   11  A    between atoms: C_25  and  C_39
REMARK   12  A    between atoms: C_36  and  C_37
REMARK   13  A    between atoms: C_36  and  O_38
REMARK                            x       y       z     vdW  Elec       q    Type
REMARK                         _______ _______ _______ _____ _____    ______ ____
ROOT
ATOM      1  N   UNK A   0       3.862  -6.347  -6.169  0.00  0.00    -0.089 NA
ATOM      2  C   UNK A   0       4.273  -7.543  -5.888  0.00  0.00    +0.080 C 
ATOM      3  C   UNK A   0       3.995  -8.194  -4.546  0.00  0.00    +0.059 C 
ATOM      4  C   UNK A   0       5.328  -8.696  -3.992  0.00  0.00    +0.017 C 
ATOM      5  C   UNK A   0       6.038  -9.617  -4.953  0.00  0.00    -0.007 C 
ATOM      6  C   UNK A   0       5.707 -11.086  -4.686  0.00  0.00    +0.002 C 
ATOM      7  C   UNK A   0       5.997 -11.417  -3.225  0.00  0.00    +0.005 C 
ATOM      8  C   UNK A   0       5.802 -12.913  -2.934  0.00  0.00    +0.010 C 
ATOM      9  C   UNK A   0       6.718 -13.677  -3.871  0.00  0.00    -0.000 C 
ATOM     10  C   UNK A   0       6.221 -13.409  -5.317  0.00  0.00    +0.001 C 
ATOM     11  C   UNK A   0       6.556 -11.961  -5.624  0.00  0.00    -0.003 C 
ATOM     12  C   UNK A   0       6.201 -11.658  -7.080  0.00  0.00    +0.008 C 
ATOM     13  C   UNK A   0       6.548 -10.202  -7.411  0.00  0.00    +0.031 C 
ATOM     14  C   UNK A   0       5.832  -9.316  -6.405  0.00  0.00    -0.062 C 
ATOM     15  C   UNK A   0       5.034  -8.356  -6.857  0.00  0.00    +0.026 C 
ATOM     16  C   UNK A   0       7.005 -14.457  -6.114  0.00  0.00    +0.007 C 
ATOM     17  C   UNK A   0       6.926 -15.714  -5.205  0.00  0.00    +0.035 C 
ATOM     18  C   UNK A   0       6.684 -15.198  -3.765  0.00  0.00    +0.069 C 
ATOM     19  C   UNK A   0       5.317 -15.664  -3.259  0.00  0.00    +0.042 C 
ATOM     20  C   UNK A   0       8.155 -13.178  -3.711  0.00  0.00    +0.014 C 
ATOM     21  C   UNK A   0       7.536  -9.466  -4.683  0.00  0.00    +0.016 C 
ENDROOT
BRANCH  18  22
ATOM     22  O   UNK A   0       7.719 -15.657  -2.894  0.00  0.00    -0.388 OA
ATOM     23  H   UNK A   0       7.746 -16.618  -2.788  0.00  0.00    +0.210 HD
ENDBRANCH  18  22
BRANCH   1  24
ATOM     24  O   UNK A   0       3.135  -5.604  -5.207  0.00  0.00    -0.384 OA
BRANCH  24  25
ATOM     25  C   UNK A   0       2.746  -4.303  -5.651  0.00  0.00    +0.358 C 
BRANCH  25  27
ATOM     26  N   ILE A   1       1.514  -2.357  -4.749  0.00  0.00    -0.299 N 
ATOM     27  C   UNK A   0       1.984  -3.606  -4.554  0.00  0.00    +0.254 C 
ATOM     28  O   UNK A   0       1.792  -4.168  -3.497  0.00  0.00    -0.272 OA
ATOM     29  H   ILE A   1       1.667  -1.908  -5.594  0.00  0.00    +0.150 HD
BRANCH  26  30
ATOM     30  CA  ILE A   1       0.773  -1.679  -3.683  0.00  0.00    +0.189 C 
BRANCH  30  31
ATOM     31  C   ILE A   1      -0.679  -2.079  -3.747  0.00  0.00    +0.376 C 
ATOM     32  O   ILE A   1      -1.183  -2.372  -4.818  0.00  0.00    -0.244 OA
ATOM     33  OXT ILE A   1      -1.348  -2.111  -2.729  0.00  0.00    -0.244 OA
ENDBRANCH  30  31
BRANCH  30  34
ATOM     34  CB  ILE A   1       0.892  -0.164  -3.862  0.00  0.00    +0.017 C 
ATOM     35  CG2 ILE A   1       2.366   0.242  -3.796  0.00  0.00    +0.010 C 
BRANCH  34  37
ATOM     36  CD1 ILE A   1       0.133   2.053  -2.997  0.00  0.00    +0.004 C 
ATOM     37  CG1 ILE A   1       0.118   0.544  -2.748  0.00  0.00    +0.002 C 
ENDBRANCH  34  37
ENDBRANCH  30  34
ENDBRANCH  26  30
ENDBRANCH  25  27
ENDBRANCH  24  25
ENDBRANCH   1  24
TORSDOF 8
