REMARK  Name = ZINC66140400
REMARK  8 active torsions:
REMARK  status: ('A' for Active; 'I' for Inactive)
REMARK    1  A    between atoms: C_1  and  C_2
REMARK    2  A    between atoms: C_6  and  C_25
REMARK    3  A    between atoms: C_7  and  O_8
REMARK    4  A    between atoms: O_8  and  C_9
REMARK    5  A    between atoms: C_9  and  C_11
REMARK    6  A    between atoms: C_9  and  C_12
REMARK    7  A    between atoms: C_14  and  C_18
REMARK    8  A    between atoms: C_22  and  N_24
REMARK                            x       y       z     vdW  Elec       q    Type
REMARK                         _______ _______ _______ _____ _____    ______ ____
ROOT
ATOM      1  C   UNL     1      -1.665   1.289   3.646  0.00  0.00    +0.077 A 
ATOM      2  C   UNL     1      -2.864   1.896   3.782  0.00  0.00    +0.056 A 
ATOM      3  C   UNL     1      -2.700   2.986   4.659  0.00  0.00    +0.093 A 
ATOM      4  N   UNL     1      -1.437   3.020   5.030  0.00  0.00    -0.174 NA
ATOM      5  N   UNL     1      -0.771   1.957   4.407  0.00  0.00    -0.277 N 
ATOM      6  H   UNL     1       0.169   1.739   4.503  0.00  0.00    +0.189 HD
ENDROOT
BRANCH   3   7
ATOM      7  C   UNL     1      -3.762   3.928   5.089  0.00  0.00    +0.004 A 
ATOM      8  C   UNL     1      -5.066   3.772   4.621  0.00  0.00    +0.010 A 
ATOM      9  C   UNL     1      -6.053   4.650   5.022  0.00  0.00    +0.002 A 
ATOM     10  C   UNL     1      -5.754   5.685   5.887  0.00  0.00    +0.023 A 
ATOM     11  C   UNL     1      -4.457   5.848   6.359  0.00  0.00    +0.025 A 
ATOM     12  C   UNL     1      -3.461   4.967   5.965  0.00  0.00    +0.032 A 
BRANCH  11  13
ATOM     13  N   UNL     1      -4.158   6.896   7.233  0.00  0.00    -0.358 N 
ATOM     14  H   UNL     1      -4.856   7.510   7.511  0.00  0.00    +0.142 HD
ATOM     15  H   UNL     1      -3.253   7.009   7.562  0.00  0.00    +0.142 HD
ENDBRANCH  11  13
ENDBRANCH   3   7
BRANCH   1  16
ATOM     16  C   UNL     1      -1.376   0.077   2.798  0.00  0.00    +0.218 C 
ATOM     17  C   UNL     1      -1.710  -1.189   3.589  0.00  0.00    +0.059 C 
BRANCH  16  18
ATOM     18  O   UNL     1       0.007   0.064   2.440  0.00  0.00    -0.482 OA
BRANCH  18  25
ATOM     19  C   UNL     1       0.842  -2.634   2.490  0.00  0.00    +0.047 C 
ATOM     20  C   UNL     1       0.749  -1.836   1.216  0.00  0.00    -0.008 A 
ATOM     21  C   UNL     1       1.073  -2.422   0.007  0.00  0.00    +0.007 A 
ATOM     22  C   UNL     1       0.988  -1.690  -1.162  0.00  0.00    +0.001 A 
ATOM     23  C   UNL     1       0.578  -0.370  -1.126  0.00  0.00    +0.007 A 
ATOM     24  C   UNL     1       0.253   0.221   0.079  0.00  0.00    -0.008 A 
ATOM     25  C   UNL     1       0.332  -0.513   1.254  0.00  0.00    +0.127 A 
ATOM     26  C   UNL     1      -0.193   1.660   0.118  0.00  0.00    +0.047 C 
ENDBRANCH  18  25
ENDBRANCH  16  18
ENDBRANCH   1  16
TORSDOF 5
