REMARK  Name = ZINC03667468
REMARK  8 active torsions:
REMARK  status: ('A' for Active; 'I' for Inactive)
REMARK    1  A    between atoms: C_4  and  C_7
REMARK    2  A    between atoms: C_10  and  S_18
REMARK    3  A    between atoms: N_11  and  C_12
REMARK    4  A    between atoms: S_18  and  C_19
REMARK    5  A    between atoms: C_22  and  C_24
REMARK    6  A    between atoms: N_25  and  N_26
REMARK    7  A    between atoms: C_27  and  C_29
REMARK    8  A    between atoms: C_34  and  O_35
REMARK                            x       y       z     vdW  Elec       q    Type
REMARK                         _______ _______ _______ _____ _____    ______ ____
ROOT
ATOM      1  C   UNL     1       0.066   1.700   8.737  0.00  0.00    +0.169 A 
ATOM      2  C   UNL     1       0.088   0.538   9.445  0.00  0.00    +0.057 A 
ATOM      3  C   UNL     1       0.093  -0.511   8.513  0.00  0.00    +0.052 A 
ATOM      4  C   UNL     1       0.073   0.061   7.272  0.00  0.00    +0.149 A 
ATOM      5  O   UNL     1       0.063   1.403   7.426  0.00  0.00    -0.447 OA
ENDROOT
BRANCH   4   6
ATOM      6  C   UNL     1       0.070  -0.656   5.997  0.00  0.00    +0.176 C 
ATOM      7  N   UNL     1       0.050   0.008   4.876  0.00  0.00    -0.184 NA
BRANCH   7   8
ATOM      8  N   UNL     1       0.047  -0.679   3.655  0.00  0.00    -0.203 N 
ATOM      9  C   UNL     1       0.026   0.008   2.496  0.00  0.00    +0.267 C 
ATOM     10  O   UNL     1       0.011   1.225   2.510  0.00  0.00    -0.268 OA
ATOM     11  H   UNL     1       0.059  -1.649   3.644  0.00  0.00    +0.178 HD
BRANCH   9  12
ATOM     12  C   UNL     1       0.023  -0.715   1.210  0.00  0.00    +0.080 A 
ATOM     13  C   UNL     1       0.042  -2.111   1.189  0.00  0.00    +0.017 A 
ATOM     14  C   UNL     1       0.039  -2.781  -0.015  0.00  0.00    +0.001 A 
ATOM     15  C   UNL     1       0.018  -2.075  -1.207  0.00  0.00    +0.004 A 
ATOM     16  C   UNL     1      -0.006  -0.694  -1.201  0.00  0.00    +0.046 A 
ATOM     17  C   UNL     1       0.002  -0.004   0.002  0.00  0.00    +0.129 A 
BRANCH  17  18
ATOM     18  O   UNL     1      -0.016   1.353   0.009  0.00  0.00    -0.506 OA
ATOM     19  H   UNL     1       0.862   1.758   0.003  0.00  0.00    +0.292 HD
ENDBRANCH  17  18
ENDBRANCH   9  12
ENDBRANCH   7   8
ENDBRANCH   4   6
BRANCH   1  20
ATOM     20  S   UNL     1       0.052   3.322   9.424  0.00  0.00    -0.012 S 
BRANCH  20  24
ATOM     21  C   UNL     1      -0.012   5.936   6.517  0.00  0.00    +0.169 A 
ATOM     22  N   UNL     1      -0.003   4.789   5.877  0.00  0.00    -0.128 NA
ATOM     23  N   UNL     1       0.018   3.817   6.716  0.00  0.00    -0.121 NA
ATOM     24  C   UNL     1       0.025   4.280   7.946  0.00  0.00    +0.204 A 
ATOM     25  N   UNL     1       0.001   5.646   7.864  0.00  0.00    -0.270 N 
BRANCH  21  29
ATOM     26  C   UNL     1      -0.081   9.805   4.768  0.00  0.00    +0.000 A 
ATOM     27  C   UNL     1      -0.384   8.696   3.998  0.00  0.00    +0.001 A 
ATOM     28  C   UNL     1      -0.363   7.436   4.560  0.00  0.00    +0.011 A 
ATOM     29  C   UNL     1      -0.036   7.282   5.908  0.00  0.00    +0.020 A 
ATOM     30  C   UNL     1       0.264   8.406   6.680  0.00  0.00    +0.011 A 
ATOM     31  C   UNL     1       0.245   9.660   6.104  0.00  0.00    +0.001 A 
ENDBRANCH  21  29
BRANCH  25  32
ATOM     32  C   UNL     1      -0.007   6.559   8.927  0.00  0.00    +0.051 A 
ATOM     33  C   UNL     1      -1.107   7.382   9.129  0.00  0.00    +0.026 A 
ATOM     34  C   UNL     1      -1.114   8.278  10.180  0.00  0.00    +0.002 A 
ATOM     35  C   UNL     1      -0.023   8.362  11.025  0.00  0.00    +0.000 A 
ATOM     36  C   UNL     1       1.076   7.547  10.824  0.00  0.00    +0.002 A 
ATOM     37  C   UNL     1       1.087   6.646   9.777  0.00  0.00    +0.026 A 
ENDBRANCH  25  32
ENDBRANCH  20  24
ENDBRANCH   1  20
TORSDOF 8
