REMARK  Name = ZINC19910818
REMARK  7 active torsions:
REMARK  status: ('A' for Active; 'I' for Inactive)
REMARK    1  A    between atoms: C_1  and  C_2
REMARK    2  A    between atoms: C_5  and  O_32
REMARK    3  A    between atoms: C_17  and  O_31
REMARK    4  A    between atoms: C_19  and  C_30
REMARK    5  A    between atoms: C_24  and  C_26
REMARK    6  A    between atoms: C_26  and  O_28
REMARK    7  A    between atoms: O_28  and  C_29
REMARK                            x       y       z     vdW  Elec       q    Type
REMARK                         _______ _______ _______ _____ _____    ______ ____
ROOT
ATOM      1  C   UNL     1       1.401   2.284  -2.400  0.00  0.00    +0.012 C 
ATOM      2  C   UNL     1       2.091   1.843  -1.113  0.00  0.00    -0.026 C 
ATOM      3  C   UNL     1       1.339   2.459   0.080  0.00  0.00    +0.010 C 
ATOM      4  C   UNL     1      -0.106   1.971   0.120  0.00  0.00    +0.032 C 
ATOM      5  C   UNL     1      -0.157   0.448   0.214  0.00  0.00    +0.115 C 
ATOM      6  C   UNL     1       0.585  -0.170  -0.974  0.00  0.00    +0.035 C 
ATOM      7  C   UNL     1       2.027   0.322  -0.974  0.00  0.00    -0.002 C 
ATOM      8  C   UNL     1       2.820  -0.330  -2.105  0.00  0.00    +0.004 C 
ATOM      9  C   UNL     1       4.292   0.022  -1.908  0.00  0.00    +0.004 C 
ATOM     10  C   UNL     1       4.518   1.528  -1.917  0.00  0.00    -0.004 C 
ATOM     11  C   UNL     1       3.540   2.313  -1.062  0.00  0.00    +0.001 C 
ATOM     12  C   UNL     1       3.644   3.820  -1.208  0.00  0.00    +0.036 C 
ATOM     13  C   UNL     1       3.999   4.380  -2.577  0.00  0.00    +0.122 C 
ATOM     14  C   UNL     1       5.042   3.545  -3.276  0.00  0.00    +0.010 C 
ATOM     15  C   UNL     1       4.562   2.076  -3.319  0.00  0.00    +0.002 C 
ATOM     16  C   UNL     1       5.581   1.436  -4.273  0.00  0.00    +0.005 C 
ATOM     17  C   UNL     1       5.761   2.518  -5.370  0.00  0.00    +0.015 C 
ATOM     18  C   UNL     1       5.261   3.853  -4.763  0.00  0.00    +0.106 C 
ATOM     19  C   UNL     1       6.388   3.690  -2.562  0.00  0.00    +0.015 C 
ENDROOT
BRANCH  18  20
ATOM     20  C   UNL     1       6.310   4.923  -4.917  0.00  0.00    +0.311 C 
ATOM     21  O   UNL     1       7.465   4.616  -5.098  0.00  0.00    -0.251 OA
BRANCH  20  22
ATOM     22  O   UNL     1       5.963   6.218  -4.852  0.00  0.00    -0.468 OA
ATOM     23  C   UNL     1       7.026   7.194  -5.008  0.00  0.00    +0.280 C 
ENDBRANCH  20  22
ENDBRANCH  18  20
BRANCH  13  24
ATOM     24  O   UNL     1       2.845   4.542  -3.403  0.00  0.00    -0.391 OA
ATOM     25  H   UNL     1       2.951   4.939  -4.424  0.00  0.00    +0.210 HD
ENDBRANCH  13  24
BRANCH   5  26
ATOM     26  O   UNL     1      -1.519   0.012   0.201  0.00  0.00    -0.392 OA
ATOM     27  H   UNL     1      -1.754  -1.061   0.261  0.00  0.00    +0.210 HD
ENDBRANCH   5  26
TORSDOF 4
