REMARK  Name = ZINC22056650
REMARK  13 active torsions:
REMARK  status: ('A' for Active; 'I' for Inactive)
REMARK    1  A    between atoms: C_1  and  C_2
REMARK    2  A    between atoms: C_2  and  C_4
REMARK    3  A    between atoms: C_2  and  S_15
REMARK    4  A    between atoms: N_6  and  C_7
REMARK    5  A    between atoms: C_12  and  S_13
REMARK    6  A    between atoms: S_13  and  C_14
REMARK    7  A    between atoms: S_15  and  C_16
REMARK    8  A    between atoms: C_19  and  C_22
REMARK    9  A    between atoms: N_20  and  N_21
REMARK   10  A    between atoms: C_25  and  C_28
REMARK   11  A    between atoms: C_28  and  C_29
REMARK   12  A    between atoms: C_28  and  C_30
REMARK   13  A    between atoms: C_28  and  C_31
REMARK                            x       y       z     vdW  Elec       q    Type
REMARK                         _______ _______ _______ _____ _____    ______ ____
ROOT
ATOM      1  C   UNL     1      -1.117   2.158   0.055  0.00  0.00    +0.209 A 
ATOM      2  N   UNL     1      -0.682   3.399   0.066  0.00  0.00    -0.121 NA
ATOM      3  N   UNL     1       0.603   3.416   0.063  0.00  0.00    -0.127 NA
ATOM      4  C   UNL     1       1.067   2.188   0.057  0.00  0.00    +0.182 A 
ATOM      5  N   UNL     1      -0.020   1.345   0.055  0.00  0.00    -0.224 N 
ENDROOT
BRANCH   4   6
ATOM      6  C   UNL     1       2.490   1.787   0.051  0.00  0.00    +0.021 A 
ATOM      7  C   UNL     1       2.850   0.474   0.362  0.00  0.00    +0.012 A 
ATOM      8  C   UNL     1       4.179   0.105   0.351  0.00  0.00    +0.005 A 
ATOM      9  C   UNL     1       5.156   1.036   0.042  0.00  0.00    -0.042 A 
ATOM     10  C   UNL     1       4.807   2.340  -0.261  0.00  0.00    +0.005 A 
ATOM     11  C   UNL     1       3.481   2.720  -0.258  0.00  0.00    +0.012 A 
BRANCH   9  12
ATOM     12  C   UNL     1       6.606   0.627   0.037  0.00  0.00    -0.013 C 
ATOM     13  C   UNL     1       7.376   1.465   1.060  0.00  0.00    +0.015 C 
ATOM     14  C   UNL     1       6.720  -0.855   0.403  0.00  0.00    +0.015 C 
ATOM     15  C   UNL     1       7.195   0.855  -1.357  0.00  0.00    +0.015 C 
ENDBRANCH   9  12
ENDBRANCH   4   6
BRANCH   5  16
ATOM     16  N   UNL     1      -0.005  -0.021   0.048  0.00  0.00    -0.295 N 
ATOM     17  H   UNL     1       0.953  -0.561   0.049  0.00  0.00    +0.163 HD
ATOM     18  H   UNL     1      -0.952  -0.581   0.042  0.00  0.00    +0.163 HD
ENDBRANCH   5  16
BRANCH   1  19
ATOM     19  S   UNL     1      -2.801   1.641   0.046  0.00  0.00    -0.072 S 
BRANCH  19  21
ATOM     20  C   UNL     1      -3.309   3.991  -1.251  0.00  0.00    +0.029 C 
ATOM     21  C   UNL     1      -3.625   3.253   0.052  0.00  0.00    +0.137 C 
BRANCH  21  22
ATOM     22  C   UNL     1      -5.114   3.056   0.169  0.00  0.00    +0.230 C 
ATOM     23  O   UNL     1      -5.609   1.986  -0.117  0.00  0.00    -0.274 OA
ATOM     24  N   UNL     1      -5.897   4.068   0.593  0.00  0.00    -0.284 N 
ATOM     25  H   UNL     1      -5.442   5.014   0.923  0.00  0.00    +0.155 HD
BRANCH  24  26
ATOM     26  C   UNL     1      -7.290   3.916   0.613  0.00  0.00    +0.047 A 
ATOM     27  C   UNL     1      -7.850   2.683   0.911  0.00  0.00    +0.024 A 
ATOM     28  C   UNL     1      -9.225   2.537   0.936  0.00  0.00    +0.002 A 
ATOM     29  C   UNL     1     -10.045   3.614   0.653  0.00  0.00    +0.001 A 
ATOM     30  C   UNL     1      -9.495   4.845   0.349  0.00  0.00    +0.016 A 
ATOM     31  C   UNL     1      -8.117   5.003   0.328  0.00  0.00    +0.029 A 
BRANCH  31  32
ATOM     32  S   UNL     1      -7.413   6.571  -0.060  0.00  0.00    -0.127 S 
ATOM     33  C   UNL     1      -8.851   7.638  -0.348  0.00  0.00    +0.090 C 
ENDBRANCH  31  32
ENDBRANCH  24  26
ENDBRANCH  21  22
ENDBRANCH  19  21
ENDBRANCH   1  19
TORSDOF 8
