REMARK  Name = ZINC05085670
REMARK  4 active torsions:
REMARK  status: ('A' for Active; 'I' for Inactive)
REMARK    1  A    between atoms: C_3  and  C_19
REMARK    2  A    between atoms: C_6  and  N_7
REMARK    3  A    between atoms: N_20  and  N_21
REMARK    4  A    between atoms: C_22  and  C_24
REMARK                            x       y       z     vdW  Elec       q    Type
REMARK                         _______ _______ _______ _____ _____    ______ ____
ROOT
ATOM      1  C   UNL     1       3.522  -2.377  -0.161  0.00  0.00    +0.024 A 
ATOM      2  C   UNL     1       3.541  -1.000  -0.140  0.00  0.00    +0.013 A 
ATOM      3  C   UNL     1       2.339  -0.287  -0.116  0.00  0.00    +0.013 A 
ATOM      4  C   UNL     1       1.121  -0.975  -0.108  0.00  0.00    +0.051 A 
ATOM      5  C   UNL     1       1.111  -2.353  -0.135  0.00  0.00    +0.043 A 
ATOM      6  C   UNL     1       2.310  -3.059  -0.158  0.00  0.00    +0.031 A 
ATOM      7 CL   UNL     1      -0.375  -0.095  -0.071  0.00  0.00    -0.083 Cl
ENDROOT
BRANCH   6   8
ATOM      8  N   UNL     1       2.296  -4.453  -0.179  0.00  0.00    -0.330 N 
ATOM      9  C   UNL     1       3.073  -5.004   0.938  0.00  0.00    +0.105 C 
ATOM     10  C   UNL     1       3.158  -6.526   0.801  0.00  0.00    +0.026 C 
ATOM     11  C   UNL     1       1.744  -7.112   0.800  0.00  0.00    -0.026 C 
ATOM     12  C   UNL     1       1.819  -8.627   0.603  0.00  0.00    +0.007 C 
ATOM     13  C   UNL     1       2.625  -9.250   1.745  0.00  0.00    +0.001 C 
ATOM     14  C   UNL     1       1.943  -8.940   3.079  0.00  0.00    +0.000 C 
ATOM     15  C   UNL     1       1.869  -7.424   3.275  0.00  0.00    +0.001 C 
ATOM     16  C   UNL     1       1.062  -6.802   2.134  0.00  0.00    +0.007 C 
ATOM     17  C   UNL     1       0.939  -6.487  -0.343  0.00  0.00    +0.026 C 
ATOM     18  C   UNL     1       0.919  -4.966  -0.173  0.00  0.00    +0.105 C 
ENDBRANCH   6   8
BRANCH   3  19
ATOM     19  C   UNL     1       2.355   1.186  -0.094  0.00  0.00    +0.139 C 
ATOM     20  N   UNL     1       3.369   1.817   0.418  0.00  0.00    -0.187 NA
BRANCH  20  21
ATOM     21  N   UNL     1       4.344   1.111   1.133  0.00  0.00    -0.203 N 
ATOM     22  C   UNL     1       5.455   1.743   1.561  0.00  0.00    +0.263 C 
ATOM     23  O   UNL     1       5.572   2.943   1.402  0.00  0.00    -0.268 OA
ATOM     24  H   UNL     1       4.218   0.169   1.325  0.00  0.00    +0.178 HD
BRANCH  22  25
ATOM     25  C   UNL     1       6.534   0.976   2.225  0.00  0.00    +0.041 A 
ATOM     26  C   UNL     1       6.466  -0.417   2.329  0.00  0.00    +0.033 A 
ATOM     27  C   UNL     1       7.497  -1.093   2.952  0.00  0.00    +0.111 A 
ATOM     28  N   UNL     1       8.528  -0.442   3.453  0.00  0.00    -0.263 NA
ATOM     29  C   UNL     1       8.629   0.871   3.381  0.00  0.00    +0.111 A 
ATOM     30  C   UNL     1       7.646   1.625   2.770  0.00  0.00    +0.033 A 
ENDBRANCH  22  25
ENDBRANCH  20  21
ENDBRANCH   3  19
TORSDOF 4
