REMARK  Name = ZINC09126805
REMARK  10 active torsions:
REMARK  status: ('A' for Active; 'I' for Inactive)
REMARK    1  A    between atoms: C_1  and  C_2
REMARK    2  A    between atoms: C_2  and  C_3
REMARK    3  A    between atoms: C_3  and  N_4
REMARK    4  A    between atoms: C_5  and  N_30
REMARK    5  A    between atoms: C_6  and  C_13
REMARK    6  A    between atoms: N_9  and  C_12
REMARK    7  A    between atoms: C_13  and  C_15
REMARK    8  A    between atoms: C_15  and  S_16
REMARK    9  A    between atoms: S_16  and  C_17
REMARK   10  A    between atoms: C_21  and  C_23
REMARK                            x       y       z     vdW  Elec       q    Type
REMARK                         _______ _______ _______ _____ _____    ______ ____
ROOT
ATOM      1  C   UNL     1       0.309  -1.751   4.949  0.00  0.00    +0.182 C 
ATOM      2  O   UNL     1      -0.599  -2.505   4.662  0.00  0.00    -0.291 OA
ENDROOT
BRANCH   1   5
ATOM      3  N   UNL     1      -0.125   0.940   2.468  0.00  0.00    -0.281 N 
ATOM      4  C   UNL     1      -0.323  -0.242   3.123  0.00  0.00    +0.116 A 
ATOM      5  C   UNL     1       0.473  -0.541   4.242  0.00  0.00    +0.120 A 
ATOM      6  C   UNL     1       1.475   0.449   4.655  0.00  0.00    +0.269 A 
ATOM      7  O   UNL     1       2.188   0.245   5.621  0.00  0.00    -0.267 OA
ATOM      8  N   UNL     1       1.589   1.589   3.944  0.00  0.00    -0.263 N 
ATOM      9  C   UNL     1       0.803   1.818   2.879  0.00  0.00    +0.333 A 
ATOM     10  O   UNL     1       0.938   2.858   2.265  0.00  0.00    -0.246 OA
ATOM     11  C   UNL     1       2.583   2.591   4.338  0.00  0.00    +0.157 C 
BRANCH   4  12
ATOM     12  N   UNL     1      -1.272  -1.118   2.695  0.00  0.00    -0.344 N 
ATOM     13  H   UNL     1      -1.756  -0.946   1.873  0.00  0.00    +0.144 HD
ATOM     14  H   UNL     1      -1.465  -1.915   3.213  0.00  0.00    +0.144 HD
ENDBRANCH   4  12
BRANCH   3  15
ATOM     15  C   UNL     1      -0.945   1.258   1.297  0.00  0.00    +0.128 C 
BRANCH  15  17
ATOM     16  C   UNL     1      -1.113   1.071  -1.189  0.00  0.00    +0.005 C 
ATOM     17  C   UNL     1      -0.256   0.738   0.034  0.00  0.00    +0.018 C 
ENDBRANCH  15  17
ENDBRANCH   3  15
ENDBRANCH   1   5
BRANCH   1  18
ATOM     18  C   UNL     1       1.262  -2.109   6.061  0.00  0.00    +0.157 C 
BRANCH  18  19
ATOM     19  S   UNL     1       0.793  -3.708   6.767  0.00  0.00    -0.080 S 
BRANCH  19  20
ATOM     20  C   UNL     1       2.036  -3.873   8.005  0.00  0.00    +0.167 A 
ATOM     21  N   UNL     1       2.163  -4.919   8.867  0.00  0.00    -0.339 N 
ATOM     22  H   UNL     1       1.573  -5.724   8.912  0.00  0.00    +0.167 HD
ATOM     23  C   UNL     1       3.254  -4.663   9.663  0.00  0.00    +0.113 A 
ATOM     24  C   UNL     1       3.756  -3.466   9.271  0.00  0.00    +0.090 A 
ATOM     25  N   UNL     1       2.988  -3.005   8.252  0.00  0.00    -0.222 NA
BRANCH  24  26
ATOM     26  C   UNL     1       4.935  -2.781   9.854  0.00  0.00    +0.002 A 
ATOM     27  C   UNL     1       5.634  -3.367  10.908  0.00  0.00    +0.011 A 
ATOM     28  C   UNL     1       6.733  -2.728  11.444  0.00  0.00    +0.016 A 
ATOM     29  C   UNL     1       7.137  -1.502  10.942  0.00  0.00    +0.018 A 
ATOM     30  C   UNL     1       6.443  -0.914   9.899  0.00  0.00    +0.016 A 
ATOM     31  C   UNL     1       5.345  -1.547   9.353  0.00  0.00    +0.011 A 
ATOM     32 BR   UNL     1       8.640  -0.628  11.686  0.00  0.00    -0.050 Br
ENDBRANCH  24  26
ENDBRANCH  19  20
ENDBRANCH  18  19
ENDBRANCH   1  18
TORSDOF 8
