REMARK  Name = ZINC08623254
REMARK  9 active torsions:
REMARK  status: ('A' for Active; 'I' for Inactive)
REMARK    1  A    between atoms: C_4  and  C_7
REMARK    2  A    between atoms: C_7  and  C_8
REMARK    3  A    between atoms: C_13  and  C_14
REMARK    4  A    between atoms: C_13  and  N_70
REMARK    5  A    between atoms: C_22  and  C_24
REMARK    6  A    between atoms: C_24  and  N_25
REMARK    7  A    between atoms: N_25  and  C_26
REMARK    8  A    between atoms: C_26  and  N_28
REMARK    9  A    between atoms: N_28  and  C_29
REMARK                            x       y       z     vdW  Elec       q    Type
REMARK                         _______ _______ _______ _____ _____    ______ ____
ROOT
ATOM      1  C   UNL     1      -0.338   3.014   0.717  0.00  0.00    -0.041 C 
ATOM      2  C   UNL     1       1.096   3.477   0.442  0.00  0.00    -0.076 C 
ATOM      3  C   UNL     1       1.763   2.938   2.708  0.00  0.00    -0.078 C 
ATOM      4  C   UNL     1       0.348   2.459   3.047  0.00  0.00    -0.015 C 
ATOM      5  C   UNL     1      -0.658   3.247   2.199  0.00  0.00    -0.015 C 
ATOM      6  C   UNL     1      -0.492   4.741   2.505  0.00  0.00    -0.010 C 
ATOM      7  C   UNL     1       0.946   5.156   2.182  0.00  0.00    -0.051 C 
ATOM      8  N   UNL     1       1.716   3.998   1.679  0.00  0.00    +0.383 N 
ATOM      9  H   UNL     1       2.675   4.302   1.469  0.00  0.00    -0.081 HD
ENDROOT
BRANCH   1  10
ATOM     10  C   UNL     1      -1.310   3.813  -0.153  0.00  0.00    -0.077 C 
BRANCH  10  16
ATOM     11  C   UNL     1      -1.714   2.423  -4.176  0.00  0.00    -0.010 C 
ATOM     12  C   UNL     1      -1.701   3.928  -3.896  0.00  0.00    -0.015 C 
ATOM     13  C   UNL     1      -2.056   4.172  -2.428  0.00  0.00    -0.079 C 
ATOM     14  C   UNL     1      -1.111   2.035  -1.784  0.00  0.00    -0.079 C 
ATOM     15  C   UNL     1      -0.728   1.728  -3.234  0.00  0.00    -0.015 C 
ATOM     16  N   UNL     1      -1.055   3.498  -1.574  0.00  0.00    +0.380 N 
ATOM     17  H   UNL     1      -0.119   3.835  -1.827  0.00  0.00    -0.082 HD
BRANCH  11  18
ATOM     18  C   UNL     1      -1.302   2.169  -5.628  0.00  0.00    +0.038 C 
BRANCH  18  22
ATOM     19  C   UNL     1      -1.675  -1.995  -6.507  0.00  0.00    +0.000 A 
ATOM     20  C   UNL     1      -2.745  -1.146  -6.716  0.00  0.00    +0.000 A 
ATOM     21  C   UNL     1      -2.625   0.201  -6.431  0.00  0.00    +0.003 A 
ATOM     22  C   UNL     1      -1.434   0.700  -5.938  0.00  0.00    -0.047 A 
ATOM     23  C   UNL     1      -0.361  -0.148  -5.733  0.00  0.00    +0.003 A 
ATOM     24  C   UNL     1      -0.484  -1.497  -6.013  0.00  0.00    +0.000 A 
ENDBRANCH  18  22
ENDBRANCH  11  18
ENDBRANCH  10  16
ENDBRANCH   1  10
BRANCH   7  25
ATOM     25  C   UNL     1       0.933   6.248   1.110  0.00  0.00    +0.088 C 
BRANCH  25  26
ATOM     26  N   UNL     1       2.309   6.558   0.713  0.00  0.00    -0.328 N 
ATOM     27  H   UNL     1       3.050   6.088   1.125  0.00  0.00    +0.148 HD
BRANCH  26  28
ATOM     28  C   UNL     1       2.544   7.497  -0.225  0.00  0.00    +0.134 C 
ATOM     29  S   UNL     1       1.235   8.327  -0.952  0.00  0.00    -0.019 S 
BRANCH  28  30
ATOM     30  N   UNL     1       3.809   7.782  -0.591  0.00  0.00    -0.297 N 
ATOM     31  H   UNL     1       4.546   7.257  -0.240  0.00  0.00    +0.154 HD
BRANCH  30  32
ATOM     32  C   UNL     1       4.061   8.836  -1.476  0.00  0.00    +0.033 A 
ATOM     33  C   UNL     1       5.034   8.702  -2.458  0.00  0.00    +0.023 A 
ATOM     34  C   UNL     1       5.276   9.743  -3.333  0.00  0.00    +0.002 A 
ATOM     35  C   UNL     1       4.560  10.921  -3.226  0.00  0.00    +0.000 A 
ATOM     36  C   UNL     1       3.595  11.059  -2.245  0.00  0.00    +0.002 A 
ATOM     37  C   UNL     1       3.343  10.020  -1.370  0.00  0.00    +0.023 A 
ENDBRANCH  30  32
ENDBRANCH  28  30
ENDBRANCH  26  28
ENDBRANCH  25  26
ENDBRANCH   7  25
TORSDOF 9
