REMARK  Name = ZINC35303434
REMARK  12 active torsions:
REMARK  status: ('A' for Active; 'I' for Inactive)
REMARK    1  A    between atoms: C_1  and  C_2
REMARK    2  A    between atoms: C_3  and  C_31
REMARK    3  A    between atoms: C_4  and  C_11
REMARK    4  A    between atoms: N_9  and  C_10
REMARK    5  A    between atoms: C_14  and  N_17
REMARK    6  A    between atoms: C_18  and  C_20
REMARK    7  A    between atoms: C_23  and  C_25
REMARK    8  A    between atoms: C_31  and  O_33
REMARK    9  A    between atoms: O_33  and  C_34
REMARK   10  A    between atoms: C_34  and  C_35
REMARK   11  A    between atoms: C_35  and  C_36
REMARK   12  A    between atoms: C_35  and  C_37
REMARK                            x       y       z     vdW  Elec       q    Type
REMARK                         _______ _______ _______ _____ _____    ______ ____
ROOT
ATOM      1  C   UNL     1      -1.477  -2.979   1.365  0.00  0.00    -0.022 A 
ATOM      2  C   UNL     1      -0.628  -3.170   2.439  0.00  0.00    +0.007 A 
ATOM      3  C   UNL     1      -1.097  -3.759   3.597  0.00  0.00    +0.023 A 
ATOM      4  C   UNL     1      -2.424  -4.159   3.682  0.00  0.00    +0.033 A 
ATOM      5  C   UNL     1      -3.275  -3.965   2.601  0.00  0.00    +0.023 A 
ATOM      6  C   UNL     1      -2.801  -3.371   1.448  0.00  0.00    +0.007 A 
ENDROOT
BRANCH   1  10
ATOM      7  C   UNL     1       0.352   1.278   0.393  0.00  0.00    +0.061 C 
ATOM      8  C   UNL     1       0.267  -0.212   0.181  0.00  0.00    +0.021 C 
ATOM      9  C   UNL     1      -0.922  -0.837   0.325  0.00  0.00    +0.078 C 
ATOM     10  C   UNL     1      -0.962  -2.336   0.103  0.00  0.00    +0.141 C 
ATOM     11  N   UNL     1       0.308  -2.991  -0.253  0.00  0.00    -0.315 N 
ATOM     12  C   UNL     1       1.415  -2.230  -0.359  0.00  0.00    +0.137 C 
ATOM     13  S   UNL     1       2.898  -2.979  -0.773  0.00  0.00    -0.018 S 
ATOM     14  N   UNL     1       1.392  -0.907  -0.158  0.00  0.00    -0.289 N 
ATOM     15  C   UNL     1       2.646  -0.163  -0.302  0.00  0.00    +0.137 C 
ATOM     16  H   UNL     1       0.347  -3.948  -0.407  0.00  0.00    +0.149 HD
BRANCH   9  17
ATOM     17  C   UNL     1      -2.089  -0.118   0.671  0.00  0.00    +0.339 C 
ATOM     18  O   UNL     1      -2.033   1.085   0.845  0.00  0.00    -0.245 OA
BRANCH  17  19
ATOM     19  O   UNL     1      -3.265  -0.766   0.809  0.00  0.00    -0.461 OA
BRANCH  19  20
ATOM     20  C   UNL     1      -4.403   0.023   1.160  0.00  0.00    +0.235 C 
BRANCH  20  21
ATOM     21  C   UNL     1      -5.635  -0.878   1.270  0.00  0.00    +0.020 C 
ATOM     22  C   UNL     1      -6.826  -0.056   1.766  0.00  0.00    +0.010 C 
ATOM     23  C   UNL     1      -5.959  -1.468  -0.104  0.00  0.00    +0.010 C 
ENDBRANCH  20  21
ENDBRANCH  19  20
ENDBRANCH  17  19
ENDBRANCH   9  17
ENDBRANCH   1  10
BRANCH   4  24
ATOM     24  N   UNL     1      -2.903  -4.756   4.853  0.00  0.00    -0.285 N 
ATOM     25  C   UNL     1      -2.445  -4.348   6.053  0.00  0.00    +0.221 C 
ATOM     26  O   UNL     1      -1.573  -3.508   6.116  0.00  0.00    -0.275 OA
ATOM     27  H   UNL     1      -3.565  -5.463   4.801  0.00  0.00    +0.155 HD
BRANCH  25  28
ATOM     28  C   UNL     1      -3.018  -4.935   7.317  0.00  0.00    +0.083 C 
ATOM     29  C   UNL     1      -3.863  -4.018   8.203  0.00  0.00    +0.022 C 
ATOM     30  C   UNL     1      -2.458  -4.429   8.648  0.00  0.00    +0.032 C 
BRANCH  30  31
ATOM     31  C   UNL     1      -1.375  -3.382   8.595  0.00  0.00    -0.044 A 
ATOM     32  C   UNL     1      -1.625  -2.161   7.997  0.00  0.00    +0.004 A 
ATOM     33  C   UNL     1      -0.633  -1.200   7.948  0.00  0.00    +0.000 A 
ATOM     34  C   UNL     1       0.609  -1.460   8.496  0.00  0.00    +0.000 A 
ATOM     35  C   UNL     1       0.858  -2.681   9.095  0.00  0.00    +0.000 A 
ATOM     36  C   UNL     1      -0.135  -3.640   9.148  0.00  0.00    +0.004 A 
ENDBRANCH  30  31
ENDBRANCH  25  28
ENDBRANCH   4  24
TORSDOF 8
