REMARK  Name = ZINC50375987
REMARK  5 active torsions:
REMARK  status: ('A' for Active; 'I' for Inactive)
REMARK    1  A    between atoms: C_1  and  C_2
REMARK    2  A    between atoms: C_9  and  C_20
REMARK    3  A    between atoms: N_10  and  C_11
REMARK    4  A    between atoms: C_16  and  O_18
REMARK    5  A    between atoms: O_18  and  C_19
REMARK                            x       y       z     vdW  Elec       q    Type
REMARK                         _______ _______ _______ _____ _____    ______ ____
ROOT
ATOM      1  C   UNL     1      -0.771   0.956   1.130  0.00  0.00    +0.044 C 
ATOM      2  C   UNL     1      -0.630  -0.500   0.767  0.00  0.00    -0.048 A 
ATOM      3  C   UNL     1      -0.433  -0.861  -0.558  0.00  0.00    +0.005 A 
ATOM      4  C   UNL     1      -0.302  -2.188  -0.909  0.00  0.00    +0.028 A 
ATOM      5  C   UNL     1      -0.368  -3.168   0.072  0.00  0.00    +0.069 A 
ATOM      6  C   UNL     1      -0.568  -2.802   1.414  0.00  0.00    +0.090 A 
ATOM      7  C   UNL     1      -0.693  -1.450   1.746  0.00  0.00    +0.033 A 
ATOM      8  N   UNL     1      -0.590  -3.950   2.139  0.00  0.00    -0.231 NA
ATOM      9  C   UNL     1      -0.421  -4.970   1.348  0.00  0.00    +0.126 A 
ATOM     10  N   UNL     1      -0.279  -4.546   0.063  0.00  0.00    -0.321 N 
ENDROOT
BRANCH  10  11
ATOM     11  C   UNL     1      -0.071  -5.394  -1.113  0.00  0.00    +0.118 C 
ATOM     12  C   UNL     1      -0.893  -6.693  -0.980  0.00  0.00    +0.028 C 
ATOM     13  C   UNL     1      -2.198  -6.398  -1.760  0.00  0.00    +0.005 C 
ATOM     14  C   UNL     1      -1.695  -5.568  -2.967  0.00  0.00    +0.034 C 
ATOM     15  C   UNL     1      -0.580  -4.678  -2.377  0.00  0.00    +0.141 C 
BRANCH  15  16
ATOM     16  O   UNL     1       0.484  -4.535  -3.320  0.00  0.00    -0.378 OA
ATOM     17  C   UNL     1       0.314  -3.444  -4.227  0.00  0.00    +0.194 C 
ENDBRANCH  15  16
ENDBRANCH  10  11
BRANCH   9  18
ATOM     18  C   UNL     1      -0.387  -6.410   1.791  0.00  0.00    +0.183 C 
ATOM     19 CL   UNL     1      -2.072  -7.033   1.939  0.00  0.00    -0.117 Cl
ENDBRANCH   9  18
TORSDOF 3
