REMARK  Name = ZINC34716249
REMARK  10 active torsions:
REMARK  status: ('A' for Active; 'I' for Inactive)
REMARK    1  A    between atoms: C_1  and  C_2
REMARK    2  A    between atoms: C_2  and  C_3
REMARK    3  A    between atoms: C_3  and  C_5
REMARK    4  A    between atoms: C_3  and  N_6
REMARK    5  A    between atoms: C_7  and  C_9
REMARK    6  A    between atoms: C_12  and  C_23
REMARK    7  A    between atoms: N_19  and  C_20
REMARK    8  A    between atoms: C_20  and  C_21
REMARK    9  A    between atoms: C_20  and  C_22
REMARK   10  A    between atoms: C_27  and  C_29
REMARK                            x       y       z     vdW  Elec       q    Type
REMARK                         _______ _______ _______ _____ _____    ______ ____
ROOT
ATOM      1  C   UNL     1      -0.234   0.426  -4.843  0.00  0.00    +0.093 C 
ATOM      2  C   UNL     1       0.696   0.513  -6.055  0.00  0.00    +0.024 C 
ATOM      3  C   UNL     1      -0.117   0.877  -7.300  0.00  0.00    +0.037 C 
ATOM      4  C   UNL     1      -0.773   2.246  -7.094  0.00  0.00    +0.117 C 
ATOM      5  N   UNL     1      -1.554   2.214  -5.850  0.00  0.00    -0.284 N 
ATOM      6  C   UNL     1      -0.891   1.789  -4.609  0.00  0.00    +0.122 C 
ATOM      7  C   UNL     1      -2.855   2.567  -5.847  0.00  0.00    +0.302 C 
ATOM      8  O   UNL     1      -3.515   2.446  -4.833  0.00  0.00    -0.253 OA
ATOM      9  N   UNL     1      -3.423   3.055  -6.967  0.00  0.00    -0.297 N 
ATOM     10  H   UNL     1      -2.917   3.084  -7.795  0.00  0.00    +0.150 HD
ENDROOT
BRANCH   3  11
ATOM     11  C   UNL     1       0.794   0.930  -8.498  0.00  0.00    -0.042 A 
ATOM     12  C   UNL     1       1.858   1.813  -8.519  0.00  0.00    +0.007 A 
ATOM     13  C   UNL     1       2.695   1.862  -9.617  0.00  0.00    +0.039 A 
ATOM     14  C   UNL     1       2.467   1.027 -10.698  0.00  0.00    +0.126 A 
ATOM     15  C   UNL     1       1.402   0.143 -10.677  0.00  0.00    -0.015 A 
ATOM     16  C   UNL     1       0.570   0.092  -9.574  0.00  0.00    +0.010 A 
ATOM     17  C   UNL     1       1.153  -0.766 -11.852  0.00  0.00    +0.047 C 
ATOM     18  F   UNL     1       3.285   1.075 -11.773  0.00  0.00    -0.205 F 
ENDBRANCH   3  11
BRANCH   1  20
ATOM     19  N   UNL     1      -0.052  -0.101  -2.433  0.00  0.00    -0.312 N 
ATOM     20  C   UNL     1       0.563   0.036  -3.625  0.00  0.00    +0.218 C 
ATOM     21  O   UNL     1       1.757  -0.155  -3.717  0.00  0.00    -0.275 OA
ATOM     22  H   UNL     1      -1.007   0.052  -2.360  0.00  0.00    +0.149 HD
BRANCH  19  23
ATOM     23  C   UNL     1       0.723  -0.480  -1.249  0.00  0.00    +0.070 C 
ATOM     24  C   UNL     1       0.853  -2.003  -1.191  0.00  0.00    +0.028 C 
BRANCH  23  26
ATOM     25  C   UNL     1      -0.012   1.548   0.011  0.00  0.00    +0.005 C 
ATOM     26  C   UNL     1       0.008   0.019   0.009  0.00  0.00    +0.018 C 
ENDBRANCH  23  26
ENDBRANCH  19  23
ENDBRANCH   1  20
BRANCH   9  27
ATOM     27  C   UNL     1      -4.805   3.540  -6.936  0.00  0.00    +0.068 C 
ATOM     28  C   UNL     1      -5.011   4.563  -8.055  0.00  0.00    +0.027 C 
ATOM     29  C   UNL     1      -5.763   2.365  -7.137  0.00  0.00    +0.027 C 
ENDBRANCH   9  27
TORSDOF 5
