REMARK  Name = ZINC58113414
REMARK  7 active torsions:
REMARK  status: ('A' for Active; 'I' for Inactive)
REMARK    1  A    between atoms: C_1  and  C_2
REMARK    2  A    between atoms: C_2  and  C_3
REMARK    3  A    between atoms: C_2  and  N_10
REMARK    4  A    between atoms: C_11  and  C_13
REMARK    5  A    between atoms: C_13  and  C_14
REMARK    6  A    between atoms: C_13  and  N_21
REMARK    7  A    between atoms: C_14  and  C_15
REMARK                            x       y       z     vdW  Elec       q    Type
REMARK                         _______ _______ _______ _____ _____    ______ ____
ROOT
ATOM      1  C   UNL     1       0.780  -1.133   3.576  0.00  0.00    +0.165 C 
ENDROOT
BRANCH   1   2
ATOM      2  N   UNL     1       0.030  -0.762   4.779  0.00  0.00    -0.288 N 
ATOM      3  C   UNL     1      -1.232  -1.204   4.949  0.00  0.00    +0.298 C 
ATOM      4  O   UNL     1      -1.747  -1.911   4.105  0.00  0.00    -0.253 OA
ATOM      5  N   UNL     1      -1.922  -0.863   6.055  0.00  0.00    -0.313 N 
ATOM      6  H   UNL     1       0.441  -0.198   5.452  0.00  0.00    +0.151 HD
ATOM      7  H   UNL     1      -1.511  -0.299   6.729  0.00  0.00    +0.146 HD
ATOM      8  H   UNL     1      -2.830  -1.182   6.178  0.00  0.00    +0.146 HD
ENDBRANCH   1   2
BRANCH   1  10
ATOM      9  N   UNL     1       0.711  -0.489   1.189  0.00  0.00    -0.307 N 
ATOM     10  C   UNL     1       0.051  -0.633   2.355  0.00  0.00    +0.234 C 
ATOM     11  O   UNL     1      -1.129  -0.361   2.423  0.00  0.00    -0.274 OA
ATOM     12  H   UNL     1       1.654  -0.707   1.135  0.00  0.00    +0.149 HD
BRANCH   9  14
ATOM     13  C   UNL     1      -0.019   1.526   0.010  0.00  0.00    +0.033 C 
ATOM     14  C   UNL     1       0.002  -0.004   0.002  0.00  0.00    +0.100 C 
BRANCH  14  15
ATOM     15  C   UNL     1       0.707  -0.490  -1.238  0.00  0.00    -0.027 A 
ATOM     16  C   UNL     1       2.089  -0.511  -1.284  0.00  0.00    +0.006 A 
ATOM     17  C   UNL     1       2.736  -0.957  -2.421  0.00  0.00    +0.015 A 
ATOM     18  C   UNL     1       2.002  -1.383  -3.512  0.00  0.00    +0.018 A 
ATOM     19  C   UNL     1       0.619  -1.362  -3.466  0.00  0.00    +0.015 A 
ATOM     20  C   UNL     1      -0.027  -0.920  -2.327  0.00  0.00    +0.006 A 
ATOM     21 BR   UNL     1       2.887  -1.992  -5.068  0.00  0.00    -0.050 Br
ENDBRANCH  14  15
ENDBRANCH   9  14
ENDBRANCH   1  10
BRANCH   1  22
ATOM     22  C   UNL     1       0.910  -2.655   3.506  0.00  0.00    +0.067 C 
BRANCH  22  23
ATOM     23  C   UNL     1       1.744  -3.143   4.662  0.00  0.00    -0.045 A 
ATOM     24  C   UNL     1       3.116  -3.246   4.530  0.00  0.00    +0.004 A 
ATOM     25  C   UNL     1       3.881  -3.693   5.591  0.00  0.00    +0.000 A 
ATOM     26  C   UNL     1       3.275  -4.036   6.784  0.00  0.00    +0.000 A 
ATOM     27  C   UNL     1       1.903  -3.933   6.917  0.00  0.00    +0.000 A 
ATOM     28  C   UNL     1       1.138  -3.481   5.857  0.00  0.00    +0.004 A 
ENDBRANCH  22  23
ENDBRANCH   1  22
TORSDOF 6
