REMARK  Name = ZINC55999590
REMARK  8 active torsions:
REMARK  status: ('A' for Active; 'I' for Inactive)
REMARK    1  A    between atoms: C_1  and  C_2
REMARK    2  A    between atoms: C_5  and  C_8
REMARK    3  A    between atoms: C_9  and  S_10
REMARK    4  A    between atoms: S_10  and  N_13
REMARK    5  A    between atoms: N_13  and  C_14
REMARK    6  A    between atoms: C_14  and  C_16
REMARK    7  A    between atoms: C_14  and  C_23
REMARK    8  A    between atoms: N_27  and  C_28
REMARK                            x       y       z     vdW  Elec       q    Type
REMARK                         _______ _______ _______ _____ _____    ______ ____
ROOT
ATOM      1  N   UNL     1       1.542  -7.156   1.772  0.00  0.00    -0.176 NA
ATOM      2  H   UNL     1       2.192  -7.627   1.227  0.00  0.00    +0.149 HD
ENDROOT
BRANCH   1   3
ATOM      3  S   UNL     1       0.098  -6.682   1.113  0.00  0.00    +0.053 S 
ATOM      4  O   UNL     1      -0.917  -7.106   2.012  0.00  0.00    -0.154 OA
ATOM      5  O   UNL     1       0.123  -7.080  -0.251  0.00  0.00    -0.154 OA
BRANCH   3   7
ATOM      6  C   UNL     1       0.060  -4.251  -0.021  0.00  0.00    +0.028 C 
ATOM      7  C   UNL     1       0.074  -4.920   1.123  0.00  0.00    +0.153 C 
BRANCH   6  12
ATOM      8  C   UNL     1      -0.018   1.503   0.010  0.00  0.00    +0.044 C 
ATOM      9  C   UNL     1       0.002  -0.004   0.002  0.00  0.00    -0.050 A 
ATOM     10  C   UNL     1       0.006  -0.686  -1.202  0.00  0.00    +0.004 A 
ATOM     11  C   UNL     1       0.024  -2.066  -1.216  0.00  0.00    +0.008 A 
ATOM     12  C   UNL     1       0.040  -2.773  -0.013  0.00  0.00    -0.024 A 
ATOM     13  C   UNL     1       0.037  -2.079   1.197  0.00  0.00    +0.008 A 
ATOM     14  C   UNL     1       0.023  -0.699   1.198  0.00  0.00    +0.004 A 
ENDBRANCH   6  12
ENDBRANCH   3   7
ENDBRANCH   1   3
BRANCH   1  15
ATOM     15  C   UNL     1       1.837  -6.864   3.177  0.00  0.00    +0.172 C 
BRANCH  15  16
ATOM     16  C   UNL     1       2.641  -7.994   3.766  0.00  0.00    -0.019 A 
ATOM     17  C   UNL     1       3.642  -8.592   3.022  0.00  0.00    +0.006 A 
ATOM     18  C   UNL     1       4.380  -9.628   3.561  0.00  0.00    +0.003 A 
ATOM     19  C   UNL     1       4.119 -10.068   4.845  0.00  0.00    +0.038 A 
ATOM     20  C   UNL     1       3.118  -9.471   5.591  0.00  0.00    +0.124 A 
ATOM     21  C   UNL     1       2.383  -8.428   5.052  0.00  0.00    +0.044 A 
ATOM     22  F   UNL     1       2.862  -9.900   6.846  0.00  0.00    -0.205 F 
ENDBRANCH  15  16
BRANCH  15  23
ATOM     23  C   UNL     1       2.627  -5.584   3.268  0.00  0.00    +0.133 A 
ATOM     24  N   UNL     1       3.639  -5.258   2.511  0.00  0.00    -0.239 NA
ATOM     25  C   UNL     1       4.094  -4.051   2.876  0.00  0.00    +0.130 A 
ATOM     26  C   UNL     1       3.335  -3.611   3.898  0.00  0.00    +0.106 A 
ATOM     27  N   UNL     1       2.401  -4.581   4.144  0.00  0.00    -0.336 N 
ATOM     28  C   UNL     1       1.354  -4.540   5.168  0.00  0.00    +0.150 C 
ENDBRANCH  15  23
ENDBRANCH   1  15
TORSDOF 6
