REMARK  Name = ZINC01410472
REMARK  8 active torsions:
REMARK  status: ('A' for Active; 'I' for Inactive)
REMARK    1  A    between atoms: C_4  and  C_7
REMARK    2  A    between atoms: C_9  and  C_27
REMARK    3  A    between atoms: C_10  and  C_21
REMARK    4  A    between atoms: N_11  and  C_12
REMARK    5  A    between atoms: C_15  and  N_18
REMARK    6  A    between atoms: N_28  and  N_29
REMARK    7  A    between atoms: C_30  and  C_32
REMARK    8  A    between atoms: C_32  and  C_33
REMARK                            x       y       z     vdW  Elec       q    Type
REMARK                         _______ _______ _______ _____ _____    ______ ____
ROOT
ATOM      1  C   UNL     1      -3.859   5.638   0.087  0.00  0.00    +0.055 A 
ATOM      2  C   UNL     1      -2.513   5.279   0.146  0.00  0.00    +0.038 A 
ATOM      3  C   UNL     1      -2.437   3.891   0.061  0.00  0.00    +0.021 A 
ATOM      4  C   UNL     1      -3.839   3.405  -0.046  0.00  0.00    +0.063 A 
ATOM      5  N   UNL     1      -4.642   4.505  -0.024  0.00  0.00    -0.308 N 
ENDROOT
BRANCH   1   9
ATOM      6  C   UNL     1      -5.330   9.609   0.245  0.00  0.00    +0.000 A 
ATOM      7  C   UNL     1      -4.071   9.321   0.750  0.00  0.00    +0.001 A 
ATOM      8  C   UNL     1      -3.584   8.034   0.703  0.00  0.00    +0.010 A 
ATOM      9  C   UNL     1      -4.368   7.012   0.142  0.00  0.00    -0.001 A 
ATOM     10  C   UNL     1      -5.639   7.315  -0.371  0.00  0.00    +0.010 A 
ATOM     11  C   UNL     1      -6.110   8.607  -0.310  0.00  0.00    +0.001 A 
ENDBRANCH   1   9
BRANCH   5  12
ATOM     12  C   UNL     1      -6.040   4.490  -0.102  0.00  0.00    +0.047 A 
ATOM     13  C   UNL     1      -6.667   4.103  -1.279  0.00  0.00    +0.028 A 
ATOM     14  C   UNL     1      -8.046   4.084  -1.351  0.00  0.00    +0.035 A 
ATOM     15  C   UNL     1      -8.802   4.461  -0.256  0.00  0.00    +0.126 A 
ATOM     16  C   UNL     1      -8.180   4.853   0.915  0.00  0.00    +0.035 A 
ATOM     17  C   UNL     1      -6.802   4.869   0.995  0.00  0.00    +0.028 A 
BRANCH  15  18
ATOM     18  N   UNL     1     -10.280   4.445  -0.339  0.00  0.00    +0.056 N 
ATOM     19  O   UNL     1     -11.001   4.804   0.703  0.00  0.00    -0.126 OA
ATOM     20  O   UNL     1     -10.873   4.072  -1.454  0.00  0.00    -0.126 OA
ENDBRANCH  15  18
ENDBRANCH   5  12
BRANCH   4  21
ATOM     21  C   UNL     1      -4.258   2.060  -0.150  0.00  0.00    -0.001 A 
ATOM     22  C   UNL     1      -5.334   1.588   0.630  0.00  0.00    +0.010 A 
ATOM     23  C   UNL     1      -5.733   0.287   0.516  0.00  0.00    +0.001 A 
ATOM     24  C   UNL     1      -5.077  -0.572  -0.353  0.00  0.00    +0.000 A 
ATOM     25  C   UNL     1      -4.013  -0.121  -1.122  0.00  0.00    +0.001 A 
ATOM     26  C   UNL     1      -3.599   1.177  -1.030  0.00  0.00    +0.010 A 
ENDBRANCH   4  21
BRANCH   3  27
ATOM     27  C   UNL     1      -1.268   3.105   0.079  0.00  0.00    +0.140 C 
ATOM     28  N   UNL     1      -1.355   1.796  -0.005  0.00  0.00    -0.188 NA
BRANCH  28  29
ATOM     29  N   UNL     1      -0.285   1.076   0.011  0.00  0.00    -0.206 N 
ATOM     30  C   UNL     1      -0.374  -0.266  -0.074  0.00  0.00    +0.246 C 
ATOM     31  O   UNL     1      -1.460  -0.797  -0.161  0.00  0.00    -0.273 OA
ATOM     32  H   UNL     1       0.584   1.501   0.081  0.00  0.00    +0.177 HD
BRANCH  30  33
ATOM     33  C   UNL     1       0.877  -1.107  -0.062  0.00  0.00    +0.215 C 
BRANCH  33  34
ATOM     34  C   UNL     1       0.513  -2.529  -0.166  0.00  0.00    +0.072 C 
ATOM     35  N   UNL     1       0.232  -3.627  -0.247  0.00  0.00    -0.196 NA
ENDBRANCH  33  34
ENDBRANCH  30  33
ENDBRANCH  28  29
ENDBRANCH   3  27
TORSDOF 8
