REMARK  Name = ZINC35926690
REMARK  8 active torsions:
REMARK  status: ('A' for Active; 'I' for Inactive)
REMARK    1  A    between atoms: C_1  and  C_2
REMARK    2  A    between atoms: C_2  and  C_3
REMARK    3  A    between atoms: C_2  and  C_4
REMARK    4  A    between atoms: C_2  and  C_5
REMARK    5  A    between atoms: C_5  and  C_6
REMARK    6  A    between atoms: C_20  and  C_22
REMARK    7  A    between atoms: C_22  and  N_23
REMARK    8  A    between atoms: N_26  and  C_29
REMARK                            x       y       z     vdW  Elec       q    Type
REMARK                         _______ _______ _______ _____ _____    ______ ____
ROOT
ATOM      1  C   UNL     1       1.258   1.845  -2.525  0.00  0.00    +0.216 C 
ATOM      2  O   UNL     1       0.192   1.277  -2.413  0.00  0.00    -0.276 OA
ATOM      3  N   UNL     1       2.083   1.536  -3.545  0.00  0.00    -0.298 N 
ATOM      4  C   UNL     1       3.380   2.212  -3.689  0.00  0.00    +0.126 C 
ATOM      5  C   UNL     1       4.483   1.147  -3.747  0.00  0.00    +0.127 C 
ATOM      6  N   UNL     1       4.101   0.129  -4.736  0.00  0.00    -0.298 N 
ATOM      7  C   UNL     1       2.804  -0.547  -4.591  0.00  0.00    +0.127 C 
ATOM      8  C   UNL     1       1.703   0.513  -4.530  0.00  0.00    +0.126 C 
ATOM      9  C   UNL     1       4.938  -0.185  -5.772  0.00  0.00    +0.199 A 
ATOM     10  N   UNL     1       6.182   0.366  -5.817  0.00  0.00    -0.295 N 
ATOM     11  H   UNL     1       6.470   0.975  -5.119  0.00  0.00    +0.172 HD
ATOM     12  C   UNL     1       7.013   0.061  -6.836  0.00  0.00    +0.253 A 
ATOM     13  O   UNL     1       8.132   0.545  -6.891  0.00  0.00    -0.268 OA
ATOM     14  C   UNL     1       6.566  -0.826  -7.831  0.00  0.00    +0.094 A 
ATOM     15  C   UNL     1       5.309  -1.347  -7.733  0.00  0.00    +0.064 A 
ATOM     16  N   UNL     1       4.528  -1.019  -6.706  0.00  0.00    -0.219 NA
ENDROOT
BRANCH   1  17
ATOM     17  C   UNL     1       1.661   2.896  -1.522  0.00  0.00    +0.102 C 
BRANCH  17  19
ATOM     18  C   UNL     1       0.340   1.718   0.242  0.00  0.00    +0.011 C 
ATOM     19  C   UNL     1       0.555   3.052  -0.476  0.00  0.00    -0.029 C 
ATOM     20  C   UNL     1      -0.743   3.476  -1.165  0.00  0.00    +0.011 C 
ATOM     21  C   UNL     1       0.964   4.119   0.542  0.00  0.00    +0.011 C 
ENDBRANCH  17  19
ENDBRANCH   1  17
BRANCH  15  22
ATOM     22  C   UNL     1       4.805  -2.300  -8.787  0.00  0.00    +0.140 C 
BRANCH  22  23
ATOM     23  N   UNL     1       4.584  -3.622  -8.186  0.00  0.00    -0.300 NA
ATOM     24  C   UNL     1       5.854  -4.224  -7.756  0.00  0.00    +0.066 C 
ATOM     25  C   UNL     1       5.575  -5.570  -7.084  0.00  0.00    -0.063 C 
ATOM     26  N   UNL     1       4.889  -6.458  -8.031  0.00  0.00    +0.383 N 
ATOM     27  C   UNL     1       3.611  -5.855  -8.432  0.00  0.00    -0.063 C 
ATOM     28  C   UNL     1       3.874  -4.511  -9.116  0.00  0.00    +0.066 C 
ATOM     29  H   UNL     1       5.468  -6.592  -8.846  0.00  0.00    -0.081 HD
BRANCH  26  30
ATOM     30  C   UNL     1       4.637  -7.756  -7.391  0.00  0.00    -0.068 C 
ATOM     31  C   UNL     1       5.968  -8.386  -6.974  0.00  0.00    -0.015 C 
ATOM     32  C   UNL     1       5.706  -9.738  -6.308  0.00  0.00    -0.002 C 
ATOM     33  C   UNL     1       4.991 -10.663  -7.295  0.00  0.00    -0.000 C 
ATOM     34  C   UNL     1       3.660 -10.033  -7.711  0.00  0.00    -0.002 C 
ATOM     35  C   UNL     1       3.922  -8.681  -8.378  0.00  0.00    -0.015 C 
ENDBRANCH  26  30
ENDBRANCH  22  23
ENDBRANCH  15  22
TORSDOF 5
