REMARK  Name = ZINC35427165
REMARK  7 active torsions:
REMARK  status: ('A' for Active; 'I' for Inactive)
REMARK    1  A    between atoms: C_1  and  C_2
REMARK    2  A    between atoms: C_5  and  N_9
REMARK    3  A    between atoms: C_6  and  C_8
REMARK    4  A    between atoms: C_24  and  C_26
REMARK    5  A    between atoms: C_29  and  O_32
REMARK    6  A    between atoms: O_32  and  C_33
REMARK    7  A    between atoms: N_35  and  C_38
REMARK                            x       y       z     vdW  Elec       q    Type
REMARK                         _______ _______ _______ _____ _____    ______ ____
ROOT
ATOM      1  N   UNL     1       0.049  -3.680  -0.737  0.00  0.00    -0.269 N 
ATOM      2  C   UNL     1      -0.015  -4.605  -1.715  0.00  0.00    +0.308 C 
ATOM      3  O   UNL     1       0.057  -4.264  -2.880  0.00  0.00    -0.252 OA
ATOM      4  N   UNL     1      -0.159  -5.908  -1.402  0.00  0.00    -0.268 N 
ATOM      5  C   UNL     1      -0.256  -6.359  -0.002  0.00  0.00    +0.148 C 
ATOM      6  C   UNL     1      -1.271  -7.465   0.187  0.00  0.00    +0.004 A 
ATOM      7  C   UNL     1      -2.485  -7.287   0.876  0.00  0.00    -0.034 A 
ATOM      8  C   UNL     1      -3.308  -8.364   1.002  0.00  0.00    -0.021 A 
ATOM      9  S   UNL     1      -2.439  -9.661   0.162  0.00  0.00    -0.077 S 
ATOM     10  C   UNL     1      -1.033  -8.705  -0.321  0.00  0.00    +0.090 A 
ATOM     11  N   UNL     1       0.092  -9.040  -1.065  0.00  0.00    -0.312 N 
ATOM     12  C   UNL     1       0.925 -10.104  -1.000  0.00  0.00    +0.092 A 
ATOM     13  C   UNL     1       1.913  -9.918  -1.905  0.00  0.00    +0.020 A 
ATOM     14  C   UNL     1       1.659  -8.696  -2.566  0.00  0.00    +0.025 A 
ATOM     15  C   UNL     1       0.528  -8.189  -2.054  0.00  0.00    +0.049 A 
ATOM     16  C   UNL     1      -0.234  -6.955  -2.449  0.00  0.00    +0.155 C 
ATOM     17  C   UNL     1      -4.630  -8.406   1.695  0.00  0.00    -0.036 C 
ATOM     18  N   UNL     1      -4.749  -7.202   2.538  0.00  0.00    +0.381 N 
ATOM     19  C   UNL     1      -4.419  -6.013   1.742  0.00  0.00    -0.074 C 
ATOM     20  C   UNL     1      -2.912  -5.951   1.479  0.00  0.00    +0.018 C 
ATOM     21  C   UNL     1      -6.126  -7.090   3.039  0.00  0.00    -0.096 C 
ATOM     22  H   UNL     1       0.064  -3.957   0.192  0.00  0.00    +0.156 HD
ATOM     23  H   UNL     1      -4.112  -7.272   3.318  0.00  0.00    -0.082 HD
ENDROOT
BRANCH   1  28
ATOM     24  C   UNL     1       0.233   1.834  -2.058  0.00  0.00    +0.044 C 
ATOM     25  C   UNL     1       0.185   0.370  -1.707  0.00  0.00    -0.050 A 
ATOM     26  C   UNL     1       0.697  -0.568  -2.586  0.00  0.00    +0.005 A 
ATOM     27  C   UNL     1       0.654  -1.911  -2.267  0.00  0.00    +0.024 A 
ATOM     28  C   UNL     1       0.095  -2.320  -1.063  0.00  0.00    +0.038 A 
ATOM     29  C   UNL     1      -0.418  -1.376  -0.183  0.00  0.00    -0.029 A 
ATOM     30  C   UNL     1      -0.367  -0.034  -0.505  0.00  0.00    +0.008 A 
ATOM     31  C   UNL     1      -1.026  -1.815   1.124  0.00  0.00    +0.045 C 
ENDBRANCH   1  28
BRANCH  16  32
ATOM     32  C   UNL     1      -1.679  -7.317  -2.679  0.00  0.00    -0.021 A 
ATOM     33  C   UNL     1      -2.673  -6.397  -2.403  0.00  0.00    +0.009 A 
ATOM     34  C   UNL     1      -3.998  -6.727  -2.613  0.00  0.00    +0.046 A 
ATOM     35  C   UNL     1      -4.331  -7.982  -3.100  0.00  0.00    +0.120 A 
ATOM     36  C   UNL     1      -3.331  -8.904  -3.376  0.00  0.00    +0.046 A 
ATOM     37  C   UNL     1      -2.007  -8.568  -3.170  0.00  0.00    +0.009 A 
BRANCH  35  38
ATOM     38  O   UNL     1      -5.633  -8.309  -3.307  0.00  0.00    -0.495 OA
ATOM     39  C   UNL     1      -5.902  -9.619  -3.810  0.00  0.00    +0.277 C 
ENDBRANCH  35  38
ENDBRANCH  16  32
TORSDOF 3
