REMARK  Name = ZINC06498813
REMARK  18 active torsions:
REMARK  status: ('A' for Active; 'I' for Inactive)
REMARK    1  A    between atoms: C_1  and  C_2
REMARK    2  A    between atoms: C_2  and  C_3
REMARK    3  A    between atoms: C_3  and  O_4
REMARK    4  A    between atoms: O_4  and  C_5
REMARK    5  A    between atoms: C_8  and  C_11
REMARK    6  A    between atoms: C_13  and  C_23
REMARK    7  A    between atoms: C_14  and  O_22
REMARK    8  A    between atoms: N_17  and  C_18
REMARK    9  A    between atoms: C_18  and  C_19
REMARK   10  A    between atoms: C_19  and  N_68
REMARK   11  A    between atoms: C_20  and  N_68
REMARK   12  A    between atoms: C_21  and  N_68
REMARK   13  A    between atoms: C_23  and  C_25
REMARK   14  A    between atoms: C_26  and  C_36
REMARK   15  A    between atoms: C_27  and  C_32
REMARK   16  A    between atoms: C_30  and  C_31
REMARK   17  A    between atoms: C_32  and  O_34
REMARK   18  A    between atoms: O_34  and  C_35
REMARK                            x       y       z     vdW  Elec       q    Type
REMARK                         _______ _______ _______ _____ _____    ______ ____
ROOT
ATOM      1  C   UNL     1       2.649  -0.434  -0.101  0.00  0.00    +0.144 C 
ATOM      2  C   UNL     1       1.232  -0.958  -0.135  0.00  0.00    +0.071 C 
ATOM      3  C   UNL     1       1.316  -2.305  -0.228  0.00  0.00    +0.188 C 
ATOM      4  C   UNL     1       2.739  -2.703  -0.252  0.00  0.00    +0.282 C 
ATOM      5  O   UNL     1       3.142  -3.846  -0.330  0.00  0.00    -0.267 OA
ATOM      6  N   UNL     1       3.522  -1.611  -0.174  0.00  0.00    -0.285 N 
ENDROOT
BRANCH   1  10
ATOM      7  C   UNL     1       3.347   1.679   3.547  0.00  0.00    +0.121 A 
ATOM      8  C   UNL     1       3.028   2.376   2.391  0.00  0.00    +0.046 A 
ATOM      9  C   UNL     1       2.803   1.690   1.213  0.00  0.00    +0.009 A 
ATOM     10  C   UNL     1       2.895   0.311   1.186  0.00  0.00    -0.022 A 
ATOM     11  C   UNL     1       3.207  -0.386   2.338  0.00  0.00    +0.009 A 
ATOM     12  C   UNL     1       3.439   0.295   3.517  0.00  0.00    +0.046 A 
BRANCH   7  13
ATOM     13  O   UNL     1       3.570   2.351   4.707  0.00  0.00    -0.492 OA
BRANCH  13  14
ATOM     14  C   UNL     1       3.893   1.569   5.859  0.00  0.00    +0.229 C 
BRANCH  14  16
ATOM     15  C   UNL     1       4.454   1.655   8.292  0.00  0.00    +0.007 C 
ATOM     16  C   UNL     1       4.107   2.492   7.059  0.00  0.00    +0.038 C 
ENDBRANCH  14  16
ENDBRANCH  13  14
ENDBRANCH   7  13
ENDBRANCH   1  10
BRANCH   3  17
ATOM     17  O   UNL     1       0.264  -3.153  -0.290  0.00  0.00    -0.502 OA
ATOM     18  H   UNL     1       0.597  -4.094  -0.354  0.00  0.00    +0.292 HD
ENDBRANCH   3  17
BRANCH   2  19
ATOM     19  C   UNL     1       0.003  -0.159  -0.084  0.00  0.00    +0.197 C 
ATOM     20  O   UNL     1      -0.370   0.317   0.973  0.00  0.00    -0.287 OA
BRANCH  19  21
ATOM     21  C   UNL     1      -0.781   0.067  -1.312  0.00  0.00    +0.046 A 
ATOM     22  C   UNL     1      -2.034   0.714  -1.401  0.00  0.00    -0.008 A 
ATOM     23  C   UNL     1      -2.395   0.706  -2.717  0.00  0.00    +0.128 A 
ATOM     24  N   UNL     1      -1.405   0.067  -3.433  0.00  0.00    -0.352 N 
ATOM     25  H   UNL     1      -1.412  -0.080  -4.392  0.00  0.00    +0.166 HD
ATOM     26  C   UNL     1      -0.432  -0.320  -2.594  0.00  0.00    +0.025 A 
ATOM     27  C   UNL     1       0.828  -1.050  -2.982  0.00  0.00    +0.064 C 
ATOM     28  C   UNL     1      -2.821   1.304  -0.259  0.00  0.00    +0.047 C 
BRANCH  23  29
ATOM     29  C   UNL     1      -3.627   1.274  -3.273  0.00  0.00    +0.356 C 
ATOM     30  O   UNL     1      -4.431   1.816  -2.540  0.00  0.00    -0.243 OA
BRANCH  29  31
ATOM     31  O   UNL     1      -3.868   1.195  -4.597  0.00  0.00    -0.463 OA
ATOM     32  C   UNL     1      -5.108   1.779  -5.078  0.00  0.00    +0.280 C 
ENDBRANCH  29  31
ENDBRANCH  23  29
ENDBRANCH  19  21
ENDBRANCH   2  19
BRANCH   6  33
ATOM     33  C   UNL     1       4.987  -1.600  -0.170  0.00  0.00    +0.090 C 
BRANCH  33  34
ATOM     34  C   UNL     1       5.500  -1.497  -1.607  0.00  0.00    -0.060 C 
BRANCH  34  37
ATOM     35  C   UNL     1       7.501  -1.626  -2.965  0.00  0.00    -0.097 C 
ATOM     36  C   UNL     1       7.485  -0.270  -0.960  0.00  0.00    -0.097 C 
ATOM     37  N   UNL     1       6.978  -1.508  -1.588  0.00  0.00    +0.377 N 
ATOM     38  H   UNL     1       7.299  -2.315  -1.040  0.00  0.00    -0.083 HD
ENDBRANCH  34  37
ENDBRANCH  33  34
ENDBRANCH   6  33
TORSDOF 12
