REMARK  Name = ZINC57316917
REMARK  9 active torsions:
REMARK  status: ('A' for Active; 'I' for Inactive)
REMARK    1  A    between atoms: C_1  and  C_2
REMARK    2  A    between atoms: C_2  and  N_3
REMARK    3  A    between atoms: N_3  and  C_4
REMARK    4  A    between atoms: N_3  and  C_6
REMARK    5  A    between atoms: C_4  and  C_5
REMARK    6  A    between atoms: C_9  and  C_12
REMARK    7  A    between atoms: C_20  and  O_32
REMARK    8  A    between atoms: N_23  and  C_24
REMARK    9  A    between atoms: C_24  and  C_25
REMARK                            x       y       z     vdW  Elec       q    Type
REMARK                         _______ _______ _______ _____ _____    ______ ____
ROOT
ATOM      1  C   UNL     1       1.270  -5.965   0.913  0.00  0.00    -0.031 C 
ATOM      2  C   UNL     1       1.531  -6.263  -0.564  0.00  0.00    +0.011 C 
ATOM      3  C   UNL     1       0.356  -5.782  -1.415  0.00  0.00    +0.005 C 
ATOM      4  C   UNL     1       0.636  -6.102  -2.886  0.00  0.00    +0.000 C 
ATOM      5  C   UNL     1       1.919  -5.398  -3.332  0.00  0.00    +0.003 C 
ATOM      6  C   UNL     1       3.092  -5.869  -2.470  0.00  0.00    +0.035 C 
ATOM      7  C   UNL     1       2.804  -5.534  -1.006  0.00  0.00    +0.066 C 
ATOM      8  C   UNL     1       3.969  -5.988  -0.124  0.00  0.00    +0.016 C 
ATOM      9  C   UNL     1       3.624  -5.708   1.341  0.00  0.00    -0.075 C 
ATOM     10  N   UNL     1       2.406  -6.437   1.715  0.00  0.00    +0.387 N 
ATOM     11  H   UNL     1       2.544  -7.424   1.552  0.00  0.00    -0.080 HD
ENDROOT
BRANCH   1  15
ATOM     12  C   UNL     1       0.799  -1.754   1.452  0.00  0.00    +0.013 A 
ATOM     13  C   UNL     1       1.789  -2.432   2.138  0.00  0.00    +0.022 A 
ATOM     14  C   UNL     1       1.942  -3.795   1.963  0.00  0.00    +0.004 A 
ATOM     15  C   UNL     1       1.103  -4.479   1.104  0.00  0.00    -0.060 A 
ATOM     16  C   UNL     1       0.112  -3.801   0.419  0.00  0.00    +0.004 A 
ATOM     17  C   UNL     1      -0.043  -2.439   0.596  0.00  0.00    +0.022 A 
BRANCH  12  18
ATOM     18  N   UNL     1       0.645  -0.375   1.628  0.00  0.00    -0.394 NA
ATOM     19  H   UNL     1      -0.122  -0.047   1.060  0.00  0.00    +0.126 HD
BRANCH  18  21
ATOM     20  C   UNL     1       0.071   1.401   3.213  0.00  0.00    +0.022 C 
ATOM     21  C   UNL     1       0.363  -0.091   3.042  0.00  0.00    +0.081 C 
ENDBRANCH  18  21
BRANCH  18  22
ATOM     22  C   UNL     1       1.880   0.311   1.227  0.00  0.00    +0.081 C 
ATOM     23  C   UNL     1       2.107   0.117  -0.273  0.00  0.00    +0.022 C 
ENDBRANCH  18  22
ENDBRANCH  12  18
ENDBRANCH   1  15
BRANCH   7  24
ATOM     24  O   UNL     1       2.619  -4.125  -0.865  0.00  0.00    -0.388 OA
ATOM     25  H   UNL     1       3.387  -3.599  -1.127  0.00  0.00    +0.210 HD
ENDBRANCH   7  24
BRANCH  10  26
ATOM     26  C   UNL     1       2.123  -6.216   3.139  0.00  0.00    -0.041 C 
BRANCH  26  27
ATOM     27  C   UNL     1       3.306  -6.657   3.961  0.00  0.00    -0.046 A 
ATOM     28  C   UNL     1       4.158  -5.715   4.508  0.00  0.00    +0.003 A 
ATOM     29  C   UNL     1       5.243  -6.119   5.261  0.00  0.00    +0.000 A 
ATOM     30  C   UNL     1       5.479  -7.465   5.470  0.00  0.00    +0.001 A 
ATOM     31  C   UNL     1       4.628  -8.408   4.924  0.00  0.00    +0.020 A 
ATOM     32  C   UNL     1       3.538  -8.004   4.174  0.00  0.00    +0.042 A 
ATOM     33 CL   UNL     1       2.466  -9.188   3.493  0.00  0.00    -0.083 Cl
ENDBRANCH  26  27
ENDBRANCH  10  26
TORSDOF 7
