REMARK  Name = ZINC14768822
REMARK  12 active torsions:
REMARK  status: ('A' for Active; 'I' for Inactive)
REMARK    1  A    between atoms: C_1  and  C_2
REMARK    2  A    between atoms: C_2  and  C_3
REMARK    3  A    between atoms: C_6  and  O_10
REMARK    4  A    between atoms: O_10  and  C_11
REMARK    5  A    between atoms: C_11  and  C_12
REMARK    6  A    between atoms: N_14  and  N_15
REMARK    7  A    between atoms: C_16  and  C_18
REMARK    8  A    between atoms: C_18  and  C_20
REMARK    9  A    between atoms: C_18  and  O_22
REMARK   10  A    between atoms: C_20  and  C_21
REMARK   11  A    between atoms: O_22  and  C_23
REMARK   12  A    between atoms: C_26  and  C_29
REMARK                            x       y       z     vdW  Elec       q    Type
REMARK                         _______ _______ _______ _____ _____    ______ ____
ROOT
ATOM      1  N   UNL     1       7.408  -4.287  -0.684  0.00  0.00    -0.231 N 
ATOM      2  C   UNL     1       7.281  -2.949  -0.576  0.00  0.00    +0.270 C 
ATOM      3  O   UNL     1       8.163  -2.222  -0.981  0.00  0.00    -0.270 OA
ATOM      4  H   UNL     1       6.703  -4.869  -0.360  0.00  0.00    +0.173 HD
ENDROOT
BRANCH   1   7
ATOM      5  C   UNL     1       8.686  -6.174  -1.371  0.00  0.00    +0.267 C 
ATOM      6  O   UNL     1       7.804  -6.902  -0.966  0.00  0.00    -0.271 OA
ATOM      7  N   UNL     1       8.559  -4.837  -1.264  0.00  0.00    -0.231 N 
ATOM      8  H   UNL     1       9.264  -4.255  -1.588  0.00  0.00    +0.173 HD
BRANCH   5   9
ATOM      9  C   UNL     1       9.924  -6.765  -1.995  0.00  0.00    +0.326 C 
BRANCH   9  10
ATOM     10  O   UNL     1       9.823  -8.191  -1.995  0.00  0.00    -0.482 OA
BRANCH  10  14
ATOM     11  C   UNL     1      12.986 -10.293  -3.608  0.00  0.00    -0.046 A 
ATOM     12  C   UNL     1      13.019  -8.911  -3.578  0.00  0.00    +0.007 A 
ATOM     13  C   UNL     1      11.961  -8.204  -3.038  0.00  0.00    +0.047 A 
ATOM     14  C   UNL     1      10.865  -8.883  -2.526  0.00  0.00    +0.135 A 
ATOM     15  C   UNL     1      10.836 -10.270  -2.554  0.00  0.00    +0.060 A 
ATOM     16  C   UNL     1      11.895 -10.972  -3.099  0.00  0.00    +0.022 A 
ATOM     17 BR   UNL     1       9.347 -11.200  -1.851  0.00  0.00    -0.047 Br
BRANCH  11  19
ATOM     18  C   UNL     1      15.165 -11.363  -3.099  0.00  0.00    +0.009 C 
ATOM     19  C   UNL     1      14.142 -11.060  -4.196  0.00  0.00    +0.032 C 
ENDBRANCH  11  19
ENDBRANCH  10  14
ENDBRANCH   9  10
ENDBRANCH   5   9
ENDBRANCH   1   7
BRANCH   2  20
ATOM     20  C   UNL     1       6.043  -2.358   0.048  0.00  0.00    +0.260 C 
BRANCH  20  21
ATOM     21  C   UNL     1       5.974  -2.759   1.523  0.00  0.00    +0.051 C 
ATOM     22  C   UNL     1       4.657  -2.264   2.125  0.00  0.00    +0.008 C 
ENDBRANCH  20  21
BRANCH  20  23
ATOM     23  O   UNL     1       6.091  -0.934  -0.057  0.00  0.00    -0.480 OA
BRANCH  23  24
ATOM     24  C   UNL     1       4.907  -0.288  -0.229  0.00  0.00    +0.122 A 
ATOM     25  C   UNL     1       3.732  -1.017  -0.351  0.00  0.00    +0.046 A 
ATOM     26  C   UNL     1       2.530  -0.364  -0.526  0.00  0.00    +0.012 A 
ATOM     27  C   UNL     1       2.495   1.028  -0.580  0.00  0.00    -0.018 A 
ATOM     28  C   UNL     1       3.678   1.757  -0.462  0.00  0.00    +0.012 A 
ATOM     29  C   UNL     1       4.877   1.099  -0.283  0.00  0.00    +0.046 A 
BRANCH  27  30
ATOM     30  C   UNL     1       1.204   1.733  -0.768  0.00  0.00    -0.018 A 
ATOM     31  C   UNL     1       1.168   3.125  -0.822  0.00  0.00    +0.008 A 
ATOM     32  C   UNL     1      -0.037   3.776  -0.992  0.00  0.00    +0.001 A 
ATOM     33  C   UNL     1      -1.207   3.049  -1.121  0.00  0.00    +0.000 A 
ATOM     34  C   UNL     1      -1.177   1.667  -1.068  0.00  0.00    +0.001 A 
ATOM     35  C   UNL     1       0.022   1.006  -0.892  0.00  0.00    +0.008 A 
ENDBRANCH  27  30
ENDBRANCH  23  24
ENDBRANCH  20  23
ENDBRANCH   2  20
TORSDOF 10
