REMARK  Name = ZINC02731434
REMARK  5 active torsions:
REMARK  status: ('A' for Active; 'I' for Inactive)
REMARK    1  A    between atoms: C_1  and  O_2
REMARK    2  A    between atoms: O_2  and  C_3
REMARK    3  A    between atoms: C_6  and  C_9
REMARK    4  A    between atoms: C_12  and  C_33
REMARK    5  A    between atoms: C_16  and  C_19
REMARK                            x       y       z     vdW  Elec       q    Type
REMARK                         _______ _______ _______ _____ _____    ______ ____
ROOT
ATOM      1  C   UNL     1       2.490   1.045  -0.016  0.00  0.00    +0.104 C 
ATOM      2  C   UNL     1       3.044   1.022  -1.444  0.00  0.00    +0.063 C 
ATOM      3  C   UNL     1       4.279   0.110  -1.484  0.00  0.00    +0.215 C 
ATOM      4  N   UNL     1       5.131   0.460  -0.340  0.00  0.00    -0.238 N 
ATOM      5  C   UNL     1       4.718   1.199   0.717  0.00  0.00    +0.129 A 
ATOM      6  C   UNL     1       5.790   1.315   1.579  0.00  0.00    +0.080 A 
ATOM      7  C   UNL     1       6.868   0.616   0.999  0.00  0.00    +0.148 A 
ATOM      8  N   UNL     1       6.467   0.112  -0.139  0.00  0.00    -0.177 NA
ATOM      9  N   UNL     1       3.445   1.726   0.872  0.00  0.00    -0.322 N 
ATOM     10  H   UNL     1       3.100   2.533   1.535  0.00  0.00    +0.148 HD
ENDROOT
BRANCH   6  11
ATOM     11  C   UNL     1       5.804   2.039   2.872  0.00  0.00    +0.187 A 
ATOM     12  N   UNL     1       6.856   2.139   3.692  0.00  0.00    -0.206 NA
ATOM     13  C   UNL     1       6.527   2.850   4.749  0.00  0.00    +0.167 A 
ATOM     14  C   UNL     1       7.237   3.285   5.956  0.00  0.00    +0.045 A 
ATOM     15  C   UNL     1       8.571   2.958   6.192  0.00  0.00    +0.014 A 
ATOM     16  C   UNL     1       9.180   3.394   7.337  0.00  0.00    +0.001 A 
ATOM     17  C   UNL     1       8.483   4.158   8.263  0.00  0.00    +0.002 A 
ATOM     18  C   UNL     1       7.174   4.494   8.056  0.00  0.00    +0.028 A 
ATOM     19  C   UNL     1       6.524   4.064   6.896  0.00  0.00    +0.076 A 
ATOM     20  N   UNL     1       5.228   4.373   6.652  0.00  0.00    -0.235 NA
ATOM     21  C   UNL     1       4.616   3.977   5.577  0.00  0.00    +0.225 A 
ATOM     22  N   UNL     1       5.216   3.226   4.614  0.00  0.00    -0.201 N 
ATOM     23  N   UNL     1       4.783   2.692   3.393  0.00  0.00    -0.143 NA
ENDBRANCH   6  11
BRANCH   1  27
ATOM     24  C   UNL     1      -1.237   3.137   0.031  0.00  0.00    +0.120 A 
ATOM     25  C   UNL     1      -1.218   1.750   0.017  0.00  0.00    +0.046 A 
ATOM     26  C   UNL     1      -0.013   1.076   0.008  0.00  0.00    +0.009 A 
ATOM     27  C   UNL     1       1.176   1.783   0.000  0.00  0.00    -0.027 A 
ATOM     28  C   UNL     1       1.160   3.165   0.007  0.00  0.00    +0.009 A 
ATOM     29  C   UNL     1      -0.043   3.844   0.023  0.00  0.00    +0.046 A 
BRANCH  24  31
ATOM     30  C   UNL     1      -3.611   3.009   0.053  0.00  0.00    +0.277 C 
ATOM     31  O   UNL     1      -2.422   3.802   0.045  0.00  0.00    -0.495 OA
ENDBRANCH  24  31
ENDBRANCH   1  27
BRANCH   3  32
ATOM     32  C   UNL     1       5.046   0.333  -2.788  0.00  0.00    +0.412 C 
ATOM     33  F   UNL     1       5.454   1.669  -2.868  0.00  0.00    -0.168 F 
ATOM     34  F   UNL     1       6.169  -0.500  -2.817  0.00  0.00    -0.168 F 
ATOM     35  F   UNL     1       4.216   0.034  -3.874  0.00  0.00    -0.168 F 
ENDBRANCH   3  32
TORSDOF 4
