REMARK  Name = ZINC65699235
REMARK  6 active torsions:
REMARK  status: ('A' for Active; 'I' for Inactive)
REMARK    1  A    between atoms: C_1  and  C_2
REMARK    2  A    between atoms: C_5  and  C_9
REMARK    3  A    between atoms: C_6  and  C_8
REMARK    4  A    between atoms: C_9  and  C_10
REMARK    5  A    between atoms: C_10  and  N_11
REMARK    6  A    between atoms: N_14  and  N_15
REMARK                            x       y       z     vdW  Elec       q    Type
REMARK                         _______ _______ _______ _____ _____    ______ ____
ROOT
ATOM      1  N   UNL     1      -1.351  -6.269   0.101  0.00  0.00    -0.298 N 
ATOM      2  C   UNL     1      -2.505  -6.959   0.206  0.00  0.00    +0.316 C 
ATOM      3  O   UNL     1      -3.561  -6.365   0.306  0.00  0.00    -0.251 OA
ATOM      4  N   UNL     1      -2.487  -8.306   0.198  0.00  0.00    -0.219 N 
ATOM      5  H   UNL     1      -0.509  -6.743   0.021  0.00  0.00    +0.150 HD
ATOM      6  H   UNL     1      -3.317  -8.803   0.273  0.00  0.00    +0.174 HD
ENDROOT
BRANCH   4   7
ATOM      7  N   UNL     1      -1.270  -8.991   0.082  0.00  0.00    -0.246 N 
ATOM      8  C   UNL     1      -1.252 -10.382   0.074  0.00  0.00    +0.158 A 
ATOM      9  C   UNL     1      -0.041 -11.066  -0.035  0.00  0.00    +0.050 A 
ATOM     10  C   UNL     1      -0.074 -12.449  -0.038  0.00  0.00    +0.053 A 
ATOM     11  C   UNL     1      -1.316 -13.074   0.069  0.00  0.00    +0.176 A 
ATOM     12  N   UNL     1      -2.414 -12.344   0.169  0.00  0.00    -0.128 NA
ATOM     13  N   UNL     1      -2.384 -11.061   0.177  0.00  0.00    -0.131 NA
ATOM     14  N   UNL     1      -1.401 -14.472   0.071  0.00  0.00    -0.220 N 
ATOM     15  C   UNL     1      -2.540 -15.204   0.163  0.00  0.00    +0.116 A 
ATOM     16  C   UNL     1      -2.191 -16.511   0.128  0.00  0.00    +0.041 A 
ATOM     17  C   UNL     1      -0.798 -16.583   0.012  0.00  0.00    +0.135 A 
ATOM     18  N   UNL     1      -0.325 -15.364  -0.029  0.00  0.00    -0.173 NA
ATOM     19  H   UNL     1      -0.440  -8.495   0.007  0.00  0.00    +0.172 HD
ENDBRANCH   4   7
BRANCH   1  20
ATOM     20  C   UNL     1      -1.370  -4.804   0.109  0.00  0.00    +0.110 C 
BRANCH  20  21
ATOM     21  C   UNL     1       0.059  -4.275  -0.021  0.00  0.00    +0.054 C 
BRANCH  21  26
ATOM     22  C   UNL     1      -0.018   1.503   0.010  0.00  0.00    +0.044 C 
ATOM     23  C   UNL     1       0.002  -0.004   0.002  0.00  0.00    -0.050 A 
ATOM     24  C   UNL     1       0.006  -0.689  -1.199  0.00  0.00    +0.003 A 
ATOM     25  C   UNL     1       0.025  -2.071  -1.207  0.00  0.00    +0.004 A 
ATOM     26  C   UNL     1       0.040  -2.768  -0.013  0.00  0.00    -0.043 A 
ATOM     27  C   UNL     1       0.037  -2.084   1.188  0.00  0.00    -0.047 A 
ATOM     28  C   UNL     1       0.023  -0.702   1.195  0.00  0.00    +0.007 A 
ATOM     29  C   UNL     1       0.054  -2.845   2.489  0.00  0.00    +0.044 C 
ENDBRANCH  21  26
ENDBRANCH  20  21
ENDBRANCH   1  20
TORSDOF 4
