REMARK  Name = ZINC12749433
REMARK  6 active torsions:
REMARK  status: ('A' for Active; 'I' for Inactive)
REMARK    1  A    between atoms: C_1  and  C_2
REMARK    2  A    between atoms: C_2  and  C_4
REMARK    3  A    between atoms: C_2  and  N_19
REMARK    4  A    between atoms: C_16  and  C_17
REMARK    5  A    between atoms: C_16  and  C_18
REMARK    6  A    between atoms: C_25  and  C_27
REMARK                            x       y       z     vdW  Elec       q    Type
REMARK                         _______ _______ _______ _____ _____    ______ ____
ROOT
ATOM      1  C   UNL     1       0.205   2.178  -0.508  0.00  0.00    +0.034 C 
ATOM      2  C   UNL     1       0.277   0.703  -0.111  0.00  0.00    +0.141 C 
ENDROOT
BRANCH   2   3
ATOM      3  C   UNL     1       0.685  -0.120  -1.306  0.00  0.00    +0.238 C 
ATOM      4  O   UNL     1       1.776   0.043  -1.810  0.00  0.00    -0.274 OA
ATOM      5  N   UNL     1      -0.162  -1.036  -1.814  0.00  0.00    -0.254 N 
ATOM      6  C   UNL     1      -1.355  -1.367  -1.151  0.00  0.00    +0.059 A 
ATOM      7  C   UNL     1      -1.454  -1.279   0.225  0.00  0.00    +0.025 A 
ATOM      8  C   UNL     1      -2.642  -1.616   0.850  0.00  0.00    +0.002 A 
ATOM      9  C   UNL     1      -3.726  -2.039   0.102  0.00  0.00    +0.002 A 
ATOM     10  C   UNL     1      -3.633  -2.127  -1.275  0.00  0.00    +0.025 A 
ATOM     11  C   UNL     1      -2.448  -1.790  -1.909  0.00  0.00    +0.055 A 
ATOM     12  N   UNL     1      -2.336  -1.861  -3.302  0.00  0.00    -0.282 N 
ATOM     13  C   UNL     1      -1.131  -1.806  -3.900  0.00  0.00    +0.241 C 
ATOM     14  O   UNL     1      -1.061  -1.825  -5.110  0.00  0.00    -0.273 OA
ATOM     15  C   UNL     1       0.130  -1.717  -3.085  0.00  0.00    +0.113 C 
ATOM     16  C   UNL     1       1.184  -0.924  -3.860  0.00  0.00    +0.042 C 
ATOM     17  C   UNL     1       0.652  -3.127  -2.802  0.00  0.00    +0.042 C 
ATOM     18  H   UNL     1      -3.136  -1.951  -3.843  0.00  0.00    +0.155 HD
ENDBRANCH   2   3
BRANCH   2  19
ATOM     19  N   UNL     1       1.266   0.532   0.962  0.00  0.00    -0.289 NA
ATOM     20  C   UNL     1       1.611  -0.884   1.140  0.00  0.00    +0.104 C 
ATOM     21  C   UNL     1       2.770  -1.003   2.135  0.00  0.00    +0.123 C 
ATOM     22  N   UNL     1       2.401  -0.293   3.369  0.00  0.00    -0.296 N 
ATOM     23  C   UNL     1       1.913   1.089   3.257  0.00  0.00    +0.123 C 
ATOM     24  C   UNL     1       0.788   1.126   2.218  0.00  0.00    +0.104 C 
ATOM     25  C   UNL     1       2.507  -0.894   4.571  0.00  0.00    +0.260 C 
ATOM     26  O   UNL     1       2.126  -0.323   5.570  0.00  0.00    -0.271 OA
BRANCH  25  27
ATOM     27  C   UNL     1       3.100  -2.276   4.673  0.00  0.00    +0.296 C 
ATOM     28  C   UNL     1       4.602  -2.219   4.362  0.00  0.00    +0.283 C 
ATOM     29  O   UNL     1       5.134  -3.543   4.481  0.00  0.00    -0.484 OA
ATOM     30  C   UNL     1       4.769  -4.252   5.584  0.00  0.00    +0.162 A 
ATOM     31  C   UNL     1       5.507  -5.367   5.951  0.00  0.00    +0.049 A 
ATOM     32  C   UNL     1       5.147  -6.100   7.066  0.00  0.00    +0.004 A 
ATOM     33  C   UNL     1       4.050  -5.723   7.819  0.00  0.00    +0.004 A 
ATOM     34  C   UNL     1       3.311  -4.611   7.459  0.00  0.00    +0.049 A 
ATOM     35  C   UNL     1       3.668  -3.872   6.342  0.00  0.00    +0.163 A 
ATOM     36  O   UNL     1       2.935  -2.775   6.004  0.00  0.00    -0.473 OA
ENDBRANCH  25  27
ENDBRANCH   2  19
TORSDOF 3
