REMARK  Name = ZINC43424053
REMARK  5 active torsions:
REMARK  status: ('A' for Active; 'I' for Inactive)
REMARK    1  A    between atoms: C_1  and  C_2
REMARK    2  A    between atoms: C_2  and  C_4
REMARK    3  A    between atoms: C_2  and  N_24
REMARK    4  A    between atoms: C_4  and  C_6
REMARK    5  A    between atoms: C_4  and  N_12
REMARK                            x       y       z     vdW  Elec       q    Type
REMARK                         _______ _______ _______ _____ _____    ______ ____
ROOT
ATOM      1  C   UNL     1       0.812  -0.413   1.206  0.00  0.00    +0.079 C 
ENDROOT
BRANCH   1   2
ATOM      2  N   UNL     1       2.245  -0.103   1.296  0.00  0.00    -0.289 NA
ATOM      3  C   UNL     1       2.482   1.342   1.154  0.00  0.00    +0.113 C 
ATOM      4  C   UNL     1       3.987   1.620   1.205  0.00  0.00    +0.175 C 
ATOM      5  O   UNL     1       4.529   1.094   2.421  0.00  0.00    -0.374 OA
ATOM      6  C   UNL     1       4.317  -0.310   2.577  0.00  0.00    +0.135 C 
ATOM      7  C   UNL     1       2.812  -0.596   2.558  0.00  0.00    +0.086 C 
ATOM      8  C   UNL     1       2.583  -2.102   2.685  0.00  0.00    +0.021 C 
ATOM      9  C   UNL     1       3.173  -2.591   4.011  0.00  0.00    +0.002 C 
ATOM     10  C   UNL     1       4.673  -2.293   4.048  0.00  0.00    +0.003 C 
ATOM     11  C   UNL     1       4.901  -0.786   3.907  0.00  0.00    +0.033 C 
ENDBRANCH   1   2
BRANCH   1  12
ATOM     12  C   UNL     1       0.399  -0.465  -0.242  0.00  0.00    +0.006 A 
ATOM     13  C   UNL     1      -0.368  -1.384  -0.878  0.00  0.00    +0.028 A 
ATOM     14  C   UNL     1      -0.620  -1.228  -2.229  0.00  0.00    +0.025 A 
ATOM     15  C   UNL     1      -0.091  -0.161  -2.877  0.00  0.00    +0.060 A 
ATOM     16  S   UNL     1       0.787   0.671  -1.564  0.00  0.00    -0.099 S 
ATOM     17 BR   UNL     1      -1.684  -2.485  -3.159  0.00  0.00    -0.050 Br
ENDBRANCH   1  12
BRANCH   1  19
ATOM     18  C   UNL     1       0.359   0.662   3.416  0.00  0.00    -0.012 C 
ATOM     19  C   UNL     1       0.010   0.673   1.926  0.00  0.00    -0.056 C 
BRANCH  19  20
ATOM     20  N   UNL     1      -1.426   0.413   1.758  0.00  0.00    +0.381 N 
ATOM     21  H   UNL     1      -1.955   1.129   2.233  0.00  0.00    -0.090 HD
ATOM     22  H   UNL     1      -1.657   0.421   0.776  0.00  0.00    -0.090 HD
ATOM     23  H   UNL     1      -1.653  -0.488   2.150  0.00  0.00    -0.090 HD
ENDBRANCH  19  20
ENDBRANCH   1  19
TORSDOF 4
