REMARK  Name = ZINC16559827
REMARK  10 active torsions:
REMARK  status: ('A' for Active; 'I' for Inactive)
REMARK    1  A    between atoms: C_1  and  C_2
REMARK    2  A    between atoms: C_2  and  C_3
REMARK    3  A    between atoms: C_3  and  N_4
REMARK    4  A    between atoms: C_8  and  C_10
REMARK    5  A    between atoms: C_10  and  N_47
REMARK    6  A    between atoms: C_11  and  C_12
REMARK    7  A    between atoms: C_11  and  N_47
REMARK    8  A    between atoms: C_13  and  C_14
REMARK    9  A    between atoms: C_13  and  N_47
REMARK   10  A    between atoms: N_16  and  C_17
REMARK                            x       y       z     vdW  Elec       q    Type
REMARK                         _______ _______ _______ _____ _____    ______ ____
ROOT
ATOM      1  N   UNL     1       5.869   2.167  -1.050  0.00  0.00    +0.391 N 
ATOM      2  H   UNL     1       5.532   2.697  -1.863  0.00  0.00    -0.080 HD
ENDROOT
BRANCH   1   3
ATOM      3  C   UNL     1       6.217   3.115   0.029  0.00  0.00    -0.081 C 
ATOM      4  C   UNL     1       6.793   2.367   1.234  0.00  0.00    -0.017 C 
ENDBRANCH   1   3
BRANCH   1   5
ATOM      5  C   UNL     1       7.062   1.390  -1.444  0.00  0.00    +0.020 C 
BRANCH   5  10
ATOM      6  N   UNL     1      11.022   2.058  -4.088  0.00  0.00    -0.299 N 
ATOM      7  C   UNL     1       9.908   2.567  -3.526  0.00  0.00    +0.306 C 
ATOM      8  O   UNL     1       9.641   3.744  -3.665  0.00  0.00    -0.252 OA
ATOM      9  N   UNL     1       9.090   1.771  -2.809  0.00  0.00    -0.242 N 
ATOM     10  C   UNL     1       7.976   2.280  -2.246  0.00  0.00    +0.204 C 
ATOM     11  O   UNL     1       7.710   3.455  -2.385  0.00  0.00    -0.277 OA
ATOM     12  H   UNL     1      11.235   1.118  -3.977  0.00  0.00    +0.150 HD
ATOM     13  H   UNL     1       9.303   0.831  -2.697  0.00  0.00    +0.159 HD
BRANCH   6  14
ATOM     14  C   UNL     1      11.910   2.923  -4.867  0.00  0.00    +0.105 C 
BRANCH  14  16
ATOM     15  C   UNL     1      14.019   3.007  -6.205  0.00  0.00    +0.005 C 
ATOM     16  C   UNL     1      13.091   2.103  -5.391  0.00  0.00    +0.015 C 
ENDBRANCH  14  16
ENDBRANCH   6  14
ENDBRANCH   5  10
ENDBRANCH   1   5
BRANCH   1  17
ATOM     17  C   UNL     1       4.799   1.254  -0.596  0.00  0.00    +0.020 C 
BRANCH  17  18
ATOM     18  C   UNL     1       3.530   2.046  -0.412  0.00  0.00    +0.201 C 
ATOM     19  O   UNL     1       3.525   3.241  -0.620  0.00  0.00    -0.278 OA
ATOM     20  N   UNL     1       2.400   1.427  -0.016  0.00  0.00    -0.283 N 
ATOM     21  H   UNL     1       2.415   0.480   0.195  0.00  0.00    +0.155 HD
BRANCH  20  22
ATOM     22  C   UNL     1       1.204   2.150   0.091  0.00  0.00    +0.105 A 
ATOM     23  C   UNL     1       0.281   1.828   1.078  0.00  0.00    +0.147 A 
ATOM     24  C   UNL     1      -0.898   2.545   1.181  0.00  0.00    +0.040 A 
ATOM     25  C   UNL     1      -1.158   3.581   0.302  0.00  0.00    +0.006 A 
ATOM     26  C   UNL     1      -0.239   3.908  -0.677  0.00  0.00    +0.040 A 
ATOM     27  C   UNL     1       0.940   3.192  -0.790  0.00  0.00    +0.147 A 
ATOM     28  F   UNL     1       1.834   3.509  -1.751  0.00  0.00    -0.203 F 
ATOM     29  F   UNL     1       0.534   0.816   1.937  0.00  0.00    -0.203 F 
ENDBRANCH  20  22
ENDBRANCH  17  18
ENDBRANCH   1  17
TORSDOF 8
