REMARK  Name = ZINC06586313
REMARK  4 active torsions:
REMARK  status: ('A' for Active; 'I' for Inactive)
REMARK    1  A    between atoms: C_1  and  C_2
REMARK    2  A    between atoms: C_14  and  C_15
REMARK    3  A    between atoms: C_21  and  O_25
REMARK    4  A    between atoms: O_25  and  C_26
REMARK                            x       y       z     vdW  Elec       q    Type
REMARK                         _______ _______ _______ _____ _____    ______ ____
ROOT
ATOM      1  C   UNL     1      -8.868  -1.633  -1.741  0.00  0.00    +0.009 C 
ATOM      2  C   UNL     1      -7.345  -1.766  -1.680  0.00  0.00    +0.003 C 
ATOM      3  C   UNL     1      -6.965  -3.244  -1.561  0.00  0.00    +0.006 C 
ATOM      4  C   UNL     1      -5.441  -3.380  -1.533  0.00  0.00    +0.019 C 
ATOM      5  C   UNL     1      -4.888  -2.639  -0.316  0.00  0.00    +0.107 C 
ATOM      6  N   UNL     1      -5.370  -1.251  -0.342  0.00  0.00    -0.311 N 
ATOM      7  C   UNL     1      -6.814  -1.007  -0.460  0.00  0.00    +0.110 C 
ATOM      8  C   UNL     1      -4.489  -0.204  -0.263  0.00  0.00    +0.154 C 
ATOM      9  N   UNL     1      -4.750   1.093  -0.277  0.00  0.00    -0.154 NA
ATOM     10  C   UNL     1      -3.805   2.003  -0.186  0.00  0.00    +0.276 C 
ATOM     11  O   UNL     1      -4.059   3.198  -0.193  0.00  0.00    -0.267 OA
ATOM     12  C   UNL     1      -2.418   1.503  -0.081  0.00  0.00    +0.079 C 
ATOM     13  C   UNL     1      -1.244   2.193   0.020  0.00  0.00    +0.027 C 
ATOM     14  S   UNL     1      -2.709  -0.261  -0.116  0.00  0.00    -0.052 S 
ENDROOT
BRANCH  13  15
ATOM     15  C   UNL     1      -0.017   1.508  -0.044  0.00  0.00    -0.009 C 
ATOM     16  C   UNL     1       1.150   2.170   0.189  0.00  0.00    +0.018 C 
ATOM     17  C   UNL     1       2.404   1.410   0.084  0.00  0.00    +0.021 A 
ATOM     18  C   UNL     1       3.598   1.898   0.618  0.00  0.00    +0.012 A 
ATOM     19  C   UNL     1       4.752   1.152   0.498  0.00  0.00    +0.004 A 
ATOM     20  C   UNL     1       4.731  -0.074  -0.147  0.00  0.00    +0.049 A 
ATOM     21  C   UNL     1       3.552  -0.569  -0.683  0.00  0.00    +0.162 A 
ATOM     22  C   UNL     1       2.381   0.167  -0.571  0.00  0.00    +0.169 A 
ATOM     23  O   UNL     1       1.210  -0.288  -1.083  0.00  0.00    -0.483 OA
ATOM     24  C   UNL     1       0.014   0.038  -0.375  0.00  0.00    +0.264 C 
BRANCH  21  25
ATOM     25  O   UNL     1       3.542  -1.774  -1.314  0.00  0.00    -0.491 OA
ATOM     26  C   UNL     1       4.784  -2.476  -1.391  0.00  0.00    +0.277 C 
ENDBRANCH  21  25
ENDBRANCH  13  15
TORSDOF 2
