REMARK  Name = ZINC39324499
REMARK  11 active torsions:
REMARK  status: ('A' for Active; 'I' for Inactive)
REMARK    1  A    between atoms: C_1  and  C_2
REMARK    2  A    between atoms: C_2  and  O_3
REMARK    3  A    between atoms: O_3  and  C_4
REMARK    4  A    between atoms: C_9  and  C_10
REMARK    5  A    between atoms: C_13  and  C_35
REMARK    6  A    between atoms: C_19  and  N_34
REMARK    7  A    between atoms: C_20  and  C_32
REMARK    8  A    between atoms: C_21  and  C_23
REMARK    9  A    between atoms: C_28  and  O_29
REMARK   10  A    between atoms: O_29  and  C_30
REMARK   11  A    between atoms: C_30  and  C_31
REMARK                            x       y       z     vdW  Elec       q    Type
REMARK                         _______ _______ _______ _____ _____    ______ ____
ROOT
ATOM      1  C   UNL     1       1.985  -1.430  -3.483  0.00  0.00    +0.018 C 
ATOM      2  C   UNL     1       2.688  -1.933  -4.513  0.00  0.00    -0.004 C 
ATOM      3  C   UNL     1       2.813  -3.428  -4.713  0.00  0.00    +0.042 C 
ATOM      4  C   UNL     1       2.664  -3.691  -6.219  0.00  0.00    -0.006 C 
ATOM      5  C   UNL     1       3.804  -2.993  -6.954  0.00  0.00    +0.039 C 
ATOM      6  C   UNL     1       3.871  -1.527  -6.609  0.00  0.00    -0.014 C 
ATOM      7  C   UNL     1       3.355  -1.041  -5.482  0.00  0.00    +0.133 C 
ATOM      8  O   UNL     1       3.427   0.281  -5.181  0.00  0.00    -0.441 OA
ATOM      9  C   UNL     1       3.605   1.186  -6.158  0.00  0.00    +0.199 C 
ATOM     10  C   UNL     1       4.136   0.820  -7.352  0.00  0.00    +0.098 C 
ATOM     11  C   UNL     1       4.547  -0.604  -7.598  0.00  0.00    +0.097 C 
ATOM     12  C   UNL     1       2.724  -5.196  -6.484  0.00  0.00    +0.008 C 
ENDROOT
BRANCH   1  18
ATOM     13  C   UNL     1       0.234  -2.058  -1.823  0.00  0.00    +0.128 A 
ATOM     14  C   UNL     1      -0.247  -2.913  -0.846  0.00  0.00    +0.046 A 
ATOM     15  C   UNL     1       0.487  -4.024  -0.474  0.00  0.00    +0.004 A 
ATOM     16  C   UNL     1       1.706  -4.292  -1.073  0.00  0.00    +0.001 A 
ATOM     17  C   UNL     1       2.200  -3.452  -2.048  0.00  0.00    +0.011 A 
ATOM     18  C   UNL     1       1.466  -2.328  -2.438  0.00  0.00    +0.017 A 
BRANCH  13  19
ATOM     19  O   UNL     1      -0.486  -0.967  -2.190  0.00  0.00    -0.492 OA
BRANCH  19  21
ATOM     20  C   UNL     1      -2.393   0.512  -2.062  0.00  0.00    +0.048 C 
ATOM     21  C   UNL     1      -1.731  -0.756  -1.520  0.00  0.00    +0.226 C 
ENDBRANCH  19  21
ENDBRANCH  13  19
ENDBRANCH   1  18
BRANCH  11  22
ATOM     22  C   UNL     1       6.042  -0.738  -7.462  0.00  0.00    +0.007 A 
ATOM     23  C   UNL     1       6.654  -0.454  -6.257  0.00  0.00    +0.008 A 
ATOM     24  C   UNL     1       8.026  -0.576  -6.132  0.00  0.00    +0.001 A 
ATOM     25  C   UNL     1       8.788  -0.984  -7.212  0.00  0.00    +0.004 A 
ATOM     26  C   UNL     1       8.180  -1.269  -8.419  0.00  0.00    +0.046 A 
ATOM     27  C   UNL     1       6.803  -1.152  -8.545  0.00  0.00    +0.125 A 
BRANCH  27  28
ATOM     28  O   UNL     1       6.202  -1.438  -9.730  0.00  0.00    -0.492 OA
BRANCH  28  29
ATOM     29  C   UNL     1       7.048  -1.859 -10.802  0.00  0.00    +0.225 C 
ATOM     30  C   UNL     1       6.199  -2.133 -12.045  0.00  0.00    +0.048 C 
ENDBRANCH  28  29
ENDBRANCH  27  28
ENDBRANCH  11  22
BRANCH   9  31
ATOM     31  N   UNL     1       3.247   2.494  -5.946  0.00  0.00    -0.328 N 
ATOM     32  H   UNL     1       2.867   2.761  -5.095  0.00  0.00    +0.145 HD
ATOM     33  H   UNL     1       3.374   3.151  -6.648  0.00  0.00    +0.145 HD
ENDBRANCH   9  31
BRANCH  10  34
ATOM     34  C   UNL     1       4.316   1.801  -8.379  0.00  0.00    +0.101 C 
ATOM     35  N   UNL     1       4.459   2.579  -9.194  0.00  0.00    -0.191 NA
ENDBRANCH  10  34
TORSDOF 8
