REMARK  Name = ZINC14956386
REMARK  10 active torsions:
REMARK  status: ('A' for Active; 'I' for Inactive)
REMARK    1  A    between atoms: C_1  and  C_2
REMARK    2  A    between atoms: C_5  and  C_28
REMARK    3  A    between atoms: C_8  and  C_24
REMARK    4  A    between atoms: C_8  and  O_27
REMARK    5  A    between atoms: C_11  and  O_14
REMARK    6  A    between atoms: O_14  and  C_15
REMARK    7  A    between atoms: C_15  and  C_17
REMARK    8  A    between atoms: C_20  and  O_23
REMARK    9  A    between atoms: C_24  and  C_25
REMARK   10  A    between atoms: C_24  and  C_26
REMARK                            x       y       z     vdW  Elec       q    Type
REMARK                         _______ _______ _______ _____ _____    ______ ____
ROOT
ATOM      1  C   UNL     1      -3.682   3.147   0.101  0.00  0.00    +0.039 C 
ATOM      2  C   UNL     1      -2.262   2.655  -0.005  0.00  0.00    -0.073 C 
ATOM      3  C   UNL     1      -1.814   1.912   0.959  0.00  0.00    -0.027 C 
ATOM      4  C   UNL     1      -0.455   1.286   0.945  0.00  0.00    +0.034 C 
ATOM      5  C   UNL     1       0.628   2.328   0.645  0.00  0.00    -0.020 C 
ATOM      6  C   UNL     1       1.965   1.785   1.224  0.00  0.00    +0.010 C 
ATOM      7  C   UNL     1       2.328   0.660   0.222  0.00  0.00    +0.036 C 
ATOM      8  C   UNL     1       1.913   1.228  -1.153  0.00  0.00    +0.075 C 
ATOM      9  C   UNL     1       0.867   2.316  -0.874  0.00  0.00    +0.068 C 
ATOM     10  C   UNL     1      -0.446   1.998  -1.593  0.00  0.00    +0.187 C 
ATOM     11  C   UNL     1      -1.477   3.066  -1.217  0.00  0.00    +0.075 C 
ATOM     12  C   UNL     1       0.281   3.721   1.175  0.00  0.00    +0.012 C 
ENDROOT
BRANCH   8  13
ATOM     13  C   UNL     1       1.303   0.122  -2.016  0.00  0.00    +0.015 C 
ATOM     14  C   UNL     1       2.336  -0.356  -3.038  0.00  0.00    +0.010 C 
ATOM     15  C   UNL     1       0.887  -1.050  -1.124  0.00  0.00    +0.010 C 
ENDBRANCH   8  13
BRANCH   8  16
ATOM     16  O   UNL     1       3.047   1.795  -1.812  0.00  0.00    -0.388 OA
ATOM     17  H   UNL     1       3.744   1.156  -2.015  0.00  0.00    +0.210 HD
ENDBRANCH   8  16
BRANCH  10  18
ATOM     18  O   UNL     1      -0.230   2.007  -3.029  0.00  0.00    -0.457 OA
BRANCH  18  19
ATOM     19  C   UNL     1      -1.014   1.199  -3.770  0.00  0.00    +0.339 C 
ATOM     20  O   UNL     1      -1.855   0.507  -3.232  0.00  0.00    -0.245 OA
BRANCH  19  21
ATOM     21  C   UNL     1      -0.851   1.156  -5.235  0.00  0.00    +0.059 A 
ATOM     22  C   UNL     1       0.112   1.956  -5.858  0.00  0.00    +0.018 A 
ATOM     23  C   UNL     1       0.264   1.908  -7.225  0.00  0.00    +0.046 A 
ATOM     24  C   UNL     1      -0.545   1.074  -7.988  0.00  0.00    +0.117 A 
ATOM     25  C   UNL     1      -1.508   0.281  -7.374  0.00  0.00    +0.046 A 
ATOM     26  C   UNL     1      -1.663   0.319  -6.006  0.00  0.00    +0.018 A 
BRANCH  24  27
ATOM     27  O   UNL     1      -0.396   1.034  -9.336  0.00  0.00    -0.507 OA
ATOM     28  H   UNL     1      -0.943   1.674  -9.812  0.00  0.00    +0.292 HD
ENDBRANCH  24  27
ENDBRANCH  19  21
ENDBRANCH  18  19
ENDBRANCH  10  18
TORSDOF 6
