REMARK  Name = ZINC36499835
REMARK  8 active torsions:
REMARK  status: ('A' for Active; 'I' for Inactive)
REMARK    1  A    between atoms: C_3  and  C_6
REMARK    2  A    between atoms: C_6  and  N_7
REMARK    3  A    between atoms: N_7  and  C_8
REMARK    4  A    between atoms: C_8  and  C_10
REMARK    5  A    between atoms: C_8  and  C_17
REMARK    6  A    between atoms: N_19  and  C_20
REMARK    7  A    between atoms: C_26  and  C_28
REMARK    8  A    between atoms: C_30  and  N_35
REMARK                            x       y       z     vdW  Elec       q    Type
REMARK                         _______ _______ _______ _____ _____    ______ ____
ROOT
ATOM      1  N   UNL     1       4.164   1.031   1.154  0.00  0.00    -0.275 N 
ATOM      2  C   UNL     1       3.640   1.823   2.111  0.00  0.00    +0.252 C 
ATOM      3  O   UNL     1       4.069   2.950   2.269  0.00  0.00    -0.270 OA
ENDROOT
BRANCH   2   4
ATOM      4  C   UNL     1       2.547   1.323   2.966  0.00  0.00    +0.086 A 
ATOM      5  C   UNL     1       2.507  -0.023   3.340  0.00  0.00    +0.049 A 
ATOM      6  C   UNL     1       1.483  -0.484   4.138  0.00  0.00    +0.127 A 
ATOM      7  C   UNL     1       0.492   0.381   4.573  0.00  0.00    +0.036 A 
ATOM      8  C   UNL     1       0.519   1.713   4.210  0.00  0.00    +0.054 A 
ATOM      9  C   UNL     1       1.546   2.196   3.412  0.00  0.00    +0.191 A 
ATOM     10  O   UNL     1       1.577   3.506   3.060  0.00  0.00    -0.287 OA
BRANCH   6  11
ATOM     11  N   UNL     1       1.442  -1.910   4.533  0.00  0.00    +0.056 N 
ATOM     12  O   UNL     1       2.305  -2.667   4.155  0.00  0.00    -0.126 OA
ATOM     13  O   UNL     1       0.544  -2.317   5.234  0.00  0.00    -0.126 OA
ENDBRANCH   6  11
ENDBRANCH   2   4
BRANCH   1  14
ATOM     14  C   UNL     1       4.839   1.627  -0.002  0.00  0.00    +0.183 C 
BRANCH  14  17
ATOM     15  C   UNL     1       8.478   1.373   0.524  0.00  0.00    +0.041 A 
ATOM     16  C   UNL     1       7.241   0.813   0.128  0.00  0.00    +0.046 A 
ATOM     17  C   UNL     1       6.310   1.769   0.294  0.00  0.00    +0.122 A 
ATOM     18  O   UNL     1       6.913   2.872   0.767  0.00  0.00    -0.466 OA
ATOM     19  C   UNL     1       8.228   2.637   0.909  0.00  0.00    +0.195 A 
ENDBRANCH  14  17
ENDBRANCH   1  14
BRANCH   1  20
ATOM     20  C   UNL     1       4.058  -0.425   1.270  0.00  0.00    +0.193 C 
BRANCH  20  21
ATOM     21  C   UNL     1       4.817  -1.075   0.142  0.00  0.00    -0.018 A 
ATOM     22  C   UNL     1       4.523  -0.747  -1.169  0.00  0.00    +0.007 A 
ATOM     23  C   UNL     1       5.219  -1.342  -2.204  0.00  0.00    +0.020 A 
ATOM     24  C   UNL     1       6.209  -2.268  -1.928  0.00  0.00    +0.041 A 
ATOM     25  C   UNL     1       6.503  -2.596  -0.617  0.00  0.00    +0.020 A 
ATOM     26  C   UNL     1       5.811  -1.996   0.418  0.00  0.00    +0.007 A 
ATOM     27 CL   UNL     1       7.083  -3.017  -3.228  0.00  0.00    -0.084 Cl
ENDBRANCH  20  21
BRANCH  20  28
ATOM     28  C   UNL     1       2.608  -0.831   1.199  0.00  0.00    +0.238 C 
ATOM     29  O   UNL     1       1.748   0.014   1.062  0.00  0.00    -0.273 OA
ATOM     30  N   UNL     1       2.267  -2.131   1.289  0.00  0.00    -0.311 N 
ATOM     31  H   UNL     1       2.955  -2.807   1.399  0.00  0.00    +0.149 HD
BRANCH  30  32
ATOM     32  C   UNL     1       0.858  -2.526   1.220  0.00  0.00    +0.073 C 
ATOM     33  C   UNL     1       0.229  -2.416   2.611  0.00  0.00    +0.022 C 
ATOM     34  C   UNL     1      -1.242  -2.828   2.539  0.00  0.00    +0.002 C 
ATOM     35  C   UNL     1      -1.345  -4.272   2.046  0.00  0.00    +0.000 C 
ATOM     36  C   UNL     1      -0.716  -4.382   0.655  0.00  0.00    +0.002 C 
ATOM     37  C   UNL     1       0.756  -3.970   0.727  0.00  0.00    +0.022 C 
ENDBRANCH  30  32
ENDBRANCH  20  28
ENDBRANCH   1  20
TORSDOF 8
