REMARK  Name = ZINC20876802
REMARK  10 active torsions:
REMARK  status: ('A' for Active; 'I' for Inactive)
REMARK    1  A    between atoms: C_1  and  C_2
REMARK    2  A    between atoms: C_5  and  C_8
REMARK    3  A    between atoms: C_8  and  N_9
REMARK    4  A    between atoms: N_9  and  C_10
REMARK    5  A    between atoms: C_10  and  C_11
REMARK    6  A    between atoms: C_13  and  O_29
REMARK    7  A    between atoms: C_14  and  O_18
REMARK    8  A    between atoms: O_18  and  C_19
REMARK    9  A    between atoms: C_19  and  C_20
REMARK   10  A    between atoms: O_29  and  C_30
REMARK                            x       y       z     vdW  Elec       q    Type
REMARK                         _______ _______ _______ _____ _____    ______ ____
ROOT
ATOM      1  C   UNL     1      -0.366   5.119   0.562  0.00  0.00    -0.060 A 
ATOM      2  C   UNL     1      -0.254   3.751   0.398  0.00  0.00    +0.051 A 
ATOM      3  C   UNL     1      -0.787   2.893   1.346  0.00  0.00    +0.163 A 
ATOM      4  C   UNL     1      -1.427   3.411   2.468  0.00  0.00    +0.176 A 
ATOM      5  C   UNL     1      -1.532   4.784   2.630  0.00  0.00    +0.063 A 
ATOM      6  C   UNL     1      -1.001   5.635   1.676  0.00  0.00    +0.021 A 
ATOM      7 BR   UNL     1      -2.400   5.494   4.152  0.00  0.00    -0.046 Br
ENDROOT
BRANCH   3   8
ATOM      8  O   UNL     1      -0.682   1.547   1.184  0.00  0.00    -0.491 OA
ATOM      9  C   UNL     1      -0.013   1.086   0.008  0.00  0.00    +0.277 C 
ENDBRANCH   3   8
BRANCH   1  10
ATOM     10  C   UNL     1       0.210   6.050  -0.473  0.00  0.00    -0.046 C 
BRANCH  10  11
ATOM     11  N   UNL     1       1.603   6.365  -0.128  0.00  0.00    +0.384 N 
ATOM     12  H   UNL     1       2.179   5.428  -0.096  0.00  0.00    -0.085 HD
ATOM     13  H   UNL     1       1.621   6.840   0.864  0.00  0.00    -0.085 HD
BRANCH  11  14
ATOM     14  C   UNL     1       2.198   7.272  -1.117  0.00  0.00    -0.046 C 
BRANCH  14  19
ATOM     15  C   UNL     1       7.664   8.420   0.365  0.00  0.00    +0.044 C 
ATOM     16  C   UNL     1       6.239   8.121  -0.022  0.00  0.00    -0.050 A 
ATOM     17  C   UNL     1       5.956   7.042  -0.838  0.00  0.00    +0.003 A 
ATOM     18  C   UNL     1       4.649   6.768  -1.193  0.00  0.00    +0.002 A 
ATOM     19  C   UNL     1       3.624   7.572  -0.731  0.00  0.00    -0.064 A 
ATOM     20  C   UNL     1       3.907   8.653   0.082  0.00  0.00    +0.002 A 
ATOM     21  C   UNL     1       5.214   8.925   0.440  0.00  0.00    +0.003 A 
ENDBRANCH  14  19
ENDBRANCH  11  14
ENDBRANCH  10  11
ENDBRANCH   1  10
BRANCH   4  22
ATOM     22  O   UNL     1      -1.948   2.573   3.404  0.00  0.00    -0.483 OA
BRANCH  22  23
ATOM     23  C   UNL     1      -1.088   2.184   4.477  0.00  0.00    +0.265 C 
BRANCH  23  24
ATOM     24  C   UNL     1      -1.832   1.262   5.408  0.00  0.00    -0.007 A 
ATOM     25  C   UNL     1      -2.538   1.783   6.477  0.00  0.00    +0.011 A 
ATOM     26  C   UNL     1      -3.227   0.941   7.330  0.00  0.00    +0.050 A 
ATOM     27  C   UNL     1      -3.201  -0.428   7.123  0.00  0.00    +0.166 A 
ATOM     28  C   UNL     1      -2.485  -0.954   6.050  0.00  0.00    +0.167 A 
ATOM     29  C   UNL     1      -1.802  -0.104   5.196  0.00  0.00    +0.056 A 
ATOM     30  O   UNL     1      -2.615  -2.312   6.063  0.00  0.00    -0.453 OA
ATOM     31  C   UNL     1      -3.077  -2.642   7.386  0.00  0.00    +0.466 C 
ATOM     32  O   UNL     1      -3.779  -1.458   7.808  0.00  0.00    -0.453 OA
ENDBRANCH  23  24
ENDBRANCH  22  23
ENDBRANCH   4  22
TORSDOF 8
