REMARK  Name = ZINC08187538
REMARK  6 active torsions:
REMARK  status: ('A' for Active; 'I' for Inactive)
REMARK    1  A    between atoms: C_1  and  C_2
REMARK    2  A    between atoms: C_5  and  C_14
REMARK    3  A    between atoms: C_12  and  C_13
REMARK    4  A    between atoms: C_14  and  S_15
REMARK    5  A    between atoms: S_15  and  C_16
REMARK    6  A    between atoms: C_19  and  C_21
REMARK                            x       y       z     vdW  Elec       q    Type
REMARK                         _______ _______ _______ _____ _____    ______ ____
ROOT
ATOM      1  S   UNL     1      -1.650  -1.456  -4.096  0.00  0.00    -0.061 S 
ENDROOT
BRANCH   1   2
ATOM      2  C   UNL     1      -1.506  -0.661  -5.662  0.00  0.00    +0.278 A 
ATOM      3  N   UNL     1      -0.424  -0.588  -6.399  0.00  0.00    -0.101 NA
ATOM      4  N   UNL     1      -0.682   0.065  -7.477  0.00  0.00    -0.106 NA
ATOM      5  C   UNL     1      -1.940   0.436  -7.471  0.00  0.00    +0.251 A 
ATOM      6  O   UNL     1      -2.490  -0.020  -6.324  0.00  0.00    -0.411 OA
BRANCH   5   7
ATOM      7  C   UNL     1      -2.629   1.206  -8.525  0.00  0.00    +0.063 A 
ATOM      8  C   UNL     1      -3.929   1.599  -8.524  0.00  0.00    +0.097 A 
ATOM      9  N   UNL     1      -4.202   2.290  -9.669  0.00  0.00    -0.360 N 
ATOM     10  H   UNL     1      -5.064   2.672  -9.894  0.00  0.00    +0.165 HD
ATOM     11  C   UNL     1      -3.075   2.368 -10.458  0.00  0.00    +0.047 A 
ATOM     12  C   UNL     1      -2.039   1.702  -9.781  0.00  0.00    +0.012 A 
ATOM     13  C   UNL     1      -0.769   1.627 -10.348  0.00  0.00    +0.011 A 
ATOM     14  C   UNL     1      -0.533   2.212 -11.572  0.00  0.00    +0.001 A 
ATOM     15  C   UNL     1      -1.554   2.873 -12.241  0.00  0.00    +0.002 A 
ATOM     16  C   UNL     1      -2.817   2.948 -11.696  0.00  0.00    +0.026 A 
ENDBRANCH   5   7
ENDBRANCH   1   2
BRANCH   1  17
ATOM     17  C   UNL     1       0.013  -2.109  -3.782  0.00  0.00    +0.115 C 
BRANCH  17  22
ATOM     18  C   UNL     1      -0.018   1.503   0.010  0.00  0.00    +0.044 C 
ATOM     19  C   UNL     1       0.002  -0.004   0.002  0.00  0.00    -0.047 A 
ATOM     20  C   UNL     1       0.006  -0.676  -1.188  0.00  0.00    +0.015 A 
ATOM     21  C   UNL     1       0.025  -2.074  -1.195  0.00  0.00    +0.022 A 
ATOM     22  C   UNL     1       0.029  -2.824  -2.455  0.00  0.00    -0.020 A 
ATOM     23  C   UNL     1       0.049  -4.179  -2.393  0.00  0.00    +0.097 A 
ATOM     24  C   UNL     1       0.063  -4.825  -1.138  0.00  0.00    +0.338 A 
ATOM     25  O   UNL     1       0.080  -6.042  -1.097  0.00  0.00    -0.245 OA
ATOM     26  O   UNL     1       0.059  -4.131   0.011  0.00  0.00    -0.422 OA
ATOM     27  C   UNL     1       0.040  -2.781   0.019  0.00  0.00    +0.140 A 
ATOM     28  C   UNL     1       0.036  -2.078   1.217  0.00  0.00    +0.050 A 
ATOM     29  C   UNL     1       0.023  -0.699   1.202  0.00  0.00    -0.044 A 
ATOM     30  C   UNL     1       0.025   0.061   2.504  0.00  0.00    +0.044 C 
ENDBRANCH  17  22
ENDBRANCH   1  17
TORSDOF 4
