REMARK  Name = ZINC09043341
REMARK  12 active torsions:
REMARK  status: ('A' for Active; 'I' for Inactive)
REMARK    1  A    between atoms: C_1  and  O_2
REMARK    2  A    between atoms: O_2  and  C_3
REMARK    3  A    between atoms: C_6  and  C_9
REMARK    4  A    between atoms: C_9  and  N_61
REMARK    5  A    between atoms: C_15  and  S_32
REMARK    6  A    between atoms: N_16  and  C_20
REMARK    7  A    between atoms: C_20  and  C_21
REMARK    8  A    between atoms: C_21  and  C_22
REMARK    9  A    between atoms: C_25  and  O_30
REMARK   10  A    between atoms: C_26  and  O_28
REMARK   11  A    between atoms: O_28  and  C_29
REMARK   12  A    between atoms: O_30  and  C_31
REMARK                            x       y       z     vdW  Elec       q    Type
REMARK                         _______ _______ _______ _____ _____    ______ ____
ROOT
ATOM      1  C   UNL     1      -0.103   5.980   0.022  0.00  0.00    -0.031 C 
ATOM      2  C   UNL     1      -0.029   4.476   0.023  0.00  0.00    +0.040 A 
ATOM      3  C   UNL     1      -1.227   3.729   0.032  0.00  0.00    +0.277 A 
ATOM      4  O   UNL     1      -2.307   4.303   0.046  0.00  0.00    -0.265 OA
ATOM      5  N   UNL     1      -1.177   2.389   0.021  0.00  0.00    -0.185 NA
ATOM      6  C   UNL     1      -0.022   1.758   0.012  0.00  0.00    +0.171 A 
ATOM      7  N   UNL     1       1.155   2.442   0.004  0.00  0.00    -0.308 N 
ATOM      8  C   UNL     1       1.160   3.817   0.014  0.00  0.00    +0.106 A 
ATOM      9  N   UNL     1       2.366   4.470   0.024  0.00  0.00    -0.347 N 
ATOM     10  C   UNL     1       2.258   5.864  -0.418  0.00  0.00    +0.028 C 
ATOM     11  H   UNL     1       2.801   4.412   0.932  0.00  0.00    +0.145 HD
ATOM     12  N   UNL     1       1.216   6.524   0.391  0.00  0.00    +0.395 N 
ATOM     13  H   UNL     1       1.392   6.337   1.385  0.00  0.00    -0.079 HD
ENDROOT
BRANCH   6  14
ATOM     14  S   UNL     1       0.002  -0.004   0.002  0.00  0.00    -0.105 S 
ATOM     15  H   UNL     1       0.019  -0.256   1.389  0.00  0.00    +0.110 HD
ENDBRANCH   6  14
BRANCH  12  16
ATOM     16  C   UNL     1       1.245   7.988   0.163  0.00  0.00    -0.040 C 
BRANCH  16  20
ATOM     17  C   UNL     1       4.829   9.593   1.850  0.00  0.00    +0.120 A 
ATOM     18  C   UNL     1       4.812   9.168   0.529  0.00  0.00    +0.046 A 
ATOM     19  C   UNL     1       3.652   8.650  -0.014  0.00  0.00    +0.005 A 
ATOM     20  C   UNL     1       2.509   8.554   0.758  0.00  0.00    -0.064 A 
ATOM     21  C   UNL     1       2.521   8.982   2.073  0.00  0.00    +0.005 A 
ATOM     22  C   UNL     1       3.680   9.496   2.622  0.00  0.00    +0.046 A 
BRANCH  17  24
ATOM     23  C   UNL     1       5.912  10.520   3.752  0.00  0.00    +0.277 C 
ATOM     24  O   UNL     1       5.968  10.103   2.386  0.00  0.00    -0.495 OA
ENDBRANCH  17  24
ENDBRANCH  16  20
ENDBRANCH  12  16
BRANCH   7  25
ATOM     25  C   UNL     1       2.423   1.709  -0.015  0.00  0.00    +0.130 C 
BRANCH  25  26
ATOM     26  C   UNL     1       2.849   1.465  -1.463  0.00  0.00    +0.057 C 
BRANCH  26  27
ATOM     27  C   UNL     1       4.154   0.711  -1.483  0.00  0.00    -0.042 A 
ATOM     28  C   UNL     1       5.351   1.404  -1.496  0.00  0.00    +0.007 A 
ATOM     29  C   UNL     1       6.550   0.717  -1.508  0.00  0.00    +0.049 A 
ATOM     30  C   UNL     1       6.555  -0.669  -1.518  0.00  0.00    +0.161 A 
ATOM     31  C   UNL     1       5.351  -1.366  -1.510  0.00  0.00    +0.162 A 
ATOM     32  C   UNL     1       4.152  -0.671  -1.492  0.00  0.00    +0.053 A 
BRANCH  31  33
ATOM     33  O   UNL     1       5.351  -2.726  -1.519  0.00  0.00    -0.491 OA
ATOM     34  C   UNL     1       4.077  -3.374  -1.510  0.00  0.00    +0.277 C 
ENDBRANCH  31  33
BRANCH  30  35
ATOM     35  O   UNL     1       7.735  -1.346  -1.536  0.00  0.00    -0.491 OA
ATOM     36  C   UNL     1       8.931  -0.565  -1.543  0.00  0.00    +0.277 C 
ENDBRANCH  30  35
ENDBRANCH  26  27
ENDBRANCH  25  26
ENDBRANCH   7  25
TORSDOF 9
