REMARK  Name = ZINC00879102
REMARK  9 active torsions:
REMARK  status: ('A' for Active; 'I' for Inactive)
REMARK    1  A    between atoms: C_1  and  C_2
REMARK    2  A    between atoms: C_5  and  S_8
REMARK    3  A    between atoms: S_8  and  N_11
REMARK    4  A    between atoms: N_11  and  C_12
REMARK    5  A    between atoms: N_11  and  C_25
REMARK    6  A    between atoms: C_12  and  C_13
REMARK    7  A    between atoms: N_15  and  C_16
REMARK    8  A    between atoms: C_19  and  C_22
REMARK    9  A    between atoms: C_22  and  C_23
REMARK                            x       y       z     vdW  Elec       q    Type
REMARK                         _______ _______ _______ _____ _____    ______ ____
ROOT
ATOM      1  N   UNL     1      -2.339   5.689   7.056  0.00  0.00    -0.194 N 
ENDROOT
BRANCH   1   2
ATOM      2  C   UNL     1      -1.187   5.760   7.844  0.00  0.00    +0.052 A 
ATOM      3  C   UNL     1      -0.907   6.914   8.565  0.00  0.00    +0.026 A 
ATOM      4  C   UNL     1       0.229   6.979   9.348  0.00  0.00    +0.022 A 
ATOM      5  C   UNL     1       1.094   5.901   9.404  0.00  0.00    +0.041 A 
ATOM      6  C   UNL     1       0.821   4.752   8.683  0.00  0.00    +0.022 A 
ATOM      7  C   UNL     1      -0.317   4.679   7.903  0.00  0.00    +0.026 A 
ATOM      8 CL   UNL     1       2.525   5.989  10.383  0.00  0.00    -0.084 Cl
ENDBRANCH   1   2
BRANCH   1   9
ATOM      9  S   UNL     1      -3.017   7.075   6.454  0.00  0.00    +0.075 S 
ATOM     10  O   UNL     1      -1.966   8.024   6.337  0.00  0.00    -0.150 OA
ATOM     11  O   UNL     1      -3.819   6.686   5.347  0.00  0.00    -0.150 OA
BRANCH   9  16
ATOM     12  C   UNL     1      -6.790   9.190  10.661  0.00  0.00    +0.044 C 
ATOM     13  C   UNL     1      -5.848   8.662   9.610  0.00  0.00    -0.050 A 
ATOM     14  C   UNL     1      -4.566   9.171   9.512  0.00  0.00    +0.005 A 
ATOM     15  C   UNL     1      -3.702   8.686   8.548  0.00  0.00    +0.029 A 
ATOM     16  C   UNL     1      -4.119   7.692   7.682  0.00  0.00    +0.109 A 
ATOM     17  C   UNL     1      -5.402   7.186   7.777  0.00  0.00    +0.029 A 
ATOM     18  C   UNL     1      -6.265   7.668   8.744  0.00  0.00    +0.005 A 
ENDBRANCH   9  16
ENDBRANCH   1   9
BRANCH   1  19
ATOM     19  C   UNL     1      -2.947   4.389   6.763  0.00  0.00    +0.227 C 
BRANCH  19  20
ATOM     20  C   UNL     1      -2.266   3.774   5.567  0.00  0.00    +0.236 C 
ATOM     21  O   UNL     1      -1.362   4.364   5.014  0.00  0.00    -0.274 OA
ATOM     22  N   UNL     1      -2.661   2.569   5.112  0.00  0.00    -0.284 N 
ATOM     23  H   UNL     1      -3.429   2.129   5.508  0.00  0.00    +0.155 HD
BRANCH  22  24
ATOM     24  C   UNL     1      -1.964   1.952   4.067  0.00  0.00    +0.033 A 
ATOM     25  C   UNL     1      -1.417   2.719   3.047  0.00  0.00    +0.023 A 
ATOM     26  C   UNL     1      -0.729   2.107   2.018  0.00  0.00    +0.006 A 
ATOM     27  C   UNL     1      -0.583   0.732   2.003  0.00  0.00    -0.034 A 
ATOM     28  C   UNL     1      -1.130  -0.035   3.015  0.00  0.00    +0.006 A 
ATOM     29  C   UNL     1      -1.816   0.571   4.050  0.00  0.00    +0.023 A 
BRANCH  27  30
ATOM     30  C   UNL     1       0.169   0.068   0.878  0.00  0.00    +0.153 C 
BRANCH  30  31
ATOM     31  C   UNL     1       1.594  -0.031   1.232  0.00  0.00    +0.067 C 
ATOM     32  N   UNL     1       2.694  -0.107   1.505  0.00  0.00    -0.196 NA
ENDBRANCH  30  31
ENDBRANCH  27  30
ENDBRANCH  22  24
ENDBRANCH  19  20
ENDBRANCH   1  19
TORSDOF 8
