REMARK  Name = ZINC16990762
REMARK  7 active torsions:
REMARK  status: ('A' for Active; 'I' for Inactive)
REMARK    1  A    between atoms: C_1  and  C_2
REMARK    2  A    between atoms: C_5  and  O_29
REMARK    3  A    between atoms: C_17  and  C_28
REMARK    4  A    between atoms: C_21  and  O_27
REMARK    5  A    between atoms: C_23  and  O_25
REMARK    6  A    between atoms: O_25  and  C_26
REMARK    7  A    between atoms: O_29  and  C_30
REMARK                            x       y       z     vdW  Elec       q    Type
REMARK                         _______ _______ _______ _____ _____    ______ ____
ROOT
ATOM      1  C   UNL     1       1.138  -1.394   1.427  0.00  0.00    +0.016 C 
ATOM      2  C   UNL     1       0.149  -2.551   1.274  0.00  0.00    -0.008 C 
ATOM      3  C   UNL     1       0.162  -3.004  -0.184  0.00  0.00    +0.014 C 
ATOM      4  C   UNL     1      -0.878  -2.220  -0.985  0.00  0.00    +0.033 C 
ATOM      5  C   UNL     1      -1.004  -0.788  -0.469  0.00  0.00    +0.122 C 
ATOM      6  C   UNL     1      -1.693  -0.796   0.903  0.00  0.00    +0.062 C 
ATOM      7  C   UNL     1      -1.225  -2.049   1.626  0.00  0.00    -0.065 C 
ATOM      8  C   UNL     1      -2.014  -2.637   2.467  0.00  0.00    -0.027 C 
ATOM      9  C   UNL     1      -1.671  -3.912   3.178  0.00  0.00    +0.031 C 
ATOM     10  C   UNL     1      -0.569  -4.655   2.413  0.00  0.00    +0.000 C 
ATOM     11  C   UNL     1       0.586  -3.681   2.200  0.00  0.00    +0.003 C 
ATOM     12  C   UNL     1       1.813  -4.371   1.586  0.00  0.00    +0.005 C 
ATOM     13  C   UNL     1       2.241  -5.604   2.395  0.00  0.00    +0.010 C 
ATOM     14  C   UNL     1       1.042  -6.534   2.456  0.00  0.00    -0.000 C 
ATOM     15  C   UNL     1      -0.057  -5.800   3.269  0.00  0.00    +0.004 C 
ATOM     16  C   UNL     1      -1.056  -6.930   3.536  0.00  0.00    +0.038 C 
ATOM     17  C   UNL     1      -0.135  -8.132   3.884  0.00  0.00    +0.144 C 
ATOM     18  C   UNL     1       1.236  -7.837   3.226  0.00  0.00    +0.152 C 
ATOM     19  C   UNL     1       0.533  -6.834   1.044  0.00  0.00    +0.014 C 
ENDROOT
BRANCH  18  20
ATOM     20  O   UNL     1       1.593  -8.892   2.331  0.00  0.00    -0.377 OA
ATOM     21  C   UNL     1       2.369  -9.929   2.935  0.00  0.00    +0.194 C 
ENDBRANCH  18  20
BRANCH  17  22
ATOM     22  O   UNL     1      -0.684  -9.340   3.354  0.00  0.00    -0.389 OA
ATOM     23  H   UNL     1      -1.554  -9.566   3.710  0.00  0.00    +0.210 HD
ENDBRANCH  17  22
BRANCH   5  24
ATOM     24  O   UNL     1       0.296  -0.210  -0.346  0.00  0.00    -0.379 OA
ATOM     25  C   UNL     1       0.324   1.206  -0.539  0.00  0.00    +0.194 C 
ENDBRANCH   5  24
TORSDOF 3
