REMARK  Name = ZINC05234742
REMARK  4 active torsions:
REMARK  status: ('A' for Active; 'I' for Inactive)
REMARK    1  A    between atoms: C_1  and  C_2
REMARK    2  A    between atoms: C_5  and  C_8
REMARK    3  A    between atoms: N_10  and  S_14
REMARK    4  A    between atoms: S_14  and  C_17
REMARK                            x       y       z     vdW  Elec       q    Type
REMARK                         _______ _______ _______ _____ _____    ______ ____
ROOT
ATOM      1  S   UNL     1      -1.292  -2.438   0.001  0.00  0.00    +0.063 S 
ATOM      2  O   UNL     1      -0.489  -3.122   0.954  0.00  0.00    -0.153 OA
ATOM      3  O   UNL     1      -2.710  -2.525  -0.003  0.00  0.00    -0.153 OA
ENDROOT
BRANCH   1   4
ATOM      4  C   UNL     1      -0.893  -0.727   0.142  0.00  0.00    +0.113 A 
ATOM      5  C   UNL     1       0.083  -0.310   1.001  0.00  0.00    +0.029 A 
ATOM      6  C   UNL     1       0.429   1.036   1.141  0.00  0.00    +0.006 A 
ATOM      7  C   UNL     1      -0.215   1.991   0.415  0.00  0.00    -0.039 A 
ATOM      8  C   UNL     1      -1.216   1.581  -0.460  0.00  0.00    -0.010 A 
ATOM      9  C   UNL     1      -1.581   0.232  -0.618  0.00  0.00    +0.009 A 
ATOM     10  C   UNL     1      -2.612  -0.066  -1.525  0.00  0.00    +0.010 A 
ATOM     11  C   UNL     1      -3.206   0.957  -2.205  0.00  0.00    +0.001 A 
ATOM     12  C   UNL     1      -2.825   2.290  -2.032  0.00  0.00    +0.004 A 
ATOM     13  C   UNL     1      -1.831   2.614  -1.161  0.00  0.00    -0.039 A 
ATOM     14  C   UNL     1      -1.176   3.904  -0.730  0.00  0.00    +0.040 C 
ATOM     15  C   UNL     1      -0.108   3.493   0.306  0.00  0.00    +0.040 C 
ENDBRANCH   1   4
BRANCH   1  17
ATOM     16  C   UNL     1      -1.703  -3.032  -2.641  0.00  0.00    +0.167 C 
ATOM     17  N   UNL     1      -0.782  -2.938  -1.493  0.00  0.00    -0.159 NA
ATOM     18  C   UNL     1       0.605  -3.317  -1.750  0.00  0.00    +0.122 C 
ATOM     19  C   UNL     1       1.008  -2.982  -3.216  0.00  0.00    +0.088 C 
ATOM     20  S   UNL     1      -0.580  -3.443  -4.044  0.00  0.00    -0.134 S 
BRANCH  16  25
ATOM     21  C   UNL     1      -5.573  -7.243  -1.813  0.00  0.00    +0.044 C 
ATOM     22  C   UNL     1      -4.564  -6.145  -2.029  0.00  0.00    -0.050 A 
ATOM     23  C   UNL     1      -4.899  -5.036  -2.783  0.00  0.00    +0.004 A 
ATOM     24  C   UNL     1      -3.974  -4.029  -2.981  0.00  0.00    +0.006 A 
ATOM     25  C   UNL     1      -2.712  -4.130  -2.425  0.00  0.00    -0.019 A 
ATOM     26  C   UNL     1      -2.375  -5.242  -1.675  0.00  0.00    +0.006 A 
ATOM     27  C   UNL     1      -3.302  -6.246  -1.473  0.00  0.00    +0.004 A 
ENDBRANCH  16  25
ENDBRANCH   1  17
TORSDOF 3
