REMARK  Name = ZINC60241483
REMARK  9 active torsions:
REMARK  status: ('A' for Active; 'I' for Inactive)
REMARK    1  A    between atoms: C_1  and  C_2
REMARK    2  A    between atoms: C_7  and  C_9
REMARK    3  A    between atoms: C_7  and  C_10
REMARK    4  A    between atoms: N_13  and  C_17
REMARK    5  A    between atoms: C_17  and  C_18
REMARK    6  A    between atoms: N_20  and  C_21
REMARK    7  A    between atoms: C_21  and  C_22
REMARK    8  A    between atoms: C_21  and  C_23
REMARK    9  A    between atoms: C_21  and  C_24
REMARK                            x       y       z     vdW  Elec       q    Type
REMARK                         _______ _______ _______ _____ _____    ______ ____
ROOT
ATOM      1  C   UNL     1      -3.900  -4.397  -1.737  0.00  0.00    +0.213 C 
ENDROOT
BRANCH   1  13
ATOM      2  C   UNL     1       0.467   1.141  -1.024  0.00  0.00    +0.007 C 
ATOM      3  C   UNL     1       0.421  -0.374  -0.816  0.00  0.00    -0.011 C 
ATOM      4  C   UNL     1      -1.037  -0.831  -0.709  0.00  0.00    +0.038 C 
ATOM      5  C   UNL     1      -1.083  -2.338  -0.481  0.00  0.00    +0.113 C 
ATOM      6  C   UNL     1      -0.329  -2.715   0.789  0.00  0.00    +0.041 C 
ATOM      7  C   UNL     1       1.126  -2.251   0.677  0.00  0.00    -0.032 C 
ATOM      8  C   UNL     1       1.163  -0.736   0.472  0.00  0.00    +0.009 C 
ATOM      9  C   UNL     1       1.877  -2.611   1.960  0.00  0.00    +0.011 C 
ATOM     10  C   UNL     1       1.791  -2.943  -0.515  0.00  0.00    +0.011 C 
ATOM     11  C   UNL     1      -2.514  -2.817  -0.406  0.00  0.00    +0.247 C 
ATOM     12  O   UNL     1      -3.357  -2.490   0.402  0.00  0.00    -0.273 OA
ATOM     13  N   UNL     1      -2.658  -3.684  -1.429  0.00  0.00    -0.215 N 
ATOM     14  C   UNL     1      -1.524  -3.814  -2.128  0.00  0.00    +0.310 C 
ATOM     15  O   UNL     1      -1.405  -4.539  -3.097  0.00  0.00    -0.252 OA
ATOM     16  N   UNL     1      -0.528  -3.050  -1.639  0.00  0.00    -0.285 N 
ATOM     17  H   UNL     1       0.376  -2.984  -1.983  0.00  0.00    +0.151 HD
ENDBRANCH   1  13
BRANCH   1  18
ATOM     18  C   UNL     1      -4.728  -3.575  -2.691  0.00  0.00    +0.232 C 
ATOM     19  O   UNL     1      -4.320  -2.499  -3.076  0.00  0.00    -0.274 OA
ATOM     20  N   UNL     1      -5.922  -4.034  -3.116  0.00  0.00    -0.305 N 
ATOM     21  H   UNL     1      -6.248  -4.894  -2.808  0.00  0.00    +0.150 HD
BRANCH  20  22
ATOM     22  C   UNL     1      -6.726  -3.235  -4.043  0.00  0.00    +0.054 C 
ATOM     23  C   UNL     1      -7.082  -1.899  -3.388  0.00  0.00    +0.036 C 
ATOM     24  C   UNL     1      -5.926  -2.979  -5.322  0.00  0.00    +0.036 C 
BRANCH  22  25
ATOM     25  C   UNL     1      -7.991  -3.981  -4.382  0.00  0.00    -0.021 A 
ATOM     26  C   UNL     1      -9.111  -3.285  -4.798  0.00  0.00    +0.009 A 
ATOM     27  C   UNL     1     -10.274  -3.966  -5.109  0.00  0.00    +0.050 A 
ATOM     28  C   UNL     1     -10.319  -5.348  -5.004  0.00  0.00    +0.162 A 
ATOM     29  C   UNL     1      -9.192  -6.047  -4.589  0.00  0.00    +0.162 A 
ATOM     30  C   UNL     1      -8.027  -5.358  -4.283  0.00  0.00    +0.055 A 
ATOM     31  O   UNL     1      -9.212  -7.404  -4.487  0.00  0.00    -0.485 OA
ATOM     32  C   UNL     1     -10.500  -8.028  -4.448  0.00  0.00    +0.270 C 
ATOM     33  C   UNL     1     -11.366  -7.411  -5.555  0.00  0.00    +0.270 C 
ATOM     34  O   UNL     1     -11.472  -6.004  -5.310  0.00  0.00    -0.485 OA
ENDBRANCH  22  25
ENDBRANCH  20  22
ENDBRANCH   1  18
TORSDOF 4
