REMARK  Name = ZINC16044843
REMARK  11 active torsions:
REMARK  status: ('A' for Active; 'I' for Inactive)
REMARK    1  A    between atoms: C_1  and  N_2
REMARK    2  A    between atoms: N_2  and  C_3
REMARK    3  A    between atoms: C_11  and  C_13
REMARK    4  A    between atoms: C_13  and  S_14
REMARK    5  A    between atoms: S_14  and  C_15
REMARK    6  A    between atoms: C_20  and  O_36
REMARK    7  A    between atoms: N_25  and  C_26
REMARK    8  A    between atoms: C_29  and  O_34
REMARK    9  A    between atoms: C_30  and  O_32
REMARK   10  A    between atoms: O_32  and  C_33
REMARK   11  A    between atoms: O_34  and  C_35
REMARK                            x       y       z     vdW  Elec       q    Type
REMARK                         _______ _______ _______ _____ _____    ______ ____
ROOT
ATOM      1  C   UNL     1      -2.406  -0.329  -0.091  0.00  0.00    +0.177 A 
ATOM      2  N   UNL     1      -3.490  -1.063  -0.096  0.00  0.00    -0.223 NA
ATOM      3  C   UNL     1      -4.722  -0.508   0.009  0.00  0.00    +0.079 A 
ATOM      4  C   UNL     1      -5.879  -1.293   0.003  0.00  0.00    +0.032 A 
ATOM      5  C   UNL     1      -7.104  -0.699   0.111  0.00  0.00    +0.047 A 
ATOM      6  C   UNL     1      -7.222   0.684   0.229  0.00  0.00    +0.118 A 
ATOM      7  C   UNL     1      -6.096   1.485   0.238  0.00  0.00    +0.060 A 
ATOM      8  C   UNL     1      -4.837   0.895   0.128  0.00  0.00    +0.069 A 
ATOM      9  C   UNL     1      -3.604   1.694   0.137  0.00  0.00    +0.267 A 
ATOM     10  O   UNL     1      -3.639   2.907   0.241  0.00  0.00    -0.267 OA
ATOM     11  N   UNL     1      -2.429   1.034   0.020  0.00  0.00    -0.255 N 
ENDROOT
BRANCH  11  12
ATOM     12  C   UNL     1      -1.225   1.753   0.017  0.00  0.00    +0.056 A 
ATOM     13  C   UNL     1      -0.569   2.013   1.213  0.00  0.00    +0.030 A 
ATOM     14  C   UNL     1       0.620   2.716   1.213  0.00  0.00    +0.051 A 
ATOM     15  C   UNL     1       1.159   3.168   0.019  0.00  0.00    +0.162 A 
ATOM     16  C   UNL     1       0.501   2.913  -1.181  0.00  0.00    +0.163 A 
ATOM     17  C   UNL     1      -0.691   2.208  -1.180  0.00  0.00    +0.075 A 
BRANCH  16  18
ATOM     18  O   UNL     1       1.029   3.356  -2.354  0.00  0.00    -0.491 OA
ATOM     19  C   UNL     1       0.301   3.058  -3.547  0.00  0.00    +0.277 C 
ENDBRANCH  16  18
BRANCH  15  20
ATOM     20  O   UNL     1       2.330   3.860   0.019  0.00  0.00    -0.491 OA
ATOM     21  C   UNL     1       2.950   4.084   1.287  0.00  0.00    +0.277 C 
ENDBRANCH  15  20
ENDBRANCH  11  12
BRANCH   6  22
ATOM     22  O   UNL     1      -8.454   1.250   0.335  0.00  0.00    -0.507 OA
ATOM     23  H   UNL     1      -8.766   1.343   1.246  0.00  0.00    +0.292 HD
ENDBRANCH   6  22
BRANCH   1  24
ATOM     24  S   UNL     1      -0.845  -1.134  -0.233  0.00  0.00    -0.078 S 
BRANCH  24  25
ATOM     25  C   UNL     1      -1.390  -2.857  -0.344  0.00  0.00    +0.173 C 
BRANCH  25  28
ATOM     26  C   UNL     1      -1.699  -5.666  -0.555  0.00  0.00    +0.132 C 
ATOM     27  N   UNL     1      -0.352  -5.090  -0.576  0.00  0.00    -0.299 N 
ATOM     28  C   UNL     1      -0.188  -3.756  -0.476  0.00  0.00    +0.226 C 
ATOM     29  O   UNL     1       0.927  -3.279  -0.494  0.00  0.00    -0.275 OA
BRANCH  27  30
ATOM     30  C   UNL     1       0.817  -5.964  -0.704  0.00  0.00    +0.098 C 
ATOM     31  C   UNL     1       0.859  -6.952   0.474  0.00  0.00    +0.046 C 
ATOM     32  C   UNL     1       1.887  -8.072   0.187  0.00  0.00    +0.168 C 
ATOM     33  S   UNL     1       1.884  -8.162  -1.650  0.00  0.00    -0.029 S 
ATOM     34  O   UNL     1       3.175  -7.814  -2.131  0.00  0.00    -0.174 OA
ATOM     35  O   UNL     1       1.295  -9.391  -2.052  0.00  0.00    -0.174 OA
ATOM     36  C   UNL     1       0.716  -6.786  -2.021  0.00  0.00    +0.188 C 
ENDBRANCH  27  30
ENDBRANCH  25  28
ENDBRANCH  24  25
ENDBRANCH   1  24
TORSDOF 8
