REMARK  Name = ZINC57816065
REMARK  6 active torsions:
REMARK  status: ('A' for Active; 'I' for Inactive)
REMARK    1  A    between atoms: C_6  and  C_7
REMARK    2  A    between atoms: C_8  and  C_9
REMARK    3  A    between atoms: C_8  and  C_11
REMARK    4  A    between atoms: C_16  and  C_19
REMARK    5  A    between atoms: C_22  and  O_26
REMARK    6  A    between atoms: C_23  and  O_25
REMARK                            x       y       z     vdW  Elec       q    Type
REMARK                         _______ _______ _______ _____ _____    ______ ____
ROOT
ATOM      1  C   UNL     1       0.048  -2.849  -0.118  0.00  0.00    +0.260 C 
ATOM      2  O   UNL     1       1.087  -2.242   0.058  0.00  0.00    -0.269 OA
ATOM      3  N   UNL     1       0.072  -4.180  -0.328  0.00  0.00    -0.260 N 
ATOM      4  C   UNL     1       1.283  -4.858  -0.343  0.00  0.00    +0.165 A 
ATOM      5  N   UNL     1       1.518  -6.143  -0.535  0.00  0.00    -0.225 NA
ATOM      6  C   UNL     1       2.752  -6.626  -0.518  0.00  0.00    +0.080 A 
ATOM      7  C   UNL     1       3.801  -5.779  -0.296  0.00  0.00    +0.076 A 
ATOM      8  S   UNL     1       2.938  -4.223  -0.116  0.00  0.00    -0.060 S 
ATOM      9  H   UNL     1      -0.757  -4.664  -0.468  0.00  0.00    +0.157 HD
ENDROOT
BRANCH   6  10
ATOM     10  C   UNL     1       2.991  -8.074  -0.736  0.00  0.00    +0.005 A 
ATOM     11  C   UNL     1       4.291  -8.578  -0.710  0.00  0.00    +0.014 A 
ATOM     12  C   UNL     1       4.513  -9.925  -0.912  0.00  0.00    +0.050 A 
ATOM     13  C   UNL     1       3.446 -10.779  -1.142  0.00  0.00    +0.158 A 
ATOM     14  C   UNL     1       2.146 -10.282  -1.169  0.00  0.00    +0.159 A 
ATOM     15  C   UNL     1       1.918  -8.933  -0.961  0.00  0.00    +0.059 A 
BRANCH  14  16
ATOM     16  O   UNL     1       1.101 -11.122  -1.396  0.00  0.00    -0.503 OA
ATOM     17  H   UNL     1       0.726 -11.508  -0.593  0.00  0.00    +0.292 HD
ENDBRANCH  14  16
BRANCH  13  18
ATOM     18  O   UNL     1       3.670 -12.106  -1.341  0.00  0.00    -0.503 OA
ATOM     19  H   UNL     1       3.662 -12.632  -0.530  0.00  0.00    +0.292 HD
ENDBRANCH  13  18
ENDBRANCH   6  10
BRANCH   1  21
ATOM     20  C   UNL     1      -1.254  -0.754  -0.041  0.00  0.00    +0.032 C 
ATOM     21  C   UNL     1      -1.236  -2.130  -0.102  0.00  0.00    +0.114 C 
BRANCH  20  27
ATOM     22  C   UNL     1       0.896  -0.351  -1.221  0.00  0.00    +0.011 A 
ATOM     23  C   UNL     1       2.062   0.364  -1.377  0.00  0.00    +0.042 A 
ATOM     24  C   UNL     1       2.342   1.434  -0.540  0.00  0.00    +0.158 A 
ATOM     25  C   UNL     1       1.448   1.792   0.463  0.00  0.00    +0.159 A 
ATOM     26  C   UNL     1       0.277   1.085   0.631  0.00  0.00    +0.049 A 
ATOM     27  C   UNL     1      -0.011   0.003  -0.213  0.00  0.00    -0.021 A 
ATOM     28  F   UNL     1       1.728   2.835   1.274  0.00  0.00    -0.202 F 
ATOM     29  F   UNL     1       3.488   2.131  -0.700  0.00  0.00    -0.202 F 
ENDBRANCH  20  27
BRANCH  21  30
ATOM     30  C   UNL     1      -2.467  -2.861  -0.148  0.00  0.00    +0.104 C 
ATOM     31  N   UNL     1      -3.443  -3.440  -0.186  0.00  0.00    -0.191 NA
ENDBRANCH  21  30
ENDBRANCH   1  21
TORSDOF 6
