REMARK  Name = ZINC21256609
REMARK  9 active torsions:
REMARK  status: ('A' for Active; 'I' for Inactive)
REMARK    1  A    between atoms: C_1  and  C_2
REMARK    2  A    between atoms: C_2  and  O_3
REMARK    3  A    between atoms: O_3  and  C_4
REMARK    4  A    between atoms: C_6  and  C_14
REMARK    5  A    between atoms: C_9  and  O_10
REMARK    6  A    between atoms: O_10  and  C_11
REMARK    7  A    between atoms: C_11  and  C_12
REMARK    8  A    between atoms: C_11  and  C_13
REMARK    9  A    between atoms: C_19  and  C_24
REMARK                            x       y       z     vdW  Elec       q    Type
REMARK                         _______ _______ _______ _____ _____    ______ ____
ROOT
ATOM      1  C   UNL     1      -2.487   0.934   0.122  0.00  0.00    +0.136 C 
ATOM      2  C   UNL     1      -2.628   0.199  -1.190  0.00  0.00    +0.036 C 
ATOM      3  C   UNL     1      -2.519  -1.128  -1.365  0.00  0.00    +0.017 C 
ATOM      4  C   UNL     1      -2.659  -1.736  -2.751  0.00  0.00    +0.059 C 
ATOM      5  C   UNL     1      -3.646  -0.918  -3.581  0.00  0.00    +0.033 C 
ATOM      6  C   UNL     1      -3.101   0.512  -3.679  0.00  0.00    +0.088 C 
ATOM      7  C   UNL     1      -2.903   1.043  -2.291  0.00  0.00    +0.163 C 
ATOM      8  O   UNL     1      -2.981   2.242  -2.106  0.00  0.00    -0.292 OA
ATOM      9  N   UNL     1      -2.281  -2.026  -0.375  0.00  0.00    -0.316 N 
ATOM     10  C   UNL     1      -1.303  -1.885   0.603  0.00  0.00    +0.052 A 
ATOM     11  C   UNL     1      -0.226  -2.749   0.702  0.00  0.00    +0.025 A 
ATOM     12  C   UNL     1       0.688  -2.579   1.728  0.00  0.00    +0.002 A 
ATOM     13  C   UNL     1       0.524  -1.559   2.647  0.00  0.00    +0.002 A 
ATOM     14  C   UNL     1      -0.544  -0.684   2.540  0.00  0.00    +0.025 A 
ATOM     15  C   UNL     1      -1.448  -0.839   1.502  0.00  0.00    +0.049 A 
ATOM     16  N   UNL     1      -2.474   0.076   1.288  0.00  0.00    -0.331 N 
ATOM     17  H   UNL     1      -2.884  -2.944  -0.308  0.00  0.00    +0.152 HD
ATOM     18  H   UNL     1      -3.287   0.141   2.027  0.00  0.00    +0.147 HD
ENDROOT
BRANCH   5  19
ATOM     19  C   UNL     1      -3.770  -1.513  -4.961  0.00  0.00    -0.025 A 
ATOM     20  C   UNL     1      -2.651  -1.641  -5.761  0.00  0.00    +0.005 A 
ATOM     21  C   UNL     1      -2.765  -2.187  -7.026  0.00  0.00    +0.000 A 
ATOM     22  C   UNL     1      -3.998  -2.605  -7.491  0.00  0.00    +0.001 A 
ATOM     23  C   UNL     1      -5.118  -2.476  -6.692  0.00  0.00    +0.020 A 
ATOM     24  C   UNL     1      -5.004  -1.935  -5.423  0.00  0.00    +0.044 A 
ATOM     25 CL   UNL     1      -6.408  -1.782  -4.415  0.00  0.00    -0.083 Cl
ENDBRANCH   5  19
BRANCH   1  28
ATOM     26  C   UNL     1      -0.054   3.825   0.138  0.00  0.00    +0.162 A 
ATOM     27  C   UNL     1      -1.235   3.100   0.171  0.00  0.00    +0.055 A 
ATOM     28  C   UNL     1      -1.201   1.720   0.093  0.00  0.00    -0.019 A 
ATOM     29  C   UNL     1       0.009   1.060  -0.006  0.00  0.00    +0.009 A 
ATOM     30  C   UNL     1       1.191   1.777  -0.039  0.00  0.00    +0.050 A 
ATOM     31  C   UNL     1       1.164   3.160   0.033  0.00  0.00    +0.162 A 
BRANCH  26  32
ATOM     32  O   UNL     1      -0.086   5.183   0.208  0.00  0.00    -0.489 OA
BRANCH  32  34
ATOM     33  C   UNL     1      -1.207   7.317   0.382  0.00  0.00    +0.048 C 
ATOM     34  C   UNL     1      -1.372   5.797   0.315  0.00  0.00    +0.226 C 
ENDBRANCH  32  34
ENDBRANCH  26  32
BRANCH  31  35
ATOM     35  O   UNL     1       2.325   3.867  -0.000  0.00  0.00    -0.486 OA
BRANCH  35  36
ATOM     36  C   UNL     1       3.527   3.130  -0.232  0.00  0.00    +0.167 C 
ATOM     37  C   UNL     1       4.586   4.056  -0.833  0.00  0.00    +0.051 C 
ATOM     38  C   UNL     1       4.040   2.561   1.093  0.00  0.00    +0.051 C 
ENDBRANCH  35  36
ENDBRANCH  31  35
ENDBRANCH   1  28
TORSDOF 6
