REMARK  Name = ZINC12275432
REMARK  0 active torsions:
REMARK  status: ('A' for Active; 'I' for Inactive)
REMARK                            x       y       z     vdW  Elec       q    Type
REMARK                         _______ _______ _______ _____ _____    ______ ____
ROOT
ATOM      1  C   UNL     1       8.269   0.328  -0.079  0.00  0.00    +0.021 A 
ATOM      2  C   UNL     1       7.029  -0.267  -0.070  0.00  0.00    +0.014 A 
ATOM      3  C   UNL     1       5.857   0.517  -0.054  0.00  0.00    +0.037 A 
ATOM      4  C   UNL     1       6.021   1.915  -0.049  0.00  0.00    +0.025 A 
ATOM      5  C   UNL     1       7.265   2.503  -0.058  0.00  0.00    +0.035 A 
ATOM      6  C   UNL     1       8.402   1.707  -0.073  0.00  0.00    +0.042 A 
ATOM      7 CL   UNL     1       9.978   2.434  -0.086  0.00  0.00    -0.084 Cl
ATOM      8  S   UNL     1       4.368   2.556  -0.036  0.00  0.00    -0.084 S 
ATOM      9  C   UNL     1       3.472   1.076  -0.027  0.00  0.00    +0.071 C 
ATOM     10  C   UNL     1       2.165   0.921  -0.014  0.00  0.00    +0.047 A 
ATOM     11  C   UNL     1       1.159   1.996   0.002  0.00  0.00    -0.005 A 
ATOM     12  C   UNL     1       1.224   3.472   0.010  0.00  0.00    +0.010 A 
ATOM     13  C   UNL     1       0.104   4.170   0.025  0.00  0.00    +0.016 A 
ATOM     14  C   UNL     1      -1.222   3.514   0.035  0.00  0.00    +0.027 A 
ATOM     15  C   UNL     1      -1.277   2.204   0.032  0.00  0.00    +0.016 A 
ATOM     16  C   UNL     1      -0.018   1.458   0.010  0.00  0.00    +0.003 A 
ATOM     17  C   UNL     1       0.002  -0.004   0.002  0.00  0.00    +0.031 A 
ATOM     18  C   UNL     1       1.430  -0.371  -0.013  0.00  0.00    +0.196 A 
ATOM     19  O   UNL     1       1.901  -1.481  -0.023  0.00  0.00    -0.287 OA
ATOM     20  C   UNL     1      -1.148  -0.634   0.009  0.00  0.00    +0.014 A 
ATOM     21  C   UNL     1      -2.425   0.094   0.035  0.00  0.00    +0.021 A 
ATOM     22  C   UNL     1      -2.517   1.410   0.044  0.00  0.00    +0.050 A 
ATOM     23 CL   UNL     1      -4.068   2.190   0.069  0.00  0.00    -0.083 Cl
ATOM     24 BR   UNL     1      -2.807   4.546   0.057  0.00  0.00    -0.050 Br
ATOM     25  C   UNL     1       4.459   0.077  -0.042  0.00  0.00    +0.201 C 
ATOM     26  O   UNL     1       4.165  -1.108  -0.044  0.00  0.00    -0.286 OA
ENDROOT
TORSDOF 0
