REMARK  Name = ZINC06928915
REMARK  8 active torsions:
REMARK  status: ('A' for Active; 'I' for Inactive)
REMARK    1  A    between atoms: C_1  and  C_2
REMARK    2  A    between atoms: C_2  and  C_4
REMARK    3  A    between atoms: C_2  and  O_17
REMARK    4  A    between atoms: N_6  and  N_7
REMARK    5  A    between atoms: N_7  and  C_8
REMARK    6  A    between atoms: C_13  and  C_15
REMARK    7  A    between atoms: C_13  and  C_16
REMARK    8  A    between atoms: O_17  and  C_18
REMARK                            x       y       z     vdW  Elec       q    Type
REMARK                         _______ _______ _______ _____ _____    ______ ____
ROOT
ATOM      1  C   UNL     1      -1.422  -0.301  -0.687  0.00  0.00    +0.269 C 
ATOM      2  O   UNL     1      -2.270   0.541  -0.894  0.00  0.00    -0.270 OA
ATOM      3  N   UNL     1      -1.699  -1.603  -0.898  0.00  0.00    -0.234 N 
ATOM      4  H   UNL     1      -0.929  -2.366  -0.710  0.00  0.00    +0.173 HD
ENDROOT
BRANCH   1   6
ATOM      5  C   UNL     1       0.215  -0.551   1.159  0.00  0.00    +0.062 C 
ATOM      6  C   UNL     1      -0.058   0.109  -0.194  0.00  0.00    +0.257 C 
BRANCH   6   7
ATOM      7  O   UNL     1      -0.011   1.530  -0.050  0.00  0.00    -0.478 OA
BRANCH   7   8
ATOM      8  C   UNL     1       1.215   2.115  -0.099  0.00  0.00    +0.140 A 
ATOM      9  C   UNL     1       2.357   1.331  -0.165  0.00  0.00    +0.048 A 
ATOM     10  C   UNL     1       3.602   1.927  -0.215  0.00  0.00    +0.023 A 
ATOM     11  C   UNL     1       3.711   3.306  -0.199  0.00  0.00    +0.043 A 
ATOM     12  C   UNL     1       2.574   4.091  -0.132  0.00  0.00    +0.043 A 
ATOM     13  C   UNL     1       1.326   3.499  -0.089  0.00  0.00    +0.084 A 
ATOM     14 CL   UNL     1      -0.102   4.484  -0.013  0.00  0.00    -0.080 Cl
ATOM     15 CL   UNL     1       5.277   4.053  -0.262  0.00  0.00    -0.083 Cl
ENDBRANCH   7   8
ENDBRANCH   6   7
ENDBRANCH   1   6
BRANCH   3  16
ATOM     16  N   UNL     1      -2.967  -1.984  -1.356  0.00  0.00    -0.268 N 
ATOM     17  H   UNL     1      -3.727  -1.219  -1.570  0.00  0.00    +0.170 HD
BRANCH  16  18
ATOM     18  C   UNL     1      -3.240  -3.223  -1.525  0.00  0.00    +0.026 C 
ATOM     19  C   UNL     1      -2.175  -4.287  -1.353  0.00  0.00    +0.066 C 
ATOM     20  C   UNL     1      -2.278  -5.232  -2.527  0.00  0.00    +0.158 C 
ATOM     21  O   UNL     1      -1.291  -5.581  -3.129  0.00  0.00    -0.293 OA
ATOM     22  C   UNL     1      -3.649  -5.725  -2.930  0.00  0.00    +0.085 C 
ATOM     23  C   UNL     1      -4.562  -4.520  -3.173  0.00  0.00    -0.023 C 
ATOM     24  C   UNL     1      -4.636  -3.667  -1.903  0.00  0.00    +0.059 C 
ATOM     25  C   UNL     1      -5.964  -5.008  -3.541  0.00  0.00    +0.011 C 
ATOM     26  C   UNL     1      -3.998  -3.678  -4.319  0.00  0.00    +0.011 C 
ENDBRANCH  16  18
ENDBRANCH   3  16
TORSDOF 5
