REMARK  Name = ZINC67122368
REMARK  8 active torsions:
REMARK  status: ('A' for Active; 'I' for Inactive)
REMARK    1  A    between atoms: C_1  and  C_2
REMARK    2  A    between atoms: N_5  and  C_8
REMARK    3  A    between atoms: C_8  and  C_9
REMARK    4  A    between atoms: C_9  and  C_11
REMARK    5  A    between atoms: C_9  and  O_25
REMARK    6  A    between atoms: C_11  and  N_12
REMARK    7  A    between atoms: N_12  and  C_13
REMARK    8  A    between atoms: C_13  and  C_14
REMARK                            x       y       z     vdW  Elec       q    Type
REMARK                         _______ _______ _______ _____ _____    ______ ____
ROOT
ATOM      1  N   UNL     1       0.631  -6.350   4.011  0.00  0.00    +0.383 N 
ATOM      2  H   UNL     1       1.563  -5.972   4.094  0.00  0.00    -0.085 HD
ATOM      3  H   UNL     1       0.063  -6.015   4.774  0.00  0.00    -0.085 HD
ENDROOT
BRANCH   1   4
ATOM      4  C   UNL     1       0.041  -5.922   2.735  0.00  0.00    -0.052 C 
BRANCH   4   5
ATOM      5  C   UNL     1      -0.023  -4.394   2.690  0.00  0.00    +0.081 C 
BRANCH   5   6
ATOM      6  O   UNL     1       1.303  -3.862   2.691  0.00  0.00    -0.395 OA
ATOM      7  H   UNL     1       1.841  -4.147   1.940  0.00  0.00    +0.210 HD
ENDBRANCH   5   6
BRANCH   5   8
ATOM      8  C   UNL     1      -0.750  -3.952   1.419  0.00  0.00    -0.049 C 
BRANCH   8  13
ATOM      9  C   UNL     1      -2.158   1.567   1.124  0.00  0.00    +0.007 C 
ATOM     10  C   UNL     1      -2.222   0.038   1.151  0.00  0.00    -0.018 C 
ATOM     11  C   UNL     1      -1.674  -0.474   2.486  0.00  0.00    -0.016 C 
ATOM     12  C   UNL     1      -1.667  -2.005   2.474  0.00  0.00    -0.078 C 
ATOM     13  N   UNL     1      -0.817  -2.485   1.378  0.00  0.00    +0.381 N 
ATOM     14  C   UNL     1      -1.376  -2.057   0.090  0.00  0.00    -0.078 C 
ATOM     15  C   UNL     1      -1.372  -0.529   0.010  0.00  0.00    -0.016 C 
ATOM     16  H   UNL     1       0.112  -2.105   1.483  0.00  0.00    -0.082 HD
ENDBRANCH   8  13
ENDBRANCH   5   8
ENDBRANCH   4   5
ENDBRANCH   1   4
BRANCH   1  17
ATOM     17  C   UNL     1       0.693  -7.817   4.054  0.00  0.00    -0.048 C 
BRANCH  17  18
ATOM     18  C   UNL     1       1.298  -8.256   5.362  0.00  0.00    -0.049 C 
ATOM     19  C   UNL     1       0.509  -8.580   6.382  0.00  0.00    +0.012 C 
ATOM     20  C   UNL     1       1.140  -8.971   7.660  0.00  0.00    +0.018 A 
ATOM     21  C   UNL     1       0.410  -9.589   8.670  0.00  0.00    +0.026 A 
ATOM     22  C   UNL     1       1.043  -9.950   9.845  0.00  0.00    +0.019 A 
ATOM     23  C   UNL     1       2.394  -9.700  10.016  0.00  0.00    +0.019 A 
ATOM     24  C   UNL     1       3.125  -9.080   9.019  0.00  0.00    +0.047 A 
ATOM     25  C   UNL     1       2.504  -8.707   7.841  0.00  0.00    +0.128 A 
ATOM     26  O   UNL     1       3.185  -8.064   6.858  0.00  0.00    -0.487 OA
ATOM     27  C   UNL     1       2.795  -8.332   5.508  0.00  0.00    +0.258 C 
ATOM     28 BR   UNL     1       0.059 -10.790  11.224  0.00  0.00    -0.050 Br
ENDBRANCH  17  18
ENDBRANCH   1  17
TORSDOF 7
