REMARK  Name = ZINC63993707
REMARK  14 active torsions:
REMARK  status: ('A' for Active; 'I' for Inactive)
REMARK    1  A    between atoms: C_1  and  C_2
REMARK    2  A    between atoms: C_2  and  C_3
REMARK    3  A    between atoms: C_3  and  N_4
REMARK    4  A    between atoms: N_4  and  C_5
REMARK    5  A    between atoms: N_11  and  C_26
REMARK    6  A    between atoms: C_12  and  C_22
REMARK    7  A    between atoms: C_14  and  N_16
REMARK    8  A    between atoms: C_17  and  C_19
REMARK    9  A    between atoms: C_19  and  O_20
REMARK   10  A    between atoms: O_20  and  C_21
REMARK   11  A    between atoms: C_22  and  O_24
REMARK   12  A    between atoms: O_24  and  C_25
REMARK   13  A    between atoms: C_26  and  C_27
REMARK   14  A    between atoms: C_27  and  C_28
REMARK                            x       y       z     vdW  Elec       q    Type
REMARK                         _______ _______ _______ _____ _____    ______ ____
ROOT
ATOM      1  C   UNL     1      -2.910  -2.358   0.441  0.00  0.00    +0.044 A 
ATOM      2  C   UNL     1      -2.765  -3.734   0.274  0.00  0.00    +0.033 A 
ATOM      3  C   UNL     1      -3.904  -4.506   0.150  0.00  0.00    +0.015 A 
ATOM      4  C   UNL     1      -5.156  -3.910   0.194  0.00  0.00    +0.105 A 
ATOM      5  N   UNL     1      -5.250  -2.591   0.356  0.00  0.00    -0.348 N 
ATOM      6  C   UNL     1      -4.188  -1.822   0.483  0.00  0.00    +0.107 A 
ATOM      7  N   UNL     1      -6.175  -4.850   0.053  0.00  0.00    -0.301 N 
ATOM      8  C   UNL     1      -5.607  -6.192  -0.100  0.00  0.00    +0.208 C 
ATOM      9  C   UNL     1      -4.083  -5.995  -0.039  0.00  0.00    +0.138 C 
ATOM     10  H   UNL     1      -6.130  -2.183   0.385  0.00  0.00    +0.167 HD
ENDROOT
BRANCH   9  11
ATOM     11  N   UNL     1      -3.518  -6.727   1.097  0.00  0.00    -0.304 N 
ATOM     12  C   UNL     1      -2.211  -7.056   1.104  0.00  0.00    +0.239 C 
ATOM     13  O   UNL     1      -1.503  -6.745   0.169  0.00  0.00    -0.273 OA
ATOM     14  H   UNL     1      -4.084  -6.975   1.845  0.00  0.00    +0.149 HD
BRANCH  12  15
ATOM     15  C   UNL     1      -1.629  -7.809   2.272  0.00  0.00    +0.255 C 
BRANCH  15  16
ATOM     16  O   UNL     1      -0.237  -8.037   2.046  0.00  0.00    -0.374 OA
ATOM     17  C   UNL     1       0.414  -8.749   3.101  0.00  0.00    +0.194 C 
ENDBRANCH  15  16
ENDBRANCH  12  15
ENDBRANCH   9  11
BRANCH   1  18
ATOM     18  N   UNL     1      -1.786  -1.532   0.571  0.00  0.00    -0.343 N 
ATOM     19  H   UNL     1      -0.896  -1.917   0.541  0.00  0.00    +0.146 HD
BRANCH  18  20
ATOM     20  C   UNL     1      -1.955  -0.088   0.752  0.00  0.00    +0.101 C 
BRANCH  20  22
ATOM     21  C   UNL     1      -0.757   2.083   1.056  0.00  0.00    +0.005 C 
ATOM     22  C   UNL     1      -0.581   0.575   0.867  0.00  0.00    +0.015 C 
ENDBRANCH  20  22
ENDBRANCH  18  20
ENDBRANCH   1  18
BRANCH   8  23
ATOM     23  C   UNL     1      -6.007  -6.781  -1.429  0.00  0.00    +0.330 C 
ATOM     24  O   UNL     1      -6.270  -6.053  -2.357  0.00  0.00    -0.249 OA
BRANCH  23  25
ATOM     25  O   UNL     1      -6.071  -8.113  -1.581  0.00  0.00    -0.467 OA
ATOM     26  C   UNL     1      -6.457  -8.601  -2.867  0.00  0.00    +0.280 C 
ENDBRANCH  23  25
ENDBRANCH   8  23
BRANCH   7  27
ATOM     27  C   UNL     1      -7.607  -4.541   0.057  0.00  0.00    +0.112 C 
BRANCH  27  28
ATOM     28  C   UNL     1      -8.126  -4.551   1.496  0.00  0.00    +0.052 C 
BRANCH  28  29
ATOM     29  C   UNL     1      -9.610  -4.286   1.497  0.00  0.00    -0.040 C 
ATOM     30  C   UNL     1     -10.600  -5.207   1.521  0.00  0.00    -0.001 A 
ATOM     31  C   UNL     1     -10.593  -6.674   1.552  0.00  0.00    +0.010 A 
ATOM     32  C   UNL     1     -11.773  -7.336   1.571  0.00  0.00    +0.001 A 
ATOM     33  C   UNL     1     -12.999  -6.657   1.561  0.00  0.00    +0.002 A 
ATOM     34  C   UNL     1     -13.086  -5.310   1.533  0.00  0.00    +0.026 A 
ATOM     35  C   UNL     1     -11.908  -4.513   1.512  0.00  0.00    +0.043 A 
ATOM     36  N   UNL     1     -11.733  -3.215   1.483  0.00  0.00    -0.380 N 
ATOM     37  C   UNL     1     -10.292  -2.937   1.477  0.00  0.00    +0.144 C 
ATOM     38  H   UNL     1     -12.438  -2.548   1.472  0.00  0.00    +0.160 HD
ENDBRANCH  28  29
ENDBRANCH  27  28
ENDBRANCH   7  27
TORSDOF 11
