REMARK  Name = ZINC19902659
REMARK  6 active torsions:
REMARK  status: ('A' for Active; 'I' for Inactive)
REMARK    1  A    between atoms: C_1  and  C_2
REMARK    2  A    between atoms: C_2  and  C_3
REMARK    3  A    between atoms: C_3  and  C_4
REMARK    4  A    between atoms: C_4  and  C_6
REMARK    5  A    between atoms: C_4  and  N_7
REMARK    6  A    between atoms: N_7  and  C_8
REMARK                            x       y       z     vdW  Elec       q    Type
REMARK                         _______ _______ _______ _____ _____    ______ ____
ROOT
ATOM      1  C   UNL     1       0.059   1.017   0.094  0.00  0.00    +0.049 C 
ATOM      2  C   UNL     1       1.060   0.027   0.642  0.00  0.00    -0.030 A 
ATOM      3  C   UNL     1       0.925  -1.156   1.332  0.00  0.00    +0.019 A 
ATOM      4  C   UNL     1       2.051  -1.866   1.713  0.00  0.00    +0.018 A 
ATOM      5  C   UNL     1       3.309  -1.381   1.399  0.00  0.00    +0.017 A 
ATOM      6  C   UNL     1       3.446  -0.195   0.708  0.00  0.00    +0.024 A 
ATOM      7  C   UNL     1       2.317   0.524   0.321  0.00  0.00    +0.035 A 
ATOM      8  N   UNL     1       2.196   1.728  -0.375  0.00  0.00    -0.286 N 
ATOM      9  C   UNL     1       0.914   2.088  -0.550  0.00  0.00    +0.208 C 
ATOM     10  O   UNL     1       0.516   3.083  -1.117  0.00  0.00    -0.277 OA
ATOM     11 BR   UNL     1       1.872  -3.492   2.662  0.00  0.00    -0.050 Br
ATOM     12  H   UNL     1       3.098   2.263  -0.709  0.00  0.00    +0.155 HD
ENDROOT
BRANCH   1  13
ATOM     13  N   UNL     1      -0.751   1.585   1.180  0.00  0.00    +0.391 N 
ATOM     14  H   UNL     1      -1.071   2.597   0.889  0.00  0.00    -0.084 HD
ATOM     15  H   UNL     1      -0.133   1.643   2.088  0.00  0.00    -0.084 HD
BRANCH  13  16
ATOM     16  C   UNL     1      -1.934   0.755   1.444  0.00  0.00    -0.074 C 
ATOM     17  C   UNL     1      -3.064   1.160   0.495  0.00  0.00    -0.014 C 
BRANCH  16  18
ATOM     18  C   UNL     1      -2.386   0.958   2.892  0.00  0.00    -0.016 C 
BRANCH  18  20
ATOM     19  C   UNL     1      -1.757   0.640   5.289  0.00  0.00    +0.004 C 
ATOM     20  C   UNL     1      -1.305   0.437   3.841  0.00  0.00    -0.005 C 
ENDBRANCH  18  20
ENDBRANCH  16  18
ENDBRANCH  13  16
ENDBRANCH   1  13
TORSDOF 4
