REMARK  Name = ZINC05172783
REMARK  3 active torsions:
REMARK  status: ('A' for Active; 'I' for Inactive)
REMARK    1  A    between atoms: C_4  and  C_7
REMARK    2  A    between atoms: C_8  and  C_9
REMARK    3  A    between atoms: C_14  and  C_16
REMARK                            x       y       z     vdW  Elec       q    Type
REMARK                         _______ _______ _______ _____ _____    ______ ____
ROOT
ATOM      1  C   UNL     1       2.473  -4.210  -0.043  0.00  0.00    +0.035 C 
ATOM      2  C   UNL     1       3.688  -4.879  -0.059  0.00  0.00    +0.152 C 
ATOM      3  C   UNL     1       3.903  -6.335  -0.062  0.00  0.00    +0.364 C 
ATOM      4  O   UNL     1       3.054  -7.207  -0.052  0.00  0.00    -0.243 OA
ATOM      5  O   UNL     1       5.244  -6.497  -0.081  0.00  0.00    -0.402 OA
ATOM      6  C   UNL     1       5.824  -5.281  -0.081  0.00  0.00    +0.232 C 
ATOM      7  N   UNL     1       4.933  -4.327  -0.068  0.00  0.00    -0.205 NA
ENDROOT
BRANCH   6   8
ATOM      8  C   UNL     1       7.283  -5.056  -0.094  0.00  0.00    +0.037 A 
ATOM      9  C   UNL     1       7.792  -3.755  -0.098  0.00  0.00    +0.014 A 
ATOM     10  C   UNL     1       9.156  -3.552  -0.104  0.00  0.00    +0.015 A 
ATOM     11  C   UNL     1      10.020  -4.634  -0.118  0.00  0.00    +0.013 A 
ATOM     12  C   UNL     1       9.522  -5.926  -0.119  0.00  0.00    +0.015 A 
ATOM     13  C   UNL     1       8.160  -6.143  -0.107  0.00  0.00    +0.014 A 
ATOM     14  I   UNL     1      12.090  -4.314  -0.137  0.00  0.00    -0.044 I 
ENDBRANCH   6   8
BRANCH   1  16
ATOM     15  C   UNL     1       1.256  -2.152  -0.021  0.00  0.00    +0.008 C 
ATOM     16  C   UNL     1       2.445  -2.807  -0.036  0.00  0.00    +0.003 C 
BRANCH  15  20
ATOM     17  C   UNL     1       1.171   2.087   0.002  0.00  0.00    +0.000 A 
ATOM     18  C   UNL     1      -0.017   1.374   0.010  0.00  0.00    +0.001 A 
ATOM     19  C   UNL     1       0.002  -0.004   0.002  0.00  0.00    +0.008 A 
ATOM     20  C   UNL     1       1.226  -0.683  -0.013  0.00  0.00    -0.025 A 
ATOM     21  C   UNL     1       2.422   0.045  -0.021  0.00  0.00    +0.008 A 
ATOM     22  C   UNL     1       2.385   1.423  -0.013  0.00  0.00    +0.001 A 
ENDBRANCH  15  20
ENDBRANCH   1  16
TORSDOF 3
