REMARK  Name = ZINC12531700
REMARK  11 active torsions:
REMARK  status: ('A' for Active; 'I' for Inactive)
REMARK    1  A    between atoms: C_1  and  C_2
REMARK    2  A    between atoms: C_2  and  O_32
REMARK    3  A    between atoms: C_5  and  C_21
REMARK    4  A    between atoms: C_9  and  C_19
REMARK    5  A    between atoms: C_9  and  C_20
REMARK    6  A    between atoms: C_11  and  N_13
REMARK    7  A    between atoms: C_14  and  C_16
REMARK    8  A    between atoms: C_21  and  C_22
REMARK    9  A    between atoms: C_22  and  C_23
REMARK   10  A    between atoms: N_25  and  C_26
REMARK   11  A    between atoms: C_26  and  C_27
REMARK                            x       y       z     vdW  Elec       q    Type
REMARK                         _______ _______ _______ _____ _____    ______ ____
ROOT
ATOM      1  C   UNL     1       0.247   1.705  -0.138  0.00  0.00    +0.041 C 
ATOM      2  C   UNL     1       0.257   0.178  -0.227  0.00  0.00    +0.064 C 
ATOM      3  C   UNL     1      -1.182  -0.348  -0.198  0.00  0.00    +0.035 C 
ATOM      4  C   UNL     1      -1.143  -1.867  -0.365  0.00  0.00    +0.012 C 
ATOM      5  C   UNL     1      -0.338  -2.521   0.734  0.00  0.00    -0.007 C 
ATOM      6  C   UNL     1       1.075  -1.927   0.882  0.00  0.00    +0.005 C 
ATOM      7  C   UNL     1       1.012  -0.400   0.968  0.00  0.00    +0.039 C 
ATOM      8  C   UNL     1       1.482  -2.435   2.297  0.00  0.00    -0.030 C 
ATOM      9  C   UNL     1       0.184  -2.308   3.124  0.00  0.00    +0.029 C 
ATOM     10  C   UNL     1      -0.983  -2.357   2.116  0.00  0.00    +0.080 C 
ATOM     11  C   UNL     1       1.937  -3.895   2.233  0.00  0.00    +0.011 C 
ATOM     12  C   UNL     1       2.584  -1.553   2.888  0.00  0.00    +0.011 C 
ENDROOT
BRANCH  10  13
ATOM     13  N   UNL     1      -1.852  -3.499   2.406  0.00  0.00    -0.312 N 
ATOM     14  C   UNL     1      -2.954  -3.332   3.165  0.00  0.00    +0.216 C 
ATOM     15  O   UNL     1      -3.225  -2.236   3.607  0.00  0.00    -0.276 OA
ATOM     16  H   UNL     1      -1.636  -4.376   2.053  0.00  0.00    +0.149 HD
BRANCH  14  17
ATOM     17  C   UNL     1      -3.849  -4.508   3.463  0.00  0.00    +0.075 C 
ATOM     18  C   UNL     1      -5.242  -4.513   2.830  0.00  0.00    +0.013 C 
ATOM     19  C   UNL     1      -5.084  -4.253   4.330  0.00  0.00    +0.013 C 
ENDBRANCH  14  17
ENDBRANCH  10  13
BRANCH   2  20
ATOM     20  O   UNL     1       0.895  -0.228  -1.439  0.00  0.00    -0.389 OA
ATOM     21  H   UNL     1       0.464   0.100  -2.240  0.00  0.00    +0.210 HD
ENDBRANCH   2  20
BRANCH   5  22
ATOM     22  C   UNL     1      -0.196  -4.013   0.427  0.00  0.00    +0.018 C 
BRANCH  22  23
ATOM     23  C   UNL     1       0.653  -4.196  -0.834  0.00  0.00    +0.096 C 
BRANCH  23  24
ATOM     24  C   UNL     1       0.908  -5.664  -1.058  0.00  0.00    +0.213 C 
ATOM     25  O   UNL     1       0.457  -6.483  -0.287  0.00  0.00    -0.276 OA
ATOM     26  N   UNL     1       1.639  -6.066  -2.117  0.00  0.00    -0.308 N 
ATOM     27  H   UNL     1       2.000  -5.411  -2.734  0.00  0.00    +0.149 HD
BRANCH  26  28
ATOM     28  C   UNL     1       1.887  -7.493  -2.336  0.00  0.00    +0.178 C 
BRANCH  28  29
ATOM     29  C   UNL     1       2.723  -7.673  -3.577  0.00  0.00    +0.122 A 
ATOM     30  C   UNL     1       4.067  -7.706  -3.622  0.00  0.00    +0.046 A 
ATOM     31  C   UNL     1       4.426  -7.892  -4.977  0.00  0.00    +0.041 A 
ATOM     32  C   UNL     1       3.280  -7.961  -5.678  0.00  0.00    +0.195 A 
ATOM     33  O   UNL     1       2.252  -7.833  -4.824  0.00  0.00    -0.466 OA
ENDBRANCH  28  29
ENDBRANCH  26  28
ENDBRANCH  23  24
ENDBRANCH  22  23
ENDBRANCH   5  22
TORSDOF 8
