REMARK  Name = ZINC03001058
REMARK  6 active torsions:
REMARK  status: ('A' for Active; 'I' for Inactive)
REMARK    1  A    between atoms: C_1  and  O_2
REMARK    2  A    between atoms: O_2  and  C_3
REMARK    3  A    between atoms: C_7  and  C_9
REMARK    4  A    between atoms: C_21  and  S_24
REMARK    5  A    between atoms: S_24  and  C_25
REMARK    6  A    between atoms: C_25  and  C_26
REMARK                            x       y       z     vdW  Elec       q    Type
REMARK                         _______ _______ _______ _____ _____    ______ ____
ROOT
ATOM      1  C   UNL     1      -0.073  -0.312   6.997  0.00  0.00    +0.295 C 
ATOM      2  N   UNL     1       0.569  -1.591   6.709  0.00  0.00    -0.305 N 
ATOM      3  C   UNL     1       1.965  -1.646   6.658  0.00  0.00    +0.039 A 
ATOM      4  C   UNL     1       2.696  -2.319   7.620  0.00  0.00    +0.024 A 
ATOM      5  C   UNL     1       4.076  -2.341   7.546  0.00  0.00    +0.002 A 
ATOM      6  C   UNL     1       4.733  -1.692   6.514  0.00  0.00    +0.001 A 
ATOM      7  C   UNL     1       4.018  -1.020   5.543  0.00  0.00    +0.012 A 
ATOM      8  C   UNL     1       2.630  -0.995   5.601  0.00  0.00    +0.028 A 
ATOM      9  C   UNL     1       1.824  -0.317   4.565  0.00  0.00    +0.156 A 
ATOM     10  C   UNL     1       0.773   0.545   4.951  0.00  0.00    +0.248 A 
ATOM     11  N   UNL     1       0.056   1.135   4.010  0.00  0.00    -0.184 NA
ATOM     12  C   UNL     1       0.345   0.904   2.732  0.00  0.00    +0.213 A 
ATOM     13  N   UNL     1       1.336   0.091   2.390  0.00  0.00    -0.122 NA
ATOM     14  N   UNL     1       2.062  -0.501   3.275  0.00  0.00    -0.141 NA
ATOM     15  O   UNL     1       0.521   0.755   6.265  0.00  0.00    -0.449 OA
ATOM     16  H   UNL     1       0.037  -2.387   6.556  0.00  0.00    +0.150 HD
ENDROOT
BRANCH   1  21
ATOM     17  C   UNL     1       1.167   1.065  10.290  0.00  0.00    +0.121 A 
ATOM     18  C   UNL     1       0.265   0.502  11.181  0.00  0.00    +0.047 A 
ATOM     19  C   UNL     1      -0.742  -0.322  10.715  0.00  0.00    +0.019 A 
ATOM     20  C   UNL     1      -0.851  -0.584   9.361  0.00  0.00    +0.026 A 
ATOM     21  C   UNL     1       0.048  -0.024   8.471  0.00  0.00    +0.029 A 
ATOM     22  C   UNL     1       1.060   0.796   8.933  0.00  0.00    +0.055 A 
ATOM     23 BR   UNL     1      -2.230  -1.712   8.726  0.00  0.00    -0.050 Br
BRANCH  17  25
ATOM     24  C   UNL     1       2.212   2.104  12.156  0.00  0.00    +0.277 C 
ATOM     25  O   UNL     1       2.158   1.876  10.746  0.00  0.00    -0.495 OA
ENDBRANCH  17  25
ENDBRANCH   1  21
BRANCH  12  26
ATOM     26  S   UNL     1      -0.608   1.687   1.473  0.00  0.00    -0.080 S 
BRANCH  26  27
ATOM     27  C   UNL     1       0.212   1.024   0.002  0.00  0.00    +0.104 C 
BRANCH  27  28
ATOM     28  C   UNL     1      -0.454   1.573  -1.234  0.00  0.00    -0.023 C 
ATOM     29  C   UNL     1       0.211   2.360  -2.042  0.00  0.00    +0.005 C 
ENDBRANCH  27  28
ENDBRANCH  26  27
ENDBRANCH  12  26
TORSDOF 5
