REMARK  Name = ZINC05724204
REMARK  7 active torsions:
REMARK  status: ('A' for Active; 'I' for Inactive)
REMARK    1  A    between atoms: C_9  and  C_11
REMARK    2  A    between atoms: C_11  and  N_12
REMARK    3  A    between atoms: N_12  and  C_13
REMARK    4  A    between atoms: C_16  and  C_19
REMARK    5  A    between atoms: N_21  and  C_30
REMARK    6  A    between atoms: C_22  and  C_25
REMARK    7  A    between atoms: C_33  and  N_36
REMARK                            x       y       z     vdW  Elec       q    Type
REMARK                         _______ _______ _______ _____ _____    ______ ____
ROOT
ATOM      1  C   UNL     1      -2.890   3.079  -1.597  0.00  0.00    +0.027 A 
ATOM      2  C   UNL     1      -3.582   3.651  -0.536  0.00  0.00    +0.023 A 
ATOM      3  C   UNL     1      -4.714   4.400  -0.773  0.00  0.00    +0.011 A 
ATOM      4  C   UNL     1      -5.173   4.574  -2.082  0.00  0.00    -0.002 A 
ATOM      5  C   UNL     1      -4.477   3.992  -3.146  0.00  0.00    +0.011 A 
ATOM      6  C   UNL     1      -3.343   3.250  -2.901  0.00  0.00    +0.023 A 
ENDROOT
BRANCH   4   7
ATOM      7  C   UNL     1      -6.387   5.369  -2.340  0.00  0.00    +0.069 C 
ATOM      8  N   UNL     1      -6.897   5.592  -3.502  0.00  0.00    -0.183 NA
ATOM      9  N   UNL     1      -8.050   6.374  -3.477  0.00  0.00    -0.213 N 
ATOM     10  C   UNL     1      -8.356   6.727  -2.082  0.00  0.00    +0.170 C 
ATOM     11  C   UNL     1      -7.230   6.043  -1.281  0.00  0.00    +0.090 C 
BRANCH   9  12
ATOM     12  C   UNL     1      -8.794   6.759  -4.593  0.00  0.00    +0.052 A 
ATOM     13  C   UNL     1      -9.934   7.539  -4.435  0.00  0.00    +0.027 A 
ATOM     14  C   UNL     1     -10.665   7.921  -5.543  0.00  0.00    +0.034 A 
ATOM     15  C   UNL     1     -10.270   7.522  -6.806  0.00  0.00    +0.126 A 
ATOM     16  C   UNL     1      -9.139   6.742  -6.967  0.00  0.00    +0.034 A 
ATOM     17  C   UNL     1      -8.400   6.359  -5.865  0.00  0.00    +0.027 A 
BRANCH  15  18
ATOM     18  N   UNL     1     -11.062   7.931  -7.994  0.00  0.00    +0.056 N 
ATOM     19  O   UNL     1     -10.715   7.580  -9.107  0.00  0.00    -0.126 OA
ATOM     20  O   UNL     1     -12.058   8.618  -7.854  0.00  0.00    -0.126 OA
ENDBRANCH  15  18
ENDBRANCH   9  12
BRANCH  10  21
ATOM     21  C   UNL     1      -8.319   8.221  -1.893  0.00  0.00    +0.127 A 
ATOM     22  C   UNL     1      -9.158   8.938  -1.123  0.00  0.00    +0.046 A 
ATOM     23  C   UNL     1      -8.764  10.291  -1.238  0.00  0.00    +0.041 A 
ATOM     24  C   UNL     1      -7.708  10.320  -2.070  0.00  0.00    +0.195 A 
ATOM     25  O   UNL     1      -7.439   9.063  -2.459  0.00  0.00    -0.466 OA
ENDBRANCH  10  21
ENDBRANCH   4   7
BRANCH   1  26
ATOM     26  N   UNL     1      -1.741   2.325  -1.353  0.00  0.00    -0.337 N 
ATOM     27  H   UNL     1      -1.260   1.921  -2.092  0.00  0.00    +0.147 HD
BRANCH  26  28
ATOM     28  C   UNL     1      -1.262   2.143   0.020  0.00  0.00    +0.175 C 
BRANCH  28  37
ATOM     29  C   UNL     1       4.044  -0.710  -0.040  0.00  0.00    +0.002 A 
ATOM     30  C   UNL     1       3.232  -1.835  -0.039  0.00  0.00    +0.002 A 
ATOM     31  C   UNL     1       1.872  -1.712  -0.025  0.00  0.00    +0.030 A 
ATOM     32  C   UNL     1       1.287  -0.443  -0.013  0.00  0.00    +0.089 A 
ATOM     33  C   UNL     1       2.109   0.697  -0.014  0.00  0.00    +0.066 A 
ATOM     34  C   UNL     1       3.490   0.552  -0.028  0.00  0.00    +0.028 A 
ATOM     35  N   UNL     1       1.255   1.782  -0.000  0.00  0.00    -0.341 N 
ATOM     36  H   UNL     1       1.522   2.745   0.002  0.00  0.00    +0.167 HD
ATOM     37  C   UNL     1      -0.016   1.297   0.009  0.00  0.00    +0.125 A 
ATOM     38  N   UNL     1       0.002  -0.004   0.002  0.00  0.00    -0.231 NA
ENDBRANCH  28  37
ENDBRANCH  26  28
ENDBRANCH   1  26
TORSDOF 7
