REMARK  Name = ZINC21056796
REMARK  20 active torsions:
REMARK  status: ('A' for Active; 'I' for Inactive)
REMARK    1  A    between atoms: C_1  and  C_2
REMARK    2  A    between atoms: C_2  and  O_3
REMARK    3  A    between atoms: O_3  and  C_4
REMARK    4  A    between atoms: C_6  and  C_16
REMARK    5  A    between atoms: C_8  and  O_13
REMARK    6  A    between atoms: C_9  and  O_10
REMARK    7  A    between atoms: O_10  and  C_11
REMARK    8  A    between atoms: C_11  and  C_12
REMARK    9  A    between atoms: O_13  and  C_14
REMARK   10  A    between atoms: C_14  and  C_15
REMARK   11  A    between atoms: N_18  and  C_19
REMARK   12  A    between atoms: N_18  and  C_23
REMARK   13  A    between atoms: C_19  and  C_20
REMARK   14  A    between atoms: C_20  and  C_21
REMARK   15  A    between atoms: C_20  and  C_22
REMARK   16  A    between atoms: C_24  and  N_36
REMARK   17  A    between atoms: N_25  and  C_32
REMARK   18  A    between atoms: C_32  and  C_33
REMARK   19  A    between atoms: C_33  and  C_34
REMARK   20  A    between atoms: C_33  and  C_35
REMARK                            x       y       z     vdW  Elec       q    Type
REMARK                         _______ _______ _______ _____ _____    ______ ____
ROOT
ATOM      1  C   UNL     1      -0.328  -2.242   0.355  0.00  0.00    +0.251 C 
ATOM      2  O   UNL     1      -0.483  -1.037   0.413  0.00  0.00    -0.270 OA
ATOM      3  N   UNL     1       0.900  -2.754   0.143  0.00  0.00    -0.260 N 
ENDROOT
BRANCH   3   4
ATOM      4  C   UNL     1       1.097  -4.150   0.176  0.00  0.00    +0.140 A 
ATOM      5  C   UNL     1       1.863  -4.728   1.168  0.00  0.00    +0.127 A 
ATOM      6  N   UNL     1       2.033  -6.093   1.176  0.00  0.00    -0.280 N 
ATOM      7  C   UNL     1       1.469  -6.855   0.221  0.00  0.00    +0.331 A 
ATOM      8  O   UNL     1       1.635  -8.059   0.243  0.00  0.00    -0.246 OA
ATOM      9  N   UNL     1       0.724  -6.309  -0.756  0.00  0.00    -0.273 N 
ATOM     10  H   UNL     1       0.272  -6.950  -1.527  0.00  0.00    +0.173 HD
ATOM     11  C   UNL     1       0.522  -4.978  -0.807  0.00  0.00    +0.277 A 
ATOM     12  O   UNL     1      -0.155  -4.493  -1.698  0.00  0.00    -0.266 OA
BRANCH   5  13
ATOM     13  N   UNL     1       2.444  -3.950   2.140  0.00  0.00    -0.343 N 
ATOM     14  H   UNL     1       3.053  -4.417   2.928  0.00  0.00    +0.144 HD
ATOM     15  H   UNL     1       2.301  -2.859   2.130  0.00  0.00    +0.144 HD
ENDBRANCH   5  13
BRANCH   6  16
ATOM     16  C   UNL     1       2.839  -6.721   2.226  0.00  0.00    +0.131 C 
BRANCH  16  17
ATOM     17  C   UNL     1       4.299  -6.790   1.776  0.00  0.00    +0.003 C 
ATOM     18  C   UNL     1       4.856  -5.373   1.631  0.00  0.00    +0.009 C 
ATOM     19  C   UNL     1       5.118  -7.556   2.817  0.00  0.00    +0.009 C 
ENDBRANCH  16  17
ENDBRANCH   6  16
ENDBRANCH   3   4
BRANCH   1  22
ATOM     20  C   UNL     1      -3.808  -3.640   0.128  0.00  0.00    +0.166 A 
ATOM     21  C   UNL     1      -2.726  -2.793  -0.024  0.00  0.00    +0.062 A 
ATOM     22  C   UNL     1      -1.486  -3.143   0.516  0.00  0.00    +0.044 A 
ATOM     23  C   UNL     1      -1.343  -4.348   1.210  0.00  0.00    +0.062 A 
ATOM     24  C   UNL     1      -2.429  -5.190   1.359  0.00  0.00    +0.166 A 
ATOM     25  C   UNL     1      -3.664  -4.840   0.819  0.00  0.00    +0.204 A 
BRANCH  20  26
ATOM     26  O   UNL     1      -5.017  -3.297  -0.394  0.00  0.00    -0.488 OA
BRANCH  26  28
ATOM     27  C   UNL     1      -6.521  -1.838  -1.597  0.00  0.00    +0.048 C 
ATOM     28  C   UNL     1      -5.095  -2.049  -1.085  0.00  0.00    +0.226 C 
ENDBRANCH  26  28
ENDBRANCH  20  26
BRANCH  25  29
ATOM     29  O   UNL     1      -4.729  -5.670   0.968  0.00  0.00    -0.485 OA
BRANCH  29  30
ATOM     30  C   UNL     1      -4.931  -6.654  -0.048  0.00  0.00    +0.226 C 
ATOM     31  C   UNL     1      -6.169  -7.488   0.289  0.00  0.00    +0.048 C 
ENDBRANCH  29  30
ENDBRANCH  25  29
BRANCH  24  32
ATOM     32  O   UNL     1      -2.291  -6.363   2.034  0.00  0.00    -0.488 OA
BRANCH  32  33
ATOM     33  C   UNL     1      -1.020  -6.621   2.632  0.00  0.00    +0.226 C 
ATOM     34  C   UNL     1      -1.027  -8.014   3.265  0.00  0.00    +0.048 C 
ENDBRANCH  32  33
ENDBRANCH  24  32
ENDBRANCH   1  22
BRANCH   3  35
ATOM     35  C   UNL     1       2.031  -1.861  -0.120  0.00  0.00    +0.117 C 
BRANCH  35  36
ATOM     36  C   UNL     1       2.245  -1.740  -1.631  0.00  0.00    +0.001 C 
ATOM     37  C   UNL     1       1.042  -1.035  -2.261  0.00  0.00    +0.009 C 
ATOM     38  C   UNL     1       3.513  -0.929  -1.903  0.00  0.00    +0.009 C 
ENDBRANCH  35  36
ENDBRANCH   3  35
TORSDOF 13
