REMARK  Name = ZINC62824513
REMARK  8 active torsions:
REMARK  status: ('A' for Active; 'I' for Inactive)
REMARK    1  A    between atoms: C_1  and  C_2
REMARK    2  A    between atoms: C_2  and  C_3
REMARK    3  A    between atoms: C_3  and  C_4
REMARK    4  A    between atoms: C_4  and  C_5
REMARK    5  A    between atoms: C_5  and  C_7
REMARK    6  A    between atoms: C_5  and  N_20
REMARK    7  A    between atoms: N_9  and  C_10
REMARK    8  A    between atoms: C_15  and  C_16
REMARK                            x       y       z     vdW  Elec       q    Type
REMARK                         _______ _______ _______ _____ _____    ______ ____
ROOT
ATOM      1  C   UNL     1      -2.813  -4.092   0.138  0.00  0.00    +0.203 C 
ATOM      2  O   UNL     1      -2.980  -4.776  -0.850  0.00  0.00    -0.277 OA
ATOM      3  N   UNL     1      -2.627  -4.677   1.338  0.00  0.00    -0.286 N 
ATOM      4  H   UNL     1      -2.429  -4.133   2.117  0.00  0.00    +0.155 HD
ENDROOT
BRANCH   3   5
ATOM      5  C   UNL     1      -2.719  -6.060   1.460  0.00  0.00    +0.048 A 
ATOM      6  C   UNL     1      -2.281  -6.882   0.430  0.00  0.00    +0.025 A 
ATOM      7  C   UNL     1      -2.373  -8.254   0.553  0.00  0.00    +0.016 A 
ATOM      8  C   UNL     1      -2.902  -8.822   1.702  0.00  0.00    +0.014 A 
ATOM      9  C   UNL     1      -3.342  -8.024   2.734  0.00  0.00    +0.031 A 
ATOM     10  C   UNL     1      -3.250  -6.632   2.628  0.00  0.00    +0.085 A 
ATOM     11  I   UNL     1      -3.033 -10.907   1.868  0.00  0.00    -0.044 I 
BRANCH  10  12
ATOM     12  C   UNL     1      -3.712  -5.773   3.729  0.00  0.00    +0.388 C 
ATOM     13  O   UNL     1      -4.083  -6.274   4.782  0.00  0.00    -0.241 OA
ATOM     14  O   UNL     1      -3.726  -4.557   3.592  0.00  0.00    -0.241 OA
ENDBRANCH  10  12
ENDBRANCH   3   5
BRANCH   1  15
ATOM     15  C   UNL     1      -2.814  -2.590   0.024  0.00  0.00    +0.013 C 
BRANCH  15  16
ATOM     16  N   UNL     1      -3.489  -2.193  -1.219  0.00  0.00    +0.386 N 
ATOM     17  H   UNL     1      -4.440  -2.530  -1.208  0.00  0.00    -0.089 HD
ATOM     18  H   UNL     1      -3.489  -1.187  -1.296  0.00  0.00    -0.089 HD
ATOM     19  H   UNL     1      -3.001  -2.590  -2.008  0.00  0.00    -0.089 HD
ENDBRANCH  15  16
BRANCH  15  20
ATOM     20  C   UNL     1      -1.371  -2.079   0.006  0.00  0.00    -0.007 C 
BRANCH  20  21
ATOM     21  C   UNL     1      -1.372  -0.549   0.016  0.00  0.00    -0.001 C 
BRANCH  21  23
ATOM     22  C   UNL     1       0.070   1.492   0.009  0.00  0.00    +0.004 C 
ATOM     23  C   UNL     1       0.070  -0.038  -0.001  0.00  0.00    -0.003 C 
ENDBRANCH  21  23
ENDBRANCH  20  21
ENDBRANCH  15  20
ENDBRANCH   1  15
TORSDOF 7
