REMARK  Name = ZINC63314344
REMARK  12 active torsions:
REMARK  status: ('A' for Active; 'I' for Inactive)
REMARK    1  A    between atoms: C_1  and  C_2
REMARK    2  A    between atoms: C_2  and  O_3
REMARK    3  A    between atoms: O_3  and  C_4
REMARK    4  A    between atoms: C_9  and  S_14
REMARK    5  A    between atoms: S_14  and  C_15
REMARK    6  A    between atoms: C_15  and  C_16
REMARK    7  A    between atoms: C_17  and  C_32
REMARK    8  A    between atoms: C_18  and  C_24
REMARK    9  A    between atoms: C_26  and  C_31
REMARK   10  A    between atoms: C_29  and  C_30
REMARK   11  A    between atoms: C_32  and  O_34
REMARK   12  A    between atoms: O_34  and  C_35
REMARK                            x       y       z     vdW  Elec       q    Type
REMARK                         _______ _______ _______ _____ _____    ______ ____
ROOT
ATOM      1  C   UNL     1      -1.536  -6.363   5.468  0.00  0.00    +0.034 C 
ATOM      2  C   UNL     1      -1.554  -5.859   6.721  0.00  0.00    +0.079 C 
ATOM      3  C   UNL     1      -2.413  -6.563   7.752  0.00  0.00    +0.144 C 
ATOM      4  N   UNL     1      -3.163  -7.746   7.299  0.00  0.00    -0.288 N 
ATOM      5  C   UNL     1      -3.042  -8.129   6.013  0.00  0.00    +0.304 C 
ATOM      6  O   UNL     1      -3.657  -9.105   5.629  0.00  0.00    -0.252 OA
ATOM      7  N   UNL     1      -2.272  -7.465   5.141  0.00  0.00    -0.272 N 
ATOM      8  H   UNL     1      -3.730  -8.239   7.913  0.00  0.00    +0.151 HD
ATOM      9  H   UNL     1      -2.231  -7.789   4.228  0.00  0.00    +0.156 HD
ENDROOT
BRANCH   3  10
ATOM     10  C   UNL     1      -1.520  -6.986   8.890  0.00  0.00    -0.019 A 
ATOM     11  C   UNL     1      -0.910  -8.227   8.865  0.00  0.00    +0.009 A 
ATOM     12  C   UNL     1      -0.091  -8.616   9.909  0.00  0.00    -0.050 A 
ATOM     13  C   UNL     1       0.118  -7.763  10.977  0.00  0.00    +0.003 A 
ATOM     14  C   UNL     1      -0.491  -6.523  11.001  0.00  0.00    +0.004 A 
ATOM     15  C   UNL     1      -1.306  -6.133   9.956  0.00  0.00    -0.045 A 
ATOM     16  C   UNL     1      -1.966  -4.778   9.980  0.00  0.00    +0.044 C 
ATOM     17  C   UNL     1       0.573  -9.968   9.882  0.00  0.00    +0.044 C 
ENDBRANCH   3  10
BRANCH   2  18
ATOM     18  C   UNL     1      -0.796  -4.713   7.060  0.00  0.00    +0.339 C 
ATOM     19  O   UNL     1       0.277  -4.838   7.620  0.00  0.00    -0.245 OA
BRANCH  18  20
ATOM     20  O   UNL     1      -1.263  -3.483   6.762  0.00  0.00    -0.465 OA
ATOM     21  C   UNL     1      -0.445  -2.371   7.133  0.00  0.00    +0.280 C 
ENDBRANCH  18  20
ENDBRANCH   2  18
BRANCH   1  22
ATOM     22  C   UNL     1      -0.694  -5.693   4.412  0.00  0.00    +0.124 C 
BRANCH  22  23
ATOM     23  S   UNL     1       0.791  -6.687   4.103  0.00  0.00    -0.109 S 
BRANCH  23  29
ATOM     24  C   UNL     1       0.624  -1.475   1.499  0.00  0.00    +0.123 A 
ATOM     25  C   UNL     1      -0.085  -2.219   0.466  0.00  0.00    +0.048 A 
ATOM     26  C   UNL     1      -0.075  -3.565   0.425  0.00  0.00    +0.031 A 
ATOM     27  C   UNL     1       0.667  -4.321   1.444  0.00  0.00    +0.061 A 
ATOM     28  N   UNL     1       0.838  -5.598   1.636  0.00  0.00    -0.355 N 
ATOM     29  C   UNL     1       1.683  -5.757   2.826  0.00  0.00    +0.236 C 
ATOM     30  N   UNL     1       1.984  -4.403   3.305  0.00  0.00    -0.355 N 
ATOM     31  C   UNL     1       1.392  -3.563   2.500  0.00  0.00    +0.064 A 
ATOM     32  C   UNL     1       1.335  -2.100   2.469  0.00  0.00    +0.073 A 
ATOM     33  H   UNL     1       0.473  -6.313   1.092  0.00  0.00    +0.162 HD
ATOM     34  H   UNL     1       2.524  -4.174   4.078  0.00  0.00    +0.162 HD
BRANCH  24  35
ATOM     35  O   UNL     1       0.576  -0.120   1.486  0.00  0.00    -0.492 OA
BRANCH  35  37
ATOM     36  C   UNL     1      -0.123   2.013   0.592  0.00  0.00    +0.048 C 
ATOM     37  C   UNL     1      -0.186   0.492   0.443  0.00  0.00    +0.225 C 
ENDBRANCH  35  37
ENDBRANCH  24  35
ENDBRANCH  23  29
ENDBRANCH  22  23
ENDBRANCH   1  22
TORSDOF 8
