REMARK  Name = ZINC56744346
REMARK  11 active torsions:
REMARK  status: ('A' for Active; 'I' for Inactive)
REMARK    1  A    between atoms: C_1  and  C_2
REMARK    2  A    between atoms: N_7  and  C_9
REMARK    3  A    between atoms: C_9  and  C_10
REMARK    4  A    between atoms: C_9  and  C_11
REMARK    5  A    between atoms: C_9  and  C_12
REMARK    6  A    between atoms: C_12  and  N_13
REMARK    7  A    between atoms: N_16  and  C_17
REMARK    8  A    between atoms: C_22  and  C_23
REMARK    9  A    between atoms: C_23  and  C_24
REMARK   10  A    between atoms: N_26  and  C_27
REMARK   11  A    between atoms: N_26  and  C_28
REMARK                            x       y       z     vdW  Elec       q    Type
REMARK                         _______ _______ _______ _____ _____    ______ ____
ROOT
ATOM      1  N   UNL     1       2.201  -4.460   1.149  0.00  0.00    -0.300 N 
ATOM      2  C   UNL     1       2.324  -5.782   0.916  0.00  0.00    +0.304 C 
ATOM      3  O   UNL     1       1.921  -6.584   1.736  0.00  0.00    -0.253 OA
ATOM      4  N   UNL     1       2.894  -6.215  -0.226  0.00  0.00    -0.269 N 
ATOM      5  H   UNL     1       2.523  -3.820   0.495  0.00  0.00    +0.150 HD
ATOM      6  H   UNL     1       3.142  -5.579  -0.915  0.00  0.00    +0.156 HD
ENDROOT
BRANCH   4   7
ATOM      7  C   UNL     1       3.129  -7.581  -0.417  0.00  0.00    +0.038 A 
ATOM      8  C   UNL     1       3.275  -8.422   0.679  0.00  0.00    +0.023 A 
ATOM      9  C   UNL     1       3.506  -9.770   0.487  0.00  0.00    +0.002 A 
ATOM     10  C   UNL     1       3.593 -10.282  -0.794  0.00  0.00    +0.000 A 
ATOM     11  C   UNL     1       3.449  -9.448  -1.887  0.00  0.00    +0.006 A 
ATOM     12  C   UNL     1       3.211  -8.100  -1.702  0.00  0.00    -0.017 A 
BRANCH  12  13
ATOM     13  C   UNL     1       3.048  -7.192  -2.894  0.00  0.00    +0.133 C 
BRANCH  13  14
ATOM     14  C   UNL     1       4.372  -6.553  -3.223  0.00  0.00    +0.219 C 
ATOM     15  O   UNL     1       5.352  -6.809  -2.556  0.00  0.00    -0.275 OA
ATOM     16  N   UNL     1       4.468  -5.696  -4.259  0.00  0.00    -0.307 N 
ATOM     17  C   UNL     1       5.755  -5.074  -4.580  0.00  0.00    +0.131 C 
ATOM     18  C   UNL     1       3.284  -5.387  -5.066  0.00  0.00    +0.131 C 
ENDBRANCH  13  14
ENDBRANCH  12  13
ENDBRANCH   4   7
BRANCH   1  19
ATOM     19  C   UNL     1       1.581  -3.990   2.390  0.00  0.00    +0.093 C 
BRANCH  19  20
ATOM     20  C   UNL     1       1.566  -2.460   2.405  0.00  0.00    -0.055 C 
ATOM     21  C   UNL     1       3.001  -1.935   2.320  0.00  0.00    -0.008 C 
ATOM     22  C   UNL     1       0.919  -1.969   3.701  0.00  0.00    -0.008 C 
BRANCH  20  28
ATOM     23  C   UNL     1       0.049   1.550   0.041  0.00  0.00    +0.005 C 
ATOM     24  C   UNL     1       0.057   0.020   0.027  0.00  0.00    -0.031 C 
ATOM     25  C   UNL     1      -1.384  -0.498   0.037  0.00  0.00    -0.001 C 
ATOM     26  C   UNL     1      -1.365  -2.028   0.102  0.00  0.00    -0.018 C 
ATOM     27  C   UNL     1      -0.581  -2.472   1.338  0.00  0.00    -0.078 C 
ATOM     28  N   UNL     1       0.795  -1.967   1.256  0.00  0.00    +0.384 N 
ATOM     29  C   UNL     1       0.790  -0.499   1.265  0.00  0.00    -0.075 C 
ATOM     30  H   UNL     1       1.222  -2.295   0.402  0.00  0.00    -0.081 HD
ENDBRANCH  20  28
ENDBRANCH  19  20
ENDBRANCH   1  19
TORSDOF 6
