REMARK  Name = ZINC42352316
REMARK  8 active torsions:
REMARK  status: ('A' for Active; 'I' for Inactive)
REMARK    1  A    between atoms: C_1  and  C_2
REMARK    2  A    between atoms: C_2  and  C_4
REMARK    3  A    between atoms: C_2  and  N_13
REMARK    4  A    between atoms: C_6  and  O_11
REMARK    5  A    between atoms: C_9  and  O_10
REMARK    6  A    between atoms: O_11  and  C_12
REMARK    7  A    between atoms: N_13  and  C_14
REMARK    8  A    between atoms: C_14  and  C_15
REMARK                            x       y       z     vdW  Elec       q    Type
REMARK                         _______ _______ _______ _____ _____    ______ ____
ROOT
ATOM      1  C   UNL     1      -0.019   1.526   0.010  0.00  0.00    -0.009 C 
ATOM      2  C   UNL     1       0.002  -0.004   0.002  0.00  0.00    -0.040 C 
ENDROOT
BRANCH   2   3
ATOM      3  C   UNL     1       0.731  -0.503   1.223  0.00  0.00    -0.017 A 
ATOM      4  C   UNL     1       2.076  -0.808   1.148  0.00  0.00    +0.051 A 
ATOM      5  C   UNL     1       2.747  -1.267   2.271  0.00  0.00    +0.121 A 
ATOM      6  C   UNL     1       2.067  -1.420   3.471  0.00  0.00    +0.049 A 
ATOM      7  C   UNL     1       0.722  -1.116   3.546  0.00  0.00    +0.049 A 
ATOM      8  C   UNL     1       0.052  -0.651   2.423  0.00  0.00    +0.119 A 
BRANCH   8   9
ATOM      9  O   UNL     1      -1.271  -0.346   2.499  0.00  0.00    -0.507 OA
ATOM     10  H   UNL     1      -1.857  -1.090   2.302  0.00  0.00    +0.292 HD
ENDBRANCH   8   9
BRANCH   5  11
ATOM     11  O   UNL     1       4.071  -1.567   2.197  0.00  0.00    -0.495 OA
ATOM     12  C   UNL     1       4.699  -2.034   3.393  0.00  0.00    +0.277 C 
ENDBRANCH   5  11
ENDBRANCH   2   3
BRANCH   2  13
ATOM     13  N   UNL     1       0.690  -0.478  -1.207  0.00  0.00    +0.386 N 
ATOM     14  H   UNL     1       1.608  -0.063  -1.256  0.00  0.00    -0.085 HD
ATOM     15  H   UNL     1       0.776  -1.482  -1.172  0.00  0.00    -0.085 HD
BRANCH  13  16
ATOM     16  C   UNL     1      -0.086  -0.093  -2.394  0.00  0.00    -0.046 C 
BRANCH  16  17
ATOM     17  C   UNL     1       0.620  -0.579  -3.634  0.00  0.00    -0.064 A 
ATOM     18  C   UNL     1       1.552   0.228  -4.259  0.00  0.00    +0.003 A 
ATOM     19  C   UNL     1       2.200  -0.218  -5.396  0.00  0.00    +0.015 A 
ATOM     20  C   UNL     1       1.915  -1.471  -5.908  0.00  0.00    +0.018 A 
ATOM     21  C   UNL     1       0.982  -2.278  -5.281  0.00  0.00    +0.015 A 
ATOM     22  C   UNL     1       0.339  -1.834  -4.141  0.00  0.00    +0.003 A 
ATOM     23 BR   UNL     1       2.800  -2.081  -7.464  0.00  0.00    -0.050 Br
ENDBRANCH  16  17
ENDBRANCH  13  16
ENDBRANCH   2  13
TORSDOF 6
