REMARK  Name = ZINC09482837
REMARK  5 active torsions:
REMARK  status: ('A' for Active; 'I' for Inactive)
REMARK    1  A    between atoms: C_1  and  C_2
REMARK    2  A    between atoms: C_5  and  C_8
REMARK    3  A    between atoms: C_13  and  C_17
REMARK    4  A    between atoms: C_13  and  C_18
REMARK    5  A    between atoms: C_27  and  C_29
REMARK                            x       y       z     vdW  Elec       q    Type
REMARK                         _______ _______ _______ _____ _____    ______ ____
ROOT
ATOM      1  C   UNL     1       2.506   1.665  -0.035  0.00  0.00    +0.147 C 
ATOM      2  C   UNL     1       1.043   2.038  -0.034  0.00  0.00    +0.037 C 
ATOM      3  C   UNL     1       0.011   1.179  -0.021  0.00  0.00    +0.017 C 
ATOM      4  C   UNL     1      -1.418   1.696  -0.061  0.00  0.00    +0.058 C 
ATOM      5  C   UNL     1      -1.509   3.023   0.691  0.00  0.00    -0.023 C 
ATOM      6  C   UNL     1      -0.571   4.018  -0.002  0.00  0.00    +0.086 C 
ATOM      7  C   UNL     1       0.809   3.433  -0.036  0.00  0.00    +0.163 C 
ATOM      8  O   UNL     1       1.763   4.186  -0.065  0.00  0.00    -0.292 OA
ATOM      9  C   UNL     1      -1.073   2.826   2.144  0.00  0.00    +0.011 C 
ATOM     10  C   UNL     1      -2.945   3.547   0.646  0.00  0.00    +0.011 C 
ATOM     11  N   UNL     1       0.124  -0.173   0.013  0.00  0.00    -0.316 N 
ATOM     12  C   UNL     1       0.974  -0.917  -0.796  0.00  0.00    +0.053 A 
ATOM     13  C   UNL     1       0.502  -1.816  -1.737  0.00  0.00    +0.025 A 
ATOM     14  C   UNL     1       1.405  -2.558  -2.479  0.00  0.00    +0.002 A 
ATOM     15  C   UNL     1       2.765  -2.405  -2.279  0.00  0.00    +0.002 A 
ATOM     16  C   UNL     1       3.238  -1.495  -1.350  0.00  0.00    +0.025 A 
ATOM     17  C   UNL     1       2.338  -0.735  -0.621  0.00  0.00    +0.058 A 
ATOM     18  N   UNL     1       2.768   0.269   0.247  0.00  0.00    -0.257 N 
ATOM     19  C   UNL     1       3.439  -0.066   1.367  0.00  0.00    +0.235 C 
ATOM     20  O   UNL     1       3.817   0.798   2.129  0.00  0.00    -0.274 OA
ATOM     21  H   UNL     1      -0.429  -0.655   0.647  0.00  0.00    +0.152 HD
ENDROOT
BRANCH   1  26
ATOM     22  C   UNL     1       4.721   2.936  -5.219  0.00  0.00    +0.044 C 
ATOM     23  C   UNL     1       4.143   2.604  -3.867  0.00  0.00    -0.050 A 
ATOM     24  C   UNL     1       3.179   1.621  -3.749  0.00  0.00    +0.004 A 
ATOM     25  C   UNL     1       2.649   1.317  -2.509  0.00  0.00    +0.006 A 
ATOM     26  C   UNL     1       3.084   1.996  -1.386  0.00  0.00    -0.022 A 
ATOM     27  C   UNL     1       4.045   2.983  -1.505  0.00  0.00    +0.006 A 
ATOM     28  C   UNL     1       4.579   3.283  -2.744  0.00  0.00    +0.004 A 
ENDBRANCH   1  26
BRANCH  19  29
ATOM     29  C   UNL     1       3.718  -1.515   1.673  0.00  0.00    +0.204 C 
ATOM     30 CL   UNL     1       4.625  -1.637   3.227  0.00  0.00    -0.116 Cl
ENDBRANCH  19  29
TORSDOF 2
