REMARK  Name = ZINC66930510
REMARK  6 active torsions:
REMARK  status: ('A' for Active; 'I' for Inactive)
REMARK    1  A    between atoms: C_1  and  C_2
REMARK    2  A    between atoms: C_3  and  C_12
REMARK    3  A    between atoms: C_6  and  C_8
REMARK    4  A    between atoms: N_14  and  C_15
REMARK    5  A    between atoms: C_15  and  C_16
REMARK    6  A    between atoms: C_16  and  O_26
REMARK                            x       y       z     vdW  Elec       q    Type
REMARK                         _______ _______ _______ _____ _____    ______ ____
ROOT
ATOM      1  C   UNL     1      -0.147   0.037  -2.496  0.00  0.00    +0.246 C 
ATOM      2  O   UNL     1      -0.083   1.250  -2.501  0.00  0.00    -0.270 OA
ATOM      3  N   UNL     1      -0.380  -0.631  -3.643  0.00  0.00    -0.308 N 
ATOM      4  H   UNL     1      -0.431  -1.599  -3.639  0.00  0.00    +0.149 HD
ENDROOT
BRANCH   1   7
ATOM      5  C   UNL     1       0.072   1.478   0.005  0.00  0.00    +0.066 C 
ATOM      6  C   UNL     1       0.136  -0.028  -0.017  0.00  0.00    +0.051 A 
ATOM      7  C   UNL     1       0.029  -0.708  -1.231  0.00  0.00    +0.058 A 
ATOM      8  C   UNL     1       0.091  -2.106  -1.230  0.00  0.00    +0.017 A 
ATOM      9  C   UNL     1       0.256  -2.755  -0.019  0.00  0.00    +0.033 A 
ATOM     10  C   UNL     1       0.355  -2.009   1.141  0.00  0.00    +0.144 A 
ATOM     11  N   UNL     1       0.298  -0.691   1.110  0.00  0.00    -0.247 NA
BRANCH  10  12
ATOM     12  C   UNL     1       0.535  -2.712   2.462  0.00  0.00    +0.434 C 
ATOM     13  F   UNL     1       1.900  -2.872   2.722  0.00  0.00    -0.164 F 
ATOM     14  F   UNL     1      -0.048  -1.949   3.479  0.00  0.00    -0.164 F 
ATOM     15  F   UNL     1      -0.080  -3.967   2.409  0.00  0.00    -0.164 F 
ENDBRANCH  10  12
ENDBRANCH   1   7
BRANCH   3  16
ATOM     16  C   UNL     1      -0.555   0.107  -4.897  0.00  0.00    +0.144 C 
BRANCH  16  17
ATOM     17  C   UNL     1      -0.896  -0.873  -6.022  0.00  0.00    +0.107 C 
ATOM     18  C   UNL     1       0.205  -1.926  -6.123  0.00  0.00    +0.041 C 
ATOM     19  C   UNL     1      -0.041  -2.762  -7.385  0.00  0.00    +0.008 C 
ATOM     20  C   UNL     1       0.241  -1.887  -8.605  0.00  0.00    +0.035 C 
ATOM     21  C   UNL     1      -0.507  -0.583  -8.504  0.00  0.00    -0.041 A 
ATOM     22  C   UNL     1      -1.026  -0.115  -7.317  0.00  0.00    -0.011 A 
ATOM     23  C   UNL     1      -1.700   1.099  -7.292  0.00  0.00    +0.007 A 
ATOM     24  C   UNL     1      -1.856   1.838  -8.447  0.00  0.00    +0.000 A 
ATOM     25  C   UNL     1      -1.339   1.367  -9.639  0.00  0.00    +0.000 A 
ATOM     26  C   UNL     1      -0.668   0.162  -9.666  0.00  0.00    +0.004 A 
BRANCH  17  27
ATOM     27  O   UNL     1      -2.137  -1.516  -5.726  0.00  0.00    -0.382 OA
ATOM     28  H   UNL     1      -2.884  -0.908  -5.637  0.00  0.00    +0.211 HD
ENDBRANCH  17  27
ENDBRANCH  16  17
ENDBRANCH   3  16
TORSDOF 5
