REMARK  Name = ZINC08845381
REMARK  9 active torsions:
REMARK  status: ('A' for Active; 'I' for Inactive)
REMARK    1  A    between atoms: C_1  and  C_2
REMARK    2  A    between atoms: C_4  and  O_35
REMARK    3  A    between atoms: C_5  and  C_9
REMARK    4  A    between atoms: N_17  and  C_29
REMARK    5  A    between atoms: C_18  and  C_20
REMARK    6  A    between atoms: C_23  and  O_28
REMARK    7  A    between atoms: C_24  and  O_26
REMARK    8  A    between atoms: O_26  and  C_27
REMARK    9  A    between atoms: C_29  and  C_30
REMARK                            x       y       z     vdW  Elec       q    Type
REMARK                         _______ _______ _______ _____ _____    ______ ____
ROOT
ATOM      1  C   UNL     1      -0.203  -3.929   0.192  0.00  0.00    +0.102 A 
ATOM      2  C   UNL     1       0.040  -4.902   1.167  0.00  0.00    +0.035 A 
ATOM      3  C   UNL     1       0.038  -6.112   0.500  0.00  0.00    +0.126 A 
ATOM      4  N   UNL     1      -0.200  -5.821  -0.813  0.00  0.00    -0.272 N 
ATOM      5  H   UNL     1      -0.259  -6.476  -1.526  0.00  0.00    +0.189 HD
ATOM      6  N   UNL     1      -0.341  -4.552  -0.962  0.00  0.00    -0.173 NA
ATOM      7  C   UNL     1       0.288  -7.181   1.474  0.00  0.00    +0.266 C 
ATOM      8  O   UNL     1       0.348  -8.365   1.204  0.00  0.00    -0.268 OA
ATOM      9  N   UNL     1       0.443  -6.665   2.706  0.00  0.00    -0.278 N 
ATOM     10  C   UNL     1       0.302  -5.206   2.617  0.00  0.00    +0.142 C 
ENDROOT
BRANCH   1  15
ATOM     11  C   UNL     1      -0.561   1.758   1.062  0.00  0.00    +0.045 C 
ATOM     12  C   UNL     1      -0.467   0.271   0.832  0.00  0.00    -0.029 A 
ATOM     13  C   UNL     1      -0.511  -0.230  -0.455  0.00  0.00    +0.050 A 
ATOM     14  C   UNL     1      -0.426  -1.595  -0.672  0.00  0.00    +0.126 A 
ATOM     15  C   UNL     1      -0.294  -2.464   0.415  0.00  0.00    +0.045 A 
ATOM     16  C   UNL     1      -0.250  -1.950   1.708  0.00  0.00    +0.034 A 
ATOM     17  C   UNL     1      -0.331  -0.586   1.911  0.00  0.00    +0.045 A 
ATOM     18 CL   UNL     1      -0.269   0.055   3.523  0.00  0.00    -0.083 Cl
BRANCH  14  19
ATOM     19  O   UNL     1      -0.470  -2.089  -1.938  0.00  0.00    -0.506 OA
ATOM     20  H   UNL     1       0.396  -2.167  -2.360  0.00  0.00    +0.292 HD
ENDBRANCH  14  19
ENDBRANCH   1  15
BRANCH  10  21
ATOM     21  C   UNL     1       1.572  -4.533   3.067  0.00  0.00    -0.019 A 
ATOM     22  C   UNL     1       1.524  -3.542   4.030  0.00  0.00    +0.009 A 
ATOM     23  C   UNL     1       2.686  -2.921   4.447  0.00  0.00    +0.049 A 
ATOM     24  C   UNL     1       3.904  -3.293   3.900  0.00  0.00    +0.158 A 
ATOM     25  C   UNL     1       3.953  -4.291   2.932  0.00  0.00    +0.162 A 
ATOM     26  C   UNL     1       2.785  -4.912   2.522  0.00  0.00    +0.055 A 
BRANCH  25  27
ATOM     27  O   UNL     1       5.146  -4.659   2.392  0.00  0.00    -0.491 OA
ATOM     28  C   UNL     1       5.110  -5.608   1.325  0.00  0.00    +0.277 C 
ENDBRANCH  25  27
BRANCH  24  29
ATOM     29  O   UNL     1       5.049  -2.683   4.309  0.00  0.00    -0.503 OA
ATOM     30  H   UNL     1       5.478  -3.115   5.060  0.00  0.00    +0.292 HD
ENDBRANCH  24  29
ENDBRANCH  10  21
BRANCH   9  31
ATOM     31  C   UNL     1       0.707  -7.428   3.929  0.00  0.00    +0.183 C 
BRANCH  31  32
ATOM     32  C   UNL     1       2.195  -7.568   4.122  0.00  0.00    +0.122 A 
ATOM     33  C   UNL     1       2.982  -6.717   4.804  0.00  0.00    +0.046 A 
ATOM     34  C   UNL     1       4.298  -7.230   4.732  0.00  0.00    +0.041 A 
ATOM     35  C   UNL     1       4.236  -8.364   4.010  0.00  0.00    +0.195 A 
ATOM     36  O   UNL     1       2.958  -8.567   3.649  0.00  0.00    -0.466 OA
ENDBRANCH  31  32
ENDBRANCH   9  31
TORSDOF 7
