REMARK  Name = ZINC21228647
REMARK  8 active torsions:
REMARK  status: ('A' for Active; 'I' for Inactive)
REMARK    1  A    between atoms: C_1  and  C_2
REMARK    2  A    between atoms: C_2  and  C_3
REMARK    3  A    between atoms: C_6  and  C_9
REMARK    4  A    between atoms: C_14  and  C_24
REMARK    5  A    between atoms: C_26  and  O_32
REMARK    6  A    between atoms: C_29  and  O_30
REMARK    7  A    between atoms: O_30  and  C_31
REMARK    8  A    between atoms: O_32  and  C_33
REMARK                            x       y       z     vdW  Elec       q    Type
REMARK                         _______ _______ _______ _____ _____    ______ ____
ROOT
ATOM      1  C   UNL     1      -2.434   2.965  -4.977  0.00  0.00    +0.032 C 
ATOM      2  C   UNL     1      -3.894   2.979  -4.526  0.00  0.00    +0.059 C 
ATOM      3  C   UNL     1      -4.779   3.487  -5.652  0.00  0.00    +0.017 C 
ATOM      4  C   UNL     1      -4.459   3.240  -6.933  0.00  0.00    +0.037 C 
ATOM      5  C   UNL     1      -5.256   3.663  -8.144  0.00  0.00    +0.140 C 
ATOM      6  N   UNL     1      -6.310   4.615  -7.864  0.00  0.00    -0.331 N 
ATOM      7  C   UNL     1      -7.396   4.272  -7.059  0.00  0.00    +0.049 A 
ATOM      8  C   UNL     1      -8.674   4.157  -7.582  0.00  0.00    +0.025 A 
ATOM      9  C   UNL     1      -9.702   3.710  -6.770  0.00  0.00    +0.002 A 
ATOM     10  C   UNL     1      -9.459   3.381  -5.449  0.00  0.00    +0.002 A 
ATOM     11  C   UNL     1      -8.187   3.516  -4.919  0.00  0.00    +0.025 A 
ATOM     12  C   UNL     1      -7.162   3.979  -5.724  0.00  0.00    +0.052 A 
ATOM     13  N   UNL     1      -5.872   4.180  -5.245  0.00  0.00    -0.316 N 
ATOM     14  C   UNL     1      -3.280   2.523  -7.248  0.00  0.00    +0.163 C 
ATOM     15  O   UNL     1      -3.027   2.294  -8.414  0.00  0.00    -0.292 OA
ATOM     16  C   UNL     1      -2.331   2.037  -6.194  0.00  0.00    +0.088 C 
ATOM     17  H   UNL     1      -6.263   5.629  -8.288  0.00  0.00    +0.147 HD
ATOM     18  H   UNL     1      -5.773   4.965  -4.481  0.00  0.00    +0.152 HD
ENDROOT
BRANCH   1  22
ATOM     19  C   UNL     1       0.042   1.497  -1.821  0.00  0.00    -0.048 A 
ATOM     20  C   UNL     1      -0.981   0.712  -2.319  0.00  0.00    +0.004 A 
ATOM     21  C   UNL     1      -1.785   1.189  -3.338  0.00  0.00    +0.004 A 
ATOM     22  C   UNL     1      -1.560   2.447  -3.864  0.00  0.00    -0.043 A 
ATOM     23  C   UNL     1      -0.535   3.231  -3.369  0.00  0.00    +0.004 A 
ATOM     24  C   UNL     1       0.267   2.756  -2.348  0.00  0.00    +0.004 A 
BRANCH  19  26
ATOM     25  C   UNL     1       0.310   1.372   0.641  0.00  0.00    +0.009 C 
ATOM     26  C   UNL     1       0.916   0.979  -0.708  0.00  0.00    +0.032 C 
ENDBRANCH  19  26
ENDBRANCH   1  22
BRANCH   5  27
ATOM     27  C   UNL     1      -5.874   2.435  -8.762  0.00  0.00    +0.022 A 
ATOM     28  C   UNL     1      -5.963   1.265  -8.033  0.00  0.00    +0.055 A 
ATOM     29  C   UNL     1      -6.534   0.136  -8.601  0.00  0.00    +0.121 A 
ATOM     30  C   UNL     1      -7.009   0.179  -9.904  0.00  0.00    +0.049 A 
ATOM     31  C   UNL     1      -6.916   1.348 -10.634  0.00  0.00    +0.049 A 
ATOM     32  C   UNL     1      -6.348   2.478 -10.065  0.00  0.00    +0.126 A 
BRANCH  32  33
ATOM     33  O   UNL     1      -6.256   3.629 -10.784  0.00  0.00    -0.495 OA
ATOM     34  C   UNL     1      -6.765   3.602 -12.119  0.00  0.00    +0.277 C 
ENDBRANCH  32  33
BRANCH  29  35
ATOM     35  O   UNL     1      -6.626  -1.015  -7.882  0.00  0.00    -0.495 OA
ATOM     36  C   UNL     1      -7.222  -2.140  -8.531  0.00  0.00    +0.277 C 
ENDBRANCH  29  35
ENDBRANCH   5  27
TORSDOF 5
