REMARK  Name = ZINC05505140
REMARK  9 active torsions:
REMARK  status: ('A' for Active; 'I' for Inactive)
REMARK    1  A    between atoms: C_1  and  C_2
REMARK    2  A    between atoms: C_2  and  C_3
REMARK    3  A    between atoms: C_5  and  C_11
REMARK    4  A    between atoms: C_6  and  O_10
REMARK    5  A    between atoms: C_8  and  O_9
REMARK    6  A    between atoms: C_11  and  C_14
REMARK    7  A    between atoms: N_12  and  O_13
REMARK    8  A    between atoms: C_14  and  C_15
REMARK    9  A    between atoms: C_18  and  C_20
REMARK                            x       y       z     vdW  Elec       q    Type
REMARK                         _______ _______ _______ _____ _____    ______ ____
ROOT
ATOM      1  C   UNL     1      -3.929  -1.903  -2.402  0.00  0.00    +0.097 C 
ATOM      2  N   UNL     1      -5.106  -2.441  -2.377  0.00  0.00    -0.091 NA
ENDROOT
BRANCH   1   5
ATOM      3  C   UNL     1      -2.357  -1.947   1.003  0.00  0.00    -0.005 A 
ATOM      4  C   UNL     1      -2.946  -2.376  -0.166  0.00  0.00    +0.020 A 
ATOM      5  C   UNL     1      -3.300  -1.449  -1.150  0.00  0.00    +0.042 A 
ATOM      6  C   UNL     1      -3.053  -0.084  -0.941  0.00  0.00    +0.129 A 
ATOM      7  C   UNL     1      -2.461   0.335   0.238  0.00  0.00    +0.091 A 
ATOM      8  C   UNL     1      -2.118  -0.593   1.211  0.00  0.00    +0.124 A 
BRANCH   3  10
ATOM      9  C   UNL     1      -0.477  -3.238   1.977  0.00  0.00    +0.009 C 
ATOM     10  C   UNL     1      -1.977  -2.948   2.063  0.00  0.00    +0.035 C 
ENDBRANCH   3  10
BRANCH   8  11
ATOM     11  O   UNL     1      -1.543  -0.178   2.369  0.00  0.00    -0.506 OA
ATOM     12  H   UNL     1      -0.577  -0.143   2.337  0.00  0.00    +0.292 HD
ENDBRANCH   8  11
BRANCH   6  13
ATOM     13  O   UNL     1      -3.393   0.823  -1.892  0.00  0.00    -0.506 OA
ATOM     14  H   UNL     1      -4.259   1.230  -1.755  0.00  0.00    +0.292 HD
ENDBRANCH   6  13
ENDBRANCH   1   5
BRANCH   2  15
ATOM     15  O   UNL     1      -5.837  -2.490  -1.165  0.00  0.00    -0.409 OA
ATOM     16  H   UNL     1      -6.704  -2.910  -1.245  0.00  0.00    +0.328 HD
ENDBRANCH   2  15
BRANCH   1  17
ATOM     17  C   UNL     1      -3.202  -1.742  -3.713  0.00  0.00    +0.124 C 
BRANCH  17  18
ATOM     18  C   UNL     1      -4.056  -2.281  -4.831  0.00  0.00    +0.108 A 
ATOM     19  N   UNL     1      -4.944  -1.655  -5.569  0.00  0.00    -0.146 NA
ATOM     20  N   UNL     1      -5.593  -2.241  -6.482  0.00  0.00    -0.141 NA
ATOM     21  C   UNL     1      -5.367  -3.532  -6.698  0.00  0.00    +0.132 A 
ATOM     22  S   UNL     1      -4.114  -3.843  -5.462  0.00  0.00    -0.050 S 
BRANCH  21  23
ATOM     23  C   UNL     1      -5.976  -4.450  -7.686  0.00  0.00    +0.009 A 
ATOM     24  C   UNL     1      -5.585  -5.789  -7.731  0.00  0.00    +0.010 A 
ATOM     25  C   UNL     1      -6.157  -6.640  -8.655  0.00  0.00    +0.001 A 
ATOM     26  C   UNL     1      -7.115  -6.168  -9.534  0.00  0.00    +0.000 A 
ATOM     27  C   UNL     1      -7.507  -4.842  -9.494  0.00  0.00    +0.001 A 
ATOM     28  C   UNL     1      -6.947  -3.982  -8.572  0.00  0.00    +0.010 A 
ENDBRANCH  21  23
ENDBRANCH  17  18
ENDBRANCH   1  17
TORSDOF 8
