REMARK  Name = ZINC10269391
REMARK  4 active torsions:
REMARK  status: ('A' for Active; 'I' for Inactive)
REMARK    1  A    between atoms: C_10  and  C_11
REMARK    2  A    between atoms: C_12  and  C_13
REMARK    3  A    between atoms: N_15  and  N_16
REMARK    4  A    between atoms: C_17  and  C_19
REMARK                            x       y       z     vdW  Elec       q    Type
REMARK                         _______ _______ _______ _____ _____    ______ ____
ROOT
ATOM      1  C   UNL     1       1.244   1.824   0.000  0.00  0.00    +0.253 C 
ATOM      2  O   UNL     1       1.227   3.041   0.007  0.00  0.00    -0.269 OA
ATOM      3  N   UNL     1       2.420   1.166  -0.015  0.00  0.00    -0.231 N 
ATOM      4  H   UNL     1       2.433   0.196  -0.020  0.00  0.00    +0.173 HD
ENDROOT
BRANCH   3   5
ATOM      5  N   UNL     1       3.624   1.883  -0.022  0.00  0.00    -0.234 N 
ATOM      6  C   UNL     1       4.800   1.225  -0.037  0.00  0.00    +0.234 C 
ATOM      7  O   UNL     1       4.816   0.013  -0.044  0.00  0.00    -0.274 OA
ATOM      8  H   UNL     1       3.611   2.853  -0.017  0.00  0.00    +0.173 HD
BRANCH   6   9
ATOM      9  C   UNL     1       6.095   1.996  -0.045  0.00  0.00    +0.099 C 
ATOM     10  C   UNL     1       6.173   2.866  -1.311  0.00  0.00    +0.037 C 
ATOM     11  C   UNL     1       7.612   3.407  -1.492  0.00  0.00    +0.166 C 
ATOM     12  S   UNL     1       8.634   2.114  -0.676  0.00  0.00    -0.030 S 
ATOM     13  O   UNL     1       9.306   2.688   0.436  0.00  0.00    -0.174 OA
ATOM     14  O   UNL     1       9.386   1.425  -1.667  0.00  0.00    -0.174 OA
ATOM     15  C   UNL     1       7.295   1.008  -0.062  0.00  0.00    +0.178 C 
ENDBRANCH   6   9
ENDBRANCH   3   5
BRANCH   1  17
ATOM     16  C   UNL     1      -1.192   1.736   0.017  0.00  0.00    +0.013 C 
ATOM     17  C   UNL     1      -0.013   1.076   0.008  0.00  0.00    +0.069 C 
BRANCH  16  27
ATOM     18  C   UNL     1      -6.205   2.943   0.066  0.00  0.00    +0.001 A 
ATOM     19  C   UNL     1      -5.030   3.691   0.064  0.00  0.00    +0.001 A 
ATOM     20  C   UNL     1      -3.811   3.080   0.049  0.00  0.00    +0.009 A 
ATOM     21  C   UNL     1      -3.738   1.683   0.035  0.00  0.00    -0.011 A 
ATOM     22  C   UNL     1      -4.931   0.919   0.031  0.00  0.00    -0.017 A 
ATOM     23  C   UNL     1      -6.170   1.582   0.041  0.00  0.00    +0.008 A 
ATOM     24  C   UNL     1      -4.853  -0.484   0.024  0.00  0.00    +0.008 A 
ATOM     25  C   UNL     1      -3.645  -1.114   0.014  0.00  0.00    +0.001 A 
ATOM     26  C   UNL     1      -2.451  -0.407   0.011  0.00  0.00    +0.008 A 
ATOM     27  C   UNL     1      -2.453   0.985   0.019  0.00  0.00    -0.017 A 
ENDBRANCH  16  27
ENDBRANCH   1  17
TORSDOF 4
