REMARK  Name = ZINC44490129
REMARK  9 active torsions:
REMARK  status: ('A' for Active; 'I' for Inactive)
REMARK    1  A    between atoms: C_1  and  C_2
REMARK    2  A    between atoms: C_2  and  C_3
REMARK    3  A    between atoms: C_2  and  N_4
REMARK    4  A    between atoms: N_4  and  C_5
REMARK    5  A    between atoms: C_5  and  C_6
REMARK    6  A    between atoms: C_6  and  C_7
REMARK    7  A    between atoms: N_8  and  O_9
REMARK    8  A    between atoms: C_11  and  C_13
REMARK    9  A    between atoms: C_18  and  O_19
REMARK                            x       y       z     vdW  Elec       q    Type
REMARK                         _______ _______ _______ _____ _____    ______ ____
ROOT
ATOM      1  N   UNL     1      -1.369   0.034   0.767  0.00  0.00    -0.295 N 
ATOM      2  C   UNL     1      -1.508   1.258   1.314  0.00  0.00    +0.250 C 
ATOM      3  O   UNL     1      -2.574   1.840   1.239  0.00  0.00    -0.270 OA
ENDROOT
BRANCH   2   4
ATOM      4  C   UNL     1      -0.368   1.893   2.002  0.00  0.00    +0.078 A 
ATOM      5  C   UNL     1       0.940   1.610   1.601  0.00  0.00    +0.018 A 
ATOM      6  C   UNL     1       2.001   2.206   2.247  0.00  0.00    +0.016 A 
ATOM      7  C   UNL     1       1.776   3.086   3.295  0.00  0.00    +0.021 A 
ATOM      8  C   UNL     1       0.487   3.373   3.702  0.00  0.00    +0.061 A 
ATOM      9  C   UNL     1      -0.592   2.787   3.058  0.00  0.00    +0.130 A 
ATOM     10 BR   UNL     1       3.242   3.896   4.173  0.00  0.00    -0.050 Br
BRANCH   9  11
ATOM     11  O   UNL     1      -1.858   3.072   3.453  0.00  0.00    -0.506 OA
ATOM     12  H   UNL     1      -2.197   2.484   4.141  0.00  0.00    +0.292 HD
ENDBRANCH   9  11
ENDBRANCH   2   4
BRANCH   1  14
ATOM     13  C   UNL     1       0.421   0.868  -0.676  0.00  0.00    +0.028 C 
ATOM     14  C   UNL     1      -0.115  -0.334   0.104  0.00  0.00    +0.070 C 
ATOM     15  C   UNL     1       0.912  -0.758   1.155  0.00  0.00    +0.028 C 
ENDBRANCH   1  14
BRANCH   1  16
ATOM     16  C   UNL     1      -2.471  -0.928   0.835  0.00  0.00    +0.116 C 
BRANCH  16  17
ATOM     17  C   UNL     1      -2.340  -1.764   2.111  0.00  0.00    +0.093 C 
BRANCH  17  18
ATOM     18  C   UNL     1      -3.474  -2.754   2.181  0.00  0.00    +0.133 C 
ATOM     19  N   UNL     1      -4.359  -2.790   1.241  0.00  0.00    -0.077 NA
ATOM     20  N   UNL     1      -3.566  -3.620   3.248  0.00  0.00    -0.344 N 
ATOM     21  H   UNL     1      -2.902  -3.593   3.954  0.00  0.00    +0.144 HD
ATOM     22  H   UNL     1      -4.296  -4.258   3.293  0.00  0.00    +0.144 HD
BRANCH  19  23
ATOM     23  O   UNL     1      -5.424  -3.721   1.307  0.00  0.00    -0.408 OA
ATOM     24  H   UNL     1      -6.035  -3.673   0.559  0.00  0.00    +0.328 HD
ENDBRANCH  19  23
ENDBRANCH  17  18
ENDBRANCH  16  17
ENDBRANCH   1  16
TORSDOF 7
