REMARK  Name = ZINC44167340
REMARK  9 active torsions:
REMARK  status: ('A' for Active; 'I' for Inactive)
REMARK    1  A    between atoms: C_1  and  O_2
REMARK    2  A    between atoms: O_2  and  C_3
REMARK    3  A    between atoms: C_6  and  C_11
REMARK    4  A    between atoms: C_7  and  O_9
REMARK    5  A    between atoms: O_9  and  C_10
REMARK    6  A    between atoms: C_16  and  C_19
REMARK    7  A    between atoms: N_21  and  C_22
REMARK    8  A    between atoms: C_22  and  C_23
REMARK    9  A    between atoms: C_23  and  C_24
REMARK                            x       y       z     vdW  Elec       q    Type
REMARK                         _______ _______ _______ _____ _____    ______ ____
ROOT
ATOM      1  C   UNL     1       2.507  -2.495  -4.390  0.00  0.00    -0.026 C 
ATOM      2  C   UNL     1       1.452  -2.842  -5.447  0.00  0.00    +0.058 C 
ATOM      3  S   UNL     1       2.283  -3.703  -6.819  0.00  0.00    -0.163 S 
ATOM      4  C   UNL     1       3.689  -2.606  -7.184  0.00  0.00    +0.062 C 
ATOM      5  C   UNL     1       4.409  -2.294  -5.867  0.00  0.00    +0.027 C 
ATOM      6  N   UNL     1       3.501  -1.585  -4.962  0.00  0.00    +0.392 N 
ATOM      7  H   UNL     1       3.027  -0.855  -5.472  0.00  0.00    -0.084 HD
ATOM      8  H   UNL     1       4.038  -1.170  -4.215  0.00  0.00    -0.084 HD
ENDROOT
BRANCH   1  12
ATOM      9  C   UNL     1       0.606  -0.607  -1.056  0.00  0.00    +0.124 A 
ATOM     10  C   UNL     1       1.173   0.162  -2.062  0.00  0.00    +0.046 A 
ATOM     11  C   UNL     1       1.787  -0.451  -3.138  0.00  0.00    +0.009 A 
ATOM     12  C   UNL     1       1.837  -1.830  -3.215  0.00  0.00    -0.019 A 
ATOM     13  C   UNL     1       1.272  -2.603  -2.211  0.00  0.00    +0.125 A 
ATOM     14  C   UNL     1       0.660  -1.990  -1.127  0.00  0.00    +0.091 A 
BRANCH   9  16
ATOM     15  C   UNL     1      -0.017   1.425   0.010  0.00  0.00    +0.277 C 
ATOM     16  O   UNL     1       0.002  -0.004   0.002  0.00  0.00    -0.495 OA
ENDBRANCH   9  16
BRANCH  13  17
ATOM     17  O   UNL     1       1.322  -3.959  -2.286  0.00  0.00    -0.495 OA
ATOM     18  C   UNL     1       0.719  -4.691  -1.217  0.00  0.00    +0.277 C 
ENDBRANCH  13  17
ENDBRANCH   1  12
BRANCH   5  19
ATOM     19  C   UNL     1       5.611  -1.429  -6.146  0.00  0.00    +0.200 C 
ATOM     20  O   UNL     1       5.697  -0.329  -5.643  0.00  0.00    -0.278 OA
ATOM     21  N   UNL     1       6.591  -1.879  -6.955  0.00  0.00    -0.316 N 
ATOM     22  H   UNL     1       6.522  -2.759  -7.358  0.00  0.00    +0.149 HD
BRANCH  21  23
ATOM     23  C   UNL     1       7.760  -1.039  -7.227  0.00  0.00    +0.109 C 
BRANCH  23  24
ATOM     24  C   UNL     1       8.713  -1.780  -8.167  0.00  0.00    +0.055 C 
BRANCH  24  25
ATOM     25  C   UNL     1       9.916  -0.915  -8.446  0.00  0.00    -0.027 A 
ATOM     26  C   UNL     1       9.945  -0.115  -9.573  0.00  0.00    +0.006 A 
ATOM     27  C   UNL     1      11.047   0.678  -9.830  0.00  0.00    +0.020 A 
ATOM     28  C   UNL     1      12.122   0.672  -8.959  0.00  0.00    +0.042 A 
ATOM     29  C   UNL     1      12.094  -0.128  -7.831  0.00  0.00    +0.040 A 
ATOM     30  C   UNL     1      10.988  -0.918  -7.572  0.00  0.00    +0.046 A 
ATOM     31 CL   UNL     1      10.948  -1.917  -6.153  0.00  0.00    -0.083 Cl
ATOM     32 CL   UNL     1      13.507   1.667  -9.282  0.00  0.00    -0.083 Cl
ENDBRANCH  24  25
ENDBRANCH  23  24
ENDBRANCH  21  23
ENDBRANCH   5  19
TORSDOF 7
