REMARK  Name = ZINC58192170
REMARK  7 active torsions:
REMARK  status: ('A' for Active; 'I' for Inactive)
REMARK    1  A    between atoms: C_1  and  C_2
REMARK    2  A    between atoms: C_4  and  C_27
REMARK    3  A    between atoms: C_5  and  C_9
REMARK    4  A    between atoms: C_7  and  C_8
REMARK    5  A    between atoms: C_10  and  C_11
REMARK    6  A    between atoms: C_10  and  C_13
REMARK    7  A    between atoms: N_19  and  C_20
REMARK                            x       y       z     vdW  Elec       q    Type
REMARK                         _______ _______ _______ _____ _____    ______ ____
ROOT
ATOM      1  C   UNL     1       0.136  -4.250   2.604  0.00  0.00    +0.177 A 
ATOM      2  N   UNL     1       0.124  -2.919   2.563  0.00  0.00    -0.194 NA
ATOM      3  C   UNL     1       0.170  -2.219   3.692  0.00  0.00    +0.217 A 
ATOM      4  N   UNL     1       0.229  -2.848   4.862  0.00  0.00    -0.181 NA
ATOM      5  C   UNL     1       0.241  -4.176   4.904  0.00  0.00    +0.224 A 
ATOM      6  N   UNL     1       0.190  -4.878   3.776  0.00  0.00    -0.194 NA
ATOM      7  N   UNL     1       0.303  -4.828   6.121  0.00  0.00    -0.283 N 
ATOM      8  N   UNL     1       0.158  -0.840   3.649  0.00  0.00    -0.327 N 
ATOM      9  H   UNL     1       0.396  -5.793   6.150  0.00  0.00    +0.155 HD
ATOM     10  H   UNL     1       0.059  -0.381   2.800  0.00  0.00    +0.145 HD
ATOM     11  H   UNL     1       0.249  -0.329   4.468  0.00  0.00    +0.145 HD
ENDROOT
BRANCH   7  12
ATOM     12  C   UNL     1       0.232  -4.096   7.310  0.00  0.00    +0.034 A 
ATOM     13  C   UNL     1      -0.565  -2.961   7.382  0.00  0.00    +0.023 A 
ATOM     14  C   UNL     1      -0.634  -2.240   8.558  0.00  0.00    +0.002 A 
ATOM     15  C   UNL     1       0.090  -2.648   9.664  0.00  0.00    +0.000 A 
ATOM     16  C   UNL     1       0.884  -3.778   9.596  0.00  0.00    +0.002 A 
ATOM     17  C   UNL     1       0.953  -4.506   8.424  0.00  0.00    +0.023 A 
ENDBRANCH   7  12
BRANCH   1  19
ATOM     18  C   UNL     1      -0.241  -4.414   0.177  0.00  0.00    +0.030 C 
ATOM     19  C   UNL     1       0.083  -5.030   1.348  0.00  0.00    +0.097 C 
BRANCH  18  24
ATOM     20  C   UNL     1      -2.227   0.978   0.219  0.00  0.00    +0.044 C 
ATOM     21  C   UNL     1      -1.706  -0.436   0.208  0.00  0.00    -0.047 A 
ATOM     22  C   UNL     1      -0.722  -0.800  -0.695  0.00  0.00    +0.007 A 
ATOM     23  C   UNL     1      -0.240  -2.091  -0.712  0.00  0.00    -0.043 A 
ATOM     24  C   UNL     1      -0.749  -3.036   0.188  0.00  0.00    -0.021 A 
ATOM     25  C   UNL     1      -1.744  -2.659   1.098  0.00  0.00    +0.011 A 
ATOM     26  C   UNL     1      -2.211  -1.362   1.105  0.00  0.00    -0.047 A 
ATOM     27  C   UNL     1      -3.277  -0.953   2.087  0.00  0.00    +0.044 C 
ATOM     28  C   UNL     1       0.831  -2.486  -1.696  0.00  0.00    +0.044 C 
ENDBRANCH  18  24
BRANCH  19  29
ATOM     29  C   UNL     1       0.374  -6.432   1.364  0.00  0.00    +0.103 C 
ATOM     30  N   UNL     1       0.604  -7.544   1.376  0.00  0.00    -0.191 NA
ENDBRANCH  19  29
ENDBRANCH   1  19
TORSDOF 4
