REMARK  Name = ZINC22060385
REMARK  15 active torsions:
REMARK  status: ('A' for Active; 'I' for Inactive)
REMARK    1  A    between atoms: C_1  and  C_2
REMARK    2  A    between atoms: C_2  and  C_3
REMARK    3  A    between atoms: C_3  and  C_4
REMARK    4  A    between atoms: C_4  and  N_5
REMARK    5  A    between atoms: C_9  and  C_34
REMARK    6  A    between atoms: C_10  and  C_33
REMARK    7  A    between atoms: C_14  and  S_15
REMARK    8  A    between atoms: S_15  and  C_16
REMARK    9  A    between atoms: C_16  and  C_17
REMARK   10  A    between atoms: C_17  and  C_19
REMARK   11  A    between atoms: C_20  and  N_32
REMARK   12  A    between atoms: N_21  and  C_28
REMARK   13  A    between atoms: C_28  and  C_29
REMARK   14  A    between atoms: C_29  and  C_30
REMARK   15  A    between atoms: C_29  and  C_31
REMARK                            x       y       z     vdW  Elec       q    Type
REMARK                         _______ _______ _______ _____ _____    ______ ____
ROOT
ATOM      1  C   UNL     1       2.834   4.215  -0.072  0.00  0.00    +0.157 C 
ENDROOT
BRANCH   1   2
ATOM      2  C   UNL     1       3.017   5.710  -0.028  0.00  0.00    +0.182 C 
ATOM      3  O   UNL     1       2.046   6.440   0.001  0.00  0.00    -0.291 OA
BRANCH   2   4
ATOM      4  C   UNL     1       4.315   6.263  -0.022  0.00  0.00    +0.120 A 
ATOM      5  C   UNL     1       4.513   7.652  -0.106  0.00  0.00    +0.116 A 
ATOM      6  N   UNL     1       5.789   8.139  -0.090  0.00  0.00    -0.281 N 
ATOM      7  C   UNL     1       6.848   7.320  -0.007  0.00  0.00    +0.331 A 
ATOM      8  O   UNL     1       7.963   7.803  -0.002  0.00  0.00    -0.246 OA
ATOM      9  N   UNL     1       6.721   5.985   0.070  0.00  0.00    -0.274 N 
ATOM     10  H   UNL     1       7.617   5.350   0.136  0.00  0.00    +0.173 HD
ATOM     11  C   UNL     1       5.504   5.404   0.067  0.00  0.00    +0.266 A 
ATOM     12  O   UNL     1       5.392   4.194   0.138  0.00  0.00    -0.267 OA
BRANCH   5  13
ATOM     13  N   UNL     1       3.451   8.497  -0.196  0.00  0.00    -0.344 N 
ATOM     14  H   UNL     1       3.616   9.583  -0.262  0.00  0.00    +0.144 HD
ATOM     15  H   UNL     1       2.427   8.095  -0.203  0.00  0.00    +0.144 HD
ENDBRANCH   5  13
BRANCH   6  16
ATOM     16  C   UNL     1       6.005   9.586  -0.171  0.00  0.00    +0.131 C 
BRANCH  16  17
ATOM     17  C   UNL     1       6.125  10.002  -1.639  0.00  0.00    +0.003 C 
ATOM     18  C   UNL     1       6.226  11.526  -1.730  0.00  0.00    +0.009 C 
ATOM     19  C   UNL     1       7.379   9.371  -2.247  0.00  0.00    +0.009 C 
ENDBRANCH  16  17
ENDBRANCH   6  16
ENDBRANCH   2   4
ENDBRANCH   1   2
BRANCH   1  20
ATOM     20  S   UNL     1       1.067   3.822  -0.070  0.00  0.00    -0.080 S 
BRANCH  20  30
ATOM     21  N   UNL     1      -0.011   1.338  -0.138  0.00  0.00    -0.287 N 
ATOM     22  C   UNL     1       0.008  -0.007  -0.179  0.00  0.00    +0.263 A 
ATOM     23  O   UNL     1      -1.034  -0.639  -0.190  0.00  0.00    -0.267 OA
ATOM     24  C   UNL     1       1.267  -0.685  -0.210  0.00  0.00    +0.075 A 
ATOM     25  C   UNL     1       1.543  -2.110  -0.255  0.00  0.00    -0.026 A 
ATOM     26  C   UNL     1       2.817  -2.530  -0.278  0.00  0.00    -0.008 A 
ATOM     27  S   UNL     1       3.754  -1.014  -0.239  0.00  0.00    -0.073 S 
ATOM     28  C   UNL     1       2.408   0.141  -0.194  0.00  0.00    +0.117 A 
ATOM     29  N   UNL     1       2.318   1.464  -0.153  0.00  0.00    -0.216 NA
ATOM     30  C   UNL     1       1.145   2.063  -0.124  0.00  0.00    +0.173 A 
ATOM     31  C   UNL     1       3.332  -3.946  -0.325  0.00  0.00    +0.052 C 
ATOM     32  C   UNL     1       0.412  -3.106  -0.277  0.00  0.00    +0.045 C 
BRANCH  21  33
ATOM     33  C   UNL     1      -1.298   2.038  -0.112  0.00  0.00    +0.127 C 
BRANCH  33  34
ATOM     34  C   UNL     1      -1.742   2.237   1.339  0.00  0.00    +0.021 C 
BRANCH  34  36
ATOM     35  C   UNL     1      -3.529   3.167   2.816  0.00  0.00    +0.004 C 
ATOM     36  C   UNL     1      -3.086   2.968   1.366  0.00  0.00    -0.002 C 
ENDBRANCH  34  36
ENDBRANCH  33  34
ENDBRANCH  21  33
ENDBRANCH  20  30
ENDBRANCH   1  20
TORSDOF 10
