REMARK  Name = ZINC13469394
REMARK  8 active torsions:
REMARK  status: ('A' for Active; 'I' for Inactive)
REMARK    1  A    between atoms: C_1  and  C_2
REMARK    2  A    between atoms: C_2  and  O_3
REMARK    3  A    between atoms: O_3  and  C_4
REMARK    4  A    between atoms: C_4  and  C_6
REMARK    5  A    between atoms: C_10  and  N_11
REMARK    6  A    between atoms: C_12  and  C_14
REMARK    7  A    between atoms: C_14  and  C_15
REMARK    8  A    between atoms: C_15  and  C_22
REMARK                            x       y       z     vdW  Elec       q    Type
REMARK                         _______ _______ _______ _____ _____    ______ ____
ROOT
ATOM      1  C   UNL     1      -6.230   7.826   0.433  0.00  0.00    +0.092 A 
ATOM      2  C   UNL     1      -7.217   8.019   1.489  0.00  0.00    -0.009 A 
ATOM      3  C   UNL     1      -7.134   7.129   2.499  0.00  0.00    +0.082 A 
ATOM      4  S   UNL     1      -5.794   6.057   2.077  0.00  0.00    -0.064 S 
ATOM      5  C   UNL     1      -5.336   6.773   0.567  0.00  0.00    +0.087 A 
ATOM      6  S   UNL     1      -8.164   7.067   3.922  0.00  0.00    +0.061 S 
ATOM      7  O   UNL     1      -9.051   5.988   3.658  0.00  0.00    -0.252 OA
ATOM      8  C   UNL     1      -9.069   8.646   3.786  0.00  0.00    +0.110 C 
ATOM      9  C   UNL     1      -9.463   8.812   2.312  0.00  0.00    +0.018 C 
ATOM     10  C   UNL     1      -8.246   9.136   1.460  0.00  0.00    +0.038 C 
ENDROOT
BRANCH   5  11
ATOM     11  N   UNL     1      -4.320   6.390  -0.295  0.00  0.00    -0.279 N 
ATOM     12  C   UNL     1      -3.541   5.333   0.009  0.00  0.00    +0.219 C 
ATOM     13  O   UNL     1      -3.730   4.716   1.036  0.00  0.00    -0.275 OA
ATOM     14  H   UNL     1      -4.169   6.883  -1.117  0.00  0.00    +0.155 HD
BRANCH  12  15
ATOM     15  C   UNL     1      -2.437   4.917  -0.928  0.00  0.00    +0.114 C 
BRANCH  15  16
ATOM     16  C   UNL     1      -1.792   3.627  -0.416  0.00  0.00    +0.080 C 
ATOM     17  C   UNL     1      -0.784   3.152  -1.427  0.00  0.00    +0.019 C 
ATOM     18  C   UNL     1      -0.791   1.609  -1.438  0.00  0.00    +0.001 C 
ATOM     19  C   UNL     1      -0.024   1.043  -0.339  0.00  0.00    +0.000 C 
ATOM     20  C   UNL     1      -0.600   1.431   1.038  0.00  0.00    +0.000 C 
ATOM     21  C   UNL     1      -0.137   2.824   1.373  0.00  0.00    +0.001 C 
ATOM     22  C   UNL     1      -1.162   3.898   0.963  0.00  0.00    +0.019 C 
BRANCH  16  23
ATOM     23  C   UNL     1      -2.861   2.576  -0.263  0.00  0.00    +0.362 C 
ATOM     24  O   UNL     1      -3.198   2.212   0.840  0.00  0.00    -0.246 OA
ATOM     25  O   UNL     1      -3.440   2.043  -1.350  0.00  0.00    -0.246 OA
ENDBRANCH  16  23
ENDBRANCH  15  16
ENDBRANCH  12  15
ENDBRANCH   5  11
BRANCH   1  26
ATOM     26  C   UNL     1      -6.186   8.711  -0.733  0.00  0.00    +0.342 C 
ATOM     27  O   UNL     1      -6.839   8.445  -1.724  0.00  0.00    -0.245 OA
BRANCH  26  28
ATOM     28  O   UNL     1      -5.421   9.822  -0.707  0.00  0.00    -0.461 OA
BRANCH  28  30
ATOM     29  C   UNL     1      -4.507  11.858  -1.682  0.00  0.00    +0.048 C 
ATOM     30  C   UNL     1      -5.426  10.653  -1.898  0.00  0.00    +0.229 C 
ENDBRANCH  28  30
ENDBRANCH  26  28
ENDBRANCH   1  26
TORSDOF 7
