REMARK  Name = ZINC01213436
REMARK  4 active torsions:
REMARK  status: ('A' for Active; 'I' for Inactive)
REMARK    1  A    between atoms: C_4  and  C_7
REMARK    2  A    between atoms: C_8  and  C_9
REMARK    3  A    between atoms: N_11  and  C_12
REMARK    4  A    between atoms: C_12  and  N_14
REMARK                            x       y       z     vdW  Elec       q    Type
REMARK                         _______ _______ _______ _____ _____    ______ ____
ROOT
ATOM      1  C   UNL     1      -2.355   1.677   0.035  0.00  0.00    +0.242 C 
ATOM      2  O   UNL     1      -2.339   0.460   0.027  0.00  0.00    -0.270 OA
ATOM      3  N   UNL     1      -1.197   2.366   0.029  0.00  0.00    -0.264 N 
ATOM      4  H   UNL     1      -1.210   3.336   0.035  0.00  0.00    +0.157 HD
ENDROOT
BRANCH   1   6
ATOM      5  C   UNL     1      -4.791   1.702   0.055  0.00  0.00    +0.013 C 
ATOM      6  C   UNL     1      -3.632   2.391   0.050  0.00  0.00    +0.068 C 
BRANCH   5  10
ATOM      7  C   UNL     1      -8.492   3.773   0.099  0.00  0.00    +0.000 A 
ATOM      8  C   UNL     1      -8.478   2.389   0.090  0.00  0.00    +0.001 A 
ATOM      9  C   UNL     1      -7.279   1.708   0.076  0.00  0.00    +0.008 A 
ATOM     10  C   UNL     1      -6.075   2.420   0.070  0.00  0.00    -0.025 A 
ATOM     11  C   UNL     1      -6.098   3.818   0.085  0.00  0.00    +0.008 A 
ATOM     12  C   UNL     1      -7.305   4.485   0.093  0.00  0.00    +0.001 A 
ENDBRANCH   5  10
ENDBRANCH   1   6
BRANCH   3  13
ATOM     13  C   UNL     1      -0.021   1.708   0.015  0.00  0.00    +0.142 C 
ATOM     14  S   UNL     1       0.002  -0.004   0.005  0.00  0.00    -0.018 S 
BRANCH  13  15
ATOM     15  N   UNL     1       1.137   2.397   0.004  0.00  0.00    -0.282 N 
ATOM     16  C   UNL     1       2.352   1.720   0.094  0.00  0.00    +0.124 A 
ATOM     17  C   UNL     1       3.537   2.442   0.191  0.00  0.00    +0.045 A 
ATOM     18  C   UNL     1       4.735   1.758   0.285  0.00  0.00    +0.020 A 
ATOM     19  C   UNL     1       4.708   0.369   0.268  0.00  0.00    +0.036 A 
ATOM     20  C   UNL     1       3.495  -0.283   0.164  0.00  0.00    +0.128 A 
ATOM     21  N   UNL     1       2.367   0.397   0.081  0.00  0.00    -0.239 NA
ATOM     22 BR   UNL     1       6.316  -0.619   0.387  0.00  0.00    -0.049 Br
ATOM     23  H   UNL     1       1.125   3.365  -0.067  0.00  0.00    +0.155 HD
ENDBRANCH  13  15
ENDBRANCH   3  13
TORSDOF 4
