REMARK  Name = ZINC39730732
REMARK  10 active torsions:
REMARK  status: ('A' for Active; 'I' for Inactive)
REMARK    1  A    between atoms: C_1  and  C_2
REMARK    2  A    between atoms: C_5  and  C_7
REMARK    3  A    between atoms: C_7  and  C_8
REMARK    4  A    between atoms: N_10  and  N_11
REMARK    5  A    between atoms: C_12  and  C_14
REMARK    6  A    between atoms: C_14  and  C_16
REMARK    7  A    between atoms: C_14  and  S_17
REMARK    8  A    between atoms: S_17  and  C_18
REMARK    9  A    between atoms: C_18  and  C_19
REMARK   10  A    between atoms: C_24  and  C_29
REMARK                            x       y       z     vdW  Elec       q    Type
REMARK                         _______ _______ _______ _____ _____    ______ ____
ROOT
ATOM      1  S   UNL     1       0.742 -10.996   0.029  0.00  0.00    -0.141 S 
ENDROOT
BRANCH   1   2
ATOM      2  C   UNL     1       0.132  -9.485  -0.768  0.00  0.00    +0.131 C 
ATOM      3  C   UNL     1      -1.287  -9.719  -1.289  0.00  0.00    +0.029 C 
BRANCH   2   5
ATOM      4  N   UNL     1       0.101  -7.080  -0.191  0.00  0.00    -0.233 N 
ATOM      5  C   UNL     1       0.120  -8.358   0.233  0.00  0.00    +0.242 C 
ATOM      6  O   UNL     1       0.128  -8.603   1.421  0.00  0.00    -0.273 OA
ATOM      7  H   UNL     1       0.094  -6.884  -1.141  0.00  0.00    +0.173 HD
BRANCH   4  10
ATOM      8  C   UNL     1       0.070  -4.754   0.315  0.00  0.00    +0.235 C 
ATOM      9  O   UNL     1       0.062  -4.509  -0.873  0.00  0.00    -0.274 OA
ATOM     10  N   UNL     1       0.090  -6.033   0.740  0.00  0.00    -0.234 N 
ATOM     11  H   UNL     1       0.096  -6.228   1.690  0.00  0.00    +0.173 HD
BRANCH   8  12
ATOM     12  C   UNL     1       0.058  -3.627   1.317  0.00  0.00    +0.150 C 
BRANCH  12  17
ATOM     13  C   UNL     1      -0.018   1.503   0.010  0.00  0.00    +0.063 C 
ATOM     14  C   UNL     1       0.002  -0.004   0.002  0.00  0.00    +0.044 C 
ATOM     15  N   UNL     1       0.009  -0.777  -1.034  0.00  0.00    -0.159 NA
ATOM     16  N   UNL     1       0.029  -2.125  -0.690  0.00  0.00    -0.158 NA
ATOM     17  C   UNL     1       0.036  -2.308   0.589  0.00  0.00    +0.055 C 
ATOM     18  C   UNL     1       0.026  -0.924   1.207  0.00  0.00    +0.105 C 
ENDBRANCH  12  17
ENDBRANCH   8  12
ENDBRANCH   4  10
ENDBRANCH   2   5
ENDBRANCH   1   2
BRANCH   1  19
ATOM     19  C   UNL     1       0.839 -12.198  -1.327  0.00  0.00    +0.143 C 
BRANCH  19  20
ATOM     20  C   UNL     1       1.339 -13.516  -0.794  0.00  0.00    +0.133 C 
ATOM     21  N   UNL     1       1.610 -13.608   0.486  0.00  0.00    -0.160 NA
ATOM     22  C   UNL     1       2.058 -14.735   1.050  0.00  0.00    +0.272 C 
ATOM     23  O   UNL     1       2.300 -14.787   2.245  0.00  0.00    -0.268 OA
ATOM     24  C   UNL     1       2.251 -15.926   0.173  0.00  0.00    +0.075 C 
ATOM     25  C   UNL     1       2.695 -17.179   0.521  0.00  0.00    -0.015 C 
ATOM     26  C   UNL     1       2.794 -18.206  -0.584  0.00  0.00    +0.112 C 
ATOM     27  S   UNL     1       2.227 -17.247  -2.045  0.00  0.00    -0.100 S 
ATOM     28  C   UNL     1       1.913 -15.697  -1.240  0.00  0.00    +0.112 C 
ATOM     29  N   UNL     1       1.477 -14.523  -1.640  0.00  0.00    -0.227 NA
BRANCH  25  30
ATOM     30  C   UNL     1       3.056 -17.505   1.901  0.00  0.00    -0.020 A 
ATOM     31  C   UNL     1       4.144 -16.868   2.515  0.00  0.00    +0.008 A 
ATOM     32  C   UNL     1       4.476 -17.181   3.815  0.00  0.00    +0.001 A 
ATOM     33  C   UNL     1       3.739 -18.122   4.515  0.00  0.00    +0.000 A 
ATOM     34  C   UNL     1       2.663 -18.756   3.918  0.00  0.00    +0.001 A 
ATOM     35  C   UNL     1       2.312 -18.452   2.621  0.00  0.00    +0.008 A 
ENDBRANCH  25  30
ENDBRANCH  19  20
ENDBRANCH   1  19
TORSDOF 8
