REMARK  Name = ZINC39695990
REMARK  7 active torsions:
REMARK  status: ('A' for Active; 'I' for Inactive)
REMARK    1  A    between atoms: C_1  and  C_2
REMARK    2  A    between atoms: C_2  and  C_3
REMARK    3  A    between atoms: C_6  and  C_9
REMARK    4  A    between atoms: C_9  and  C_11
REMARK    5  A    between atoms: C_9  and  N_12
REMARK    6  A    between atoms: C_13  and  C_15
REMARK    7  A    between atoms: C_26  and  C_28
REMARK                            x       y       z     vdW  Elec       q    Type
REMARK                         _______ _______ _______ _____ _____    ______ ____
ROOT
ATOM      1  C   UNL     1       1.992  -4.374   7.185  0.00  0.00    +0.100 C 
ATOM      2  C   UNL     1       0.869  -3.971   8.166  0.00  0.00    +0.121 C 
ATOM      3  N   UNL     1       0.879  -5.031   9.202  0.00  0.00    -0.296 N 
ATOM      4  C   UNL     1       2.317  -5.319   9.420  0.00  0.00    +0.115 C 
ATOM      5  C   UNL     1       2.941  -5.258   8.012  0.00  0.00    -0.004 C 
ATOM      6  C   UNL     1       4.328  -4.627   8.077  0.00  0.00    -0.010 C 
ATOM      7  C   UNL     1       5.269  -5.552   8.855  0.00  0.00    -0.082 C 
ATOM      8  N   UNL     1       5.335  -6.858   8.188  0.00  0.00    +0.379 N 
ATOM      9  C   UNL     1       4.014  -7.499   8.212  0.00  0.00    -0.082 C 
ATOM     10  C   UNL     1       3.021  -6.656   7.408  0.00  0.00    -0.010 C 
ATOM     11  C   UNL     1      -0.180  -5.604   9.809  0.00  0.00    +0.247 C 
ATOM     12  O   UNL     1      -1.307  -5.352   9.430  0.00  0.00    -0.270 OA
ATOM     13  H   UNL     1       5.628  -6.731   7.231  0.00  0.00    -0.086 HD
ATOM     14  H   UNL     1       6.001  -7.445   8.667  0.00  0.00    -0.086 HD
ENDROOT
BRANCH  11  15
ATOM     15  C   UNL     1       0.030  -6.538  10.935  0.00  0.00    +0.040 A 
ATOM     16  C   UNL     1       1.227  -6.513  11.653  0.00  0.00    +0.033 A 
ATOM     17  C   UNL     1       1.417  -7.388  12.704  0.00  0.00    +0.043 A 
ATOM     18  C   UNL     1       0.424  -8.290  13.046  0.00  0.00    +0.040 A 
ATOM     19  C   UNL     1      -0.766  -8.319  12.338  0.00  0.00    +0.043 A 
ATOM     20  C   UNL     1      -0.970  -7.445  11.289  0.00  0.00    +0.033 A 
ATOM     21 CL   UNL     1      -2.005  -9.454  12.774  0.00  0.00    -0.083 Cl
ATOM     22 CL   UNL     1       2.906  -7.359  13.597  0.00  0.00    -0.083 Cl
ENDBRANCH  11  15
BRANCH   1  24
ATOM     23  N   UNL     1       3.269  -3.148   5.457  0.00  0.00    -0.308 N 
ATOM     24  C   UNL     1       2.716  -3.150   6.686  0.00  0.00    +0.219 C 
ATOM     25  O   UNL     1       2.802  -2.167   7.391  0.00  0.00    -0.275 OA
ATOM     26  H   UNL     1       3.200  -3.935   4.893  0.00  0.00    +0.149 HD
BRANCH  23  27
ATOM     27  C   UNL     1       3.973  -1.959   4.972  0.00  0.00    +0.100 C 
ATOM     28  C   UNL     1       2.965  -0.983   4.360  0.00  0.00    +0.033 C 
BRANCH  27  32
ATOM     29  C   UNL     1       6.827  -3.104   2.008  0.00  0.00    -0.048 A 
ATOM     30  C   UNL     1       7.148  -2.133   2.938  0.00  0.00    +0.004 A 
ATOM     31  C   UNL     1       6.224  -1.762   3.897  0.00  0.00    +0.006 A 
ATOM     32  C   UNL     1       4.979  -2.362   3.925  0.00  0.00    -0.027 A 
ATOM     33  C   UNL     1       4.658  -3.333   2.995  0.00  0.00    +0.006 A 
ATOM     34  C   UNL     1       5.580  -3.700   2.033  0.00  0.00    +0.004 A 
BRANCH  29  36
ATOM     35  C   UNL     1       7.669  -2.624  -0.275  0.00  0.00    +0.009 C 
ATOM     36  C   UNL     1       7.835  -3.509   0.962  0.00  0.00    +0.032 C 
ENDBRANCH  29  36
ENDBRANCH  27  32
ENDBRANCH  23  27
ENDBRANCH   1  24
TORSDOF 5
