REMARK  Name = ZINC64986552
REMARK  4 active torsions:
REMARK  status: ('A' for Active; 'I' for Inactive)
REMARK    1  A    between atoms: C_12  and  S_25
REMARK    2  A    between atoms: C_13  and  O_17
REMARK    3  A    between atoms: O_17  and  C_18
REMARK    4  A    between atoms: S_25  and  N_28
REMARK                            x       y       z     vdW  Elec       q    Type
REMARK                         _______ _______ _______ _____ _____    ______ ____
ROOT
ATOM      1  C   UNL     1       1.190   0.201  -1.951  0.00  0.00    +0.002 A 
ATOM      2  C   UNL     1       2.375   0.907  -1.853  0.00  0.00    +0.004 A 
ATOM      3  C   UNL     1       3.518   0.277  -1.400  0.00  0.00    +0.048 A 
ATOM      4  C   UNL     1       3.485  -1.066  -1.050  0.00  0.00    +0.150 A 
ATOM      5  C   UNL     1       2.300  -1.782  -1.168  0.00  0.00    +0.076 A 
ATOM      6  C   UNL     1       1.150  -1.136  -1.609  0.00  0.00    +0.027 A 
ATOM      7  N   UNL     1       2.241  -3.147  -0.889  0.00  0.00    -0.278 N 
ATOM      8  C   UNL     1       2.858  -3.770   0.105  0.00  0.00    +0.252 C 
ATOM      9  O   UNL     1       2.680  -4.968   0.213  0.00  0.00    -0.270 OA
ATOM     10  C   UNL     1       3.738  -3.125   1.085  0.00  0.00    +0.081 A 
ATOM     11  C   UNL     1       3.704  -3.533   2.424  0.00  0.00    +0.049 A 
ATOM     12  C   UNL     1       4.549  -2.955   3.343  0.00  0.00    +0.148 A 
ATOM     13  C   UNL     1       5.444  -1.966   2.946  0.00  0.00    +0.158 A 
ATOM     14  C   UNL     1       5.478  -1.546   1.624  0.00  0.00    +0.095 A 
ATOM     15  C   UNL     1       4.619  -2.109   0.694  0.00  0.00    +0.144 A 
ATOM     16  O   UNL     1       4.614  -1.649  -0.578  0.00  0.00    -0.453 OA
ATOM     17  H   UNL     1       1.697  -3.692  -1.479  0.00  0.00    +0.155 HD
ENDROOT
BRANCH  12  18
ATOM     18  S   UNL     1       4.498  -3.470   5.027  0.00  0.00    +0.064 S 
ATOM     19  O   UNL     1       4.431  -2.286   5.811  0.00  0.00    -0.153 OA
ATOM     20  O   UNL     1       3.517  -4.495   5.110  0.00  0.00    -0.153 OA
BRANCH  18  21
ATOM     21  N   UNL     1       5.955  -4.180   5.367  0.00  0.00    -0.176 NA
ATOM     22  C   UNL     1       6.272  -5.606   5.199  0.00  0.00    +0.109 C 
ATOM     23  C   UNL     1       7.730  -5.808   5.663  0.00  0.00    +0.018 C 
ATOM     24  C   UNL     1       7.970  -4.591   6.596  0.00  0.00    +0.018 C 
ATOM     25  C   UNL     1       7.150  -3.486   5.880  0.00  0.00    +0.109 C 
ENDBRANCH  18  21
ENDBRANCH  12  18
BRANCH  13  26
ATOM     26  O   UNL     1       6.285  -1.411   3.855  0.00  0.00    -0.454 OA
BRANCH  26  27
ATOM     27  C   UNL     1       7.095  -0.402   3.441  0.00  0.00    +0.129 A 
ATOM     28  C   UNL     1       6.665   0.915   3.528  0.00  0.00    +0.048 A 
ATOM     29  C   UNL     1       7.489   1.939   3.107  0.00  0.00    +0.023 A 
ATOM     30  C   UNL     1       8.744   1.654   2.598  0.00  0.00    +0.041 A 
ATOM     31  C   UNL     1       9.175   0.342   2.509  0.00  0.00    +0.023 A 
ATOM     32  C   UNL     1       8.356  -0.685   2.935  0.00  0.00    +0.048 A 
ATOM     33 CL   UNL     1       9.779   2.944   2.069  0.00  0.00    -0.084 Cl
ENDBRANCH  26  27
ENDBRANCH  13  26
TORSDOF 4
