REMARK  Name = ZINC21247472
REMARK  9 active torsions:
REMARK  status: ('A' for Active; 'I' for Inactive)
REMARK    1  A    between atoms: C_1  and  C_2
REMARK    2  A    between atoms: C_2  and  C_3
REMARK    3  A    between atoms: C_3  and  O_4
REMARK    4  A    between atoms: O_4  and  C_5
REMARK    5  A    between atoms: C_8  and  C_11
REMARK    6  A    between atoms: C_16  and  C_22
REMARK    7  A    between atoms: C_24  and  O_30
REMARK    8  A    between atoms: C_25  and  O_29
REMARK    9  A    between atoms: O_30  and  C_31
REMARK                            x       y       z     vdW  Elec       q    Type
REMARK                         _______ _______ _______ _____ _____    ______ ____
ROOT
ATOM      1  C   UNL     1      -8.072   0.542  -2.477  0.00  0.00    +0.032 C 
ATOM      2  C   UNL     1      -8.164   0.469  -0.951  0.00  0.00    +0.059 C 
ATOM      3  C   UNL     1      -6.956  -0.250  -0.405  0.00  0.00    +0.018 C 
ATOM      4  C   UNL     1      -5.766  -0.184  -1.038  0.00  0.00    +0.020 C 
ATOM      5  C   UNL     1      -4.567  -0.903  -0.466  0.00  0.00    +0.063 C 
ATOM      6  C   UNL     1      -5.023  -2.210   0.186  0.00  0.00    +0.109 C 
ATOM      7  C   UNL     1      -6.202  -1.929   1.082  0.00  0.00    +0.218 C 
ATOM      8  O   UNL     1      -6.352  -2.569   2.101  0.00  0.00    -0.275 OA
ATOM      9  N   UNL     1      -7.087  -0.972   0.754  0.00  0.00    -0.289 N 
ATOM     10  C   UNL     1      -5.612   0.542  -2.231  0.00  0.00    +0.162 C 
ATOM     11  O   UNL     1      -4.523   0.587  -2.767  0.00  0.00    -0.292 OA
ATOM     12  C   UNL     1      -6.775   1.266  -2.854  0.00  0.00    +0.088 C 
ATOM     13  H   UNL     1      -7.928  -0.772   1.435  0.00  0.00    +0.155 HD
ENDROOT
BRANCH   5  14
ATOM     14  C   UNL     1      -3.904  -0.030   0.568  0.00  0.00    -0.034 A 
ATOM     15  C   UNL     1      -2.590   0.365   0.396  0.00  0.00    +0.053 A 
ATOM     16  C   UNL     1      -1.976   1.163   1.348  0.00  0.00    +0.163 A 
ATOM     17  C   UNL     1      -2.688   1.575   2.470  0.00  0.00    +0.177 A 
ATOM     18  C   UNL     1      -4.007   1.181   2.634  0.00  0.00    +0.086 A 
ATOM     19  C   UNL     1      -4.612   0.380   1.682  0.00  0.00    +0.028 A 
ATOM     20 CL   UNL     1      -4.899   1.692   4.032  0.00  0.00    -0.080 Cl
BRANCH  17  21
ATOM     21  O   UNL     1      -2.091   2.362   3.405  0.00  0.00    -0.502 OA
ATOM     22  H   UNL     1      -2.655   2.688   4.292  0.00  0.00    +0.292 HD
ENDBRANCH  17  21
BRANCH  16  23
ATOM     23  O   UNL     1      -0.682   1.547   1.184  0.00  0.00    -0.491 OA
ATOM     24  C   UNL     1      -0.013   1.086   0.008  0.00  0.00    +0.277 C 
ENDBRANCH  16  23
ENDBRANCH   5  14
BRANCH   1  28
ATOM     25  C   UNL     1     -11.422   2.704  -4.014  0.00  0.00    +0.121 A 
ATOM     26  C   UNL     1     -11.209   1.388  -4.398  0.00  0.00    +0.046 A 
ATOM     27  C   UNL     1     -10.125   0.691  -3.900  0.00  0.00    +0.007 A 
ATOM     28  C   UNL     1      -9.253   1.304  -3.019  0.00  0.00    -0.043 A 
ATOM     29  C   UNL     1      -9.466   2.614  -2.631  0.00  0.00    +0.007 A 
ATOM     30  C   UNL     1     -10.546   3.317  -3.131  0.00  0.00    +0.046 A 
BRANCH  25  31
ATOM     31  O   UNL     1     -12.488   3.391  -4.502  0.00  0.00    -0.492 OA
BRANCH  31  32
ATOM     32  C   UNL     1     -12.645   4.742  -4.064  0.00  0.00    +0.229 C 
BRANCH  32  34
ATOM     33  C   UNL     1     -14.058   6.795  -4.245  0.00  0.00    +0.007 C 
ATOM     34  C   UNL     1     -13.890   5.348  -4.715  0.00  0.00    +0.038 C 
ENDBRANCH  32  34
ENDBRANCH  31  32
ENDBRANCH  25  31
ENDBRANCH   1  28
TORSDOF 7
