REMARK  Name = ZINC43730039
REMARK  2 active torsions:
REMARK  status: ('A' for Active; 'I' for Inactive)
REMARK    1  A    between atoms: C_8  and  C_27
REMARK    2  A    between atoms: C_27  and  C_29
REMARK                            x       y       z     vdW  Elec       q    Type
REMARK                         _______ _______ _______ _____ _____    ______ ____
ROOT
ATOM      1  C   UNL     1      -0.080   1.375   0.011  0.00  0.00    +0.000 A 
ATOM      2  C   UNL     1       1.102   2.093   0.018  0.00  0.00    +0.002 A 
ATOM      3  C   UNL     1       2.315   1.438   0.016  0.00  0.00    +0.023 A 
ATOM      4  C   UNL     1       2.360   0.046   0.006  0.00  0.00    +0.038 A 
ATOM      5  C   UNL     1       1.165  -0.667   0.000  0.00  0.00    -0.011 A 
ATOM      6  C   UNL     1      -0.045  -0.009   0.002  0.00  0.00    +0.006 A 
ATOM      7  C   UNL     1       1.552  -2.119  -0.006  0.00  0.00    +0.085 C 
ATOM      8  C   UNL     1       0.997  -2.842  -1.242  0.00  0.00    +0.066 C 
ATOM      9  C   UNL     1       0.132  -3.989  -0.680  0.00  0.00    -0.055 C 
ATOM     10  C   UNL     1       0.443  -5.282  -1.456  0.00  0.00    -0.016 C 
ATOM     11  C   UNL     1       1.580  -5.969  -0.675  0.00  0.00    -0.020 C 
ATOM     12  C   UNL     1       1.890  -5.022   0.502  0.00  0.00    -0.076 C 
ATOM     13  N   UNL     1       0.635  -4.213   0.711  0.00  0.00    +0.395 N 
ATOM     14  C   UNL     1       0.985  -2.865   1.198  0.00  0.00    +0.060 C 
ATOM     15  C   UNL     1       1.970  -2.930   2.331  0.00  0.00    -0.025 A 
ATOM     16  C   UNL     1       3.244  -3.440   2.451  0.00  0.00    +0.024 A 
ATOM     17  C   UNL     1       3.916  -3.347   3.658  0.00  0.00    +0.041 A 
ATOM     18  C   UNL     1       3.305  -2.741   4.742  0.00  0.00    +0.022 A 
ATOM     19  C   UNL     1       2.030  -2.228   4.625  0.00  0.00    +0.025 A 
ATOM     20  C   UNL     1       1.347  -2.317   3.414  0.00  0.00    +0.036 A 
ATOM     21  N   UNL     1       0.070  -1.880   3.053  0.00  0.00    -0.286 N 
ATOM     22  C   UNL     1      -0.219  -2.165   1.769  0.00  0.00    +0.212 C 
ATOM     23  O   UNL     1      -1.251  -1.906   1.185  0.00  0.00    -0.277 OA
ATOM     24 CL   UNL     1       5.521  -3.991   3.811  0.00  0.00    -0.084 Cl
ATOM     25  C   UNL     1       3.057  -2.122  -0.005  0.00  0.00    +0.228 C 
ATOM     26  O   UNL     1       3.779  -3.096  -0.010  0.00  0.00    -0.275 OA
ATOM     27  N   UNL     1       3.446  -0.832   0.001  0.00  0.00    -0.285 N 
ATOM     28  H   UNL     1      -0.537  -1.425   3.657  0.00  0.00    +0.155 HD
ATOM     29  H   UNL     1       4.373  -0.547   0.002  0.00  0.00    +0.155 HD
ATOM     30  H   UNL     1      -0.039  -4.682   1.297  0.00  0.00    -0.079 HD
ENDROOT
BRANCH   8  31
ATOM     31  C   UNL     1       0.154  -1.901  -2.064  0.00  0.00    +0.166 C 
ATOM     32  O   UNL     1      -1.048  -1.866  -1.902  0.00  0.00    -0.292 OA
BRANCH  31  33
ATOM     33  C   UNL     1       0.788  -1.027  -3.062  0.00  0.00    +0.018 A 
ATOM     34  C   UNL     1       2.154  -1.150  -3.338  0.00  0.00    +0.013 A 
ATOM     35  C   UNL     1       2.741  -0.327  -4.275  0.00  0.00    +0.020 A 
ATOM     36  C   UNL     1       1.982   0.621  -4.942  0.00  0.00    +0.041 A 
ATOM     37  C   UNL     1       0.628   0.749  -4.674  0.00  0.00    +0.020 A 
ATOM     38  C   UNL     1       0.026  -0.071  -3.744  0.00  0.00    +0.013 A 
ATOM     39 CL   UNL     1       2.730   1.654  -6.120  0.00  0.00    -0.084 Cl
ENDBRANCH  31  33
ENDBRANCH   8  31
TORSDOF 2
