REMARK  Name = ZINC04947793
REMARK  3 active torsions:
REMARK  status: ('A' for Active; 'I' for Inactive)
REMARK    1  A    between atoms: C_1  and  C_2
REMARK    2  A    between atoms: C_14  and  C_17
REMARK    3  A    between atoms: C_18  and  C_19
REMARK                            x       y       z     vdW  Elec       q    Type
REMARK                         _______ _______ _______ _____ _____    ______ ____
ROOT
ATOM      1  C   UNL     1       1.367   0.324   1.580  0.00  0.00    +0.008 C 
ATOM      2  C   UNL     1       0.613   1.140   0.529  0.00  0.00    -0.009 C 
ATOM      3  C   UNL     1      -0.893   0.886   0.662  0.00  0.00    +0.008 C 
ATOM      4  C   UNL     1      -1.667   1.875  -0.210  0.00  0.00    +0.037 C 
ATOM      5  C   UNL     1      -1.111   1.819  -1.629  0.00  0.00    -0.023 A 
ATOM      6  C   UNL     1       0.108   1.291  -1.875  0.00  0.00    -0.004 A 
ATOM      7  S   UNL     1       0.325   1.435  -3.629  0.00  0.00    -0.078 S 
ATOM      8  C   UNL     1      -1.167   2.178  -4.022  0.00  0.00    +0.080 A 
ATOM      9  C   UNL     1      -1.829   2.314  -2.793  0.00  0.00    +0.068 A 
ATOM     10  C   UNL     1      -3.171   2.939  -2.802  0.00  0.00    +0.248 C 
ATOM     11  O   UNL     1      -3.853   2.991  -1.795  0.00  0.00    -0.270 OA
ATOM     12  N   UNL     1      -3.606   3.451  -3.973  0.00  0.00    -0.289 N 
ATOM     13  C   UNL     1      -2.748   3.634  -5.139  0.00  0.00    +0.197 C 
ATOM     14  N   UNL     1      -1.712   2.588  -5.212  0.00  0.00    -0.316 N 
ATOM     15  C   UNL     1       1.062   0.712  -0.876  0.00  0.00    +0.046 C 
ATOM     16  H   UNL     1      -4.538   3.710  -4.042  0.00  0.00    +0.151 HD
ATOM     17  H   UNL     1      -1.429   2.210  -6.059  0.00  0.00    +0.149 HD
ENDROOT
BRANCH  13  18
ATOM     18  C   UNL     1      -2.083   4.984  -5.055  0.00  0.00    +0.034 C 
ATOM     19  C   UNL     1      -2.310   5.895  -5.993  0.00  0.00    +0.022 C 
ATOM     20 BR   UNL     1      -0.924   5.378  -3.614  0.00  0.00    -0.051 Br
BRANCH  19  21
ATOM     21  C   UNL     1      -1.797   7.271  -5.825  0.00  0.00    -0.024 A 
ATOM     22  C   UNL     1      -1.766   7.858  -4.560  0.00  0.00    +0.008 A 
ATOM     23  C   UNL     1      -1.281   9.141  -4.410  0.00  0.00    +0.001 A 
ATOM     24  C   UNL     1      -0.835   9.849  -5.512  0.00  0.00    +0.000 A 
ATOM     25  C   UNL     1      -0.868   9.274  -6.770  0.00  0.00    +0.001 A 
ATOM     26  C   UNL     1      -1.346   7.990  -6.933  0.00  0.00    +0.008 A 
ENDBRANCH  19  21
ENDBRANCH  13  18
TORSDOF 2
