REMARK  Name = ZINC01038140
REMARK  8 active torsions:
REMARK  status: ('A' for Active; 'I' for Inactive)
REMARK    1  A    between atoms: C_1  and  C_2
REMARK    2  A    between atoms: C_2  and  C_28
REMARK    3  A    between atoms: C_6  and  S_21
REMARK    4  A    between atoms: C_8  and  C_9
REMARK    5  A    between atoms: C_14  and  C_16
REMARK    6  A    between atoms: S_21  and  C_22
REMARK    7  A    between atoms: N_24  and  O_25
REMARK    8  A    between atoms: O_25  and  C_26
REMARK                            x       y       z     vdW  Elec       q    Type
REMARK                         _______ _______ _______ _____ _____    ______ ____
ROOT
ATOM      1  C   UNL     1       0.745   7.788   1.954  0.00  0.00    +0.011 C 
ATOM      2  C   UNL     1       0.432   7.602   0.468  0.00  0.00    -0.025 C 
ATOM      3  C   UNL     1       0.913   6.224   0.018  0.00  0.00    +0.043 C 
ATOM      4  C   UNL     1       2.435   6.156   0.115  0.00  0.00    -0.020 A 
ATOM      5  C   UNL     1       3.234   7.322   0.117  0.00  0.00    +0.024 A 
ATOM      6  C   UNL     1       4.619   7.160   0.210  0.00  0.00    +0.055 A 
ATOM      7  S   UNL     1       4.795   5.389   0.300  0.00  0.00    -0.079 S 
ATOM      8  C   UNL     1       3.074   4.947   0.203  0.00  0.00    +0.044 A 
ATOM      9  C   UNL     1       2.608   8.675   0.023  0.00  0.00    +0.090 C 
ATOM     10  N   UNL     1       3.281   9.763   0.237  0.00  0.00    -0.089 NA
ATOM     11  C   UNL     1       1.136   8.697  -0.340  0.00  0.00    +0.066 C 
ATOM     12  C   UNL     1      -1.079   7.704   0.251  0.00  0.00    +0.011 C 
ENDROOT
BRANCH   8  13
ATOM     13  C   UNL     1       2.476   3.597   0.219  0.00  0.00    +0.100 A 
ATOM     14  C   UNL     1       3.183   2.376   0.312  0.00  0.00    +0.050 A 
ATOM     15  C   UNL     1       2.282   1.374   0.301  0.00  0.00    +0.118 A 
ATOM     16  N   UNL     1       1.041   1.927   0.195  0.00  0.00    -0.203 N 
ATOM     17  N   UNL     1       1.190   3.319   0.149  0.00  0.00    -0.163 NA
ATOM     18  C   UNL     1      -0.125   1.253   0.149  0.00  0.00    +0.285 C 
ATOM     19  O   UNL     1      -0.128   0.038   0.197  0.00  0.00    -0.265 OA
BRANCH  18  20
ATOM     20  C   UNL     1      -1.388   1.983   0.034  0.00  0.00    +0.078 A 
ATOM     21  C   UNL     1      -2.682   1.487  -0.034  0.00  0.00    +0.021 A 
ATOM     22  C   UNL     1      -3.697   2.404  -0.139  0.00  0.00    +0.008 A 
ATOM     23  C   UNL     1      -3.395   3.729  -0.172  0.00  0.00    +0.046 A 
ATOM     24  S   UNL     1      -1.666   3.744  -0.047  0.00  0.00    -0.092 S 
ENDBRANCH  18  20
ENDBRANCH   8  13
BRANCH   6  25
ATOM     25  S   UNL     1       5.874   8.396   0.240  0.00  0.00    -0.121 S 
ATOM     26  C   UNL     1       7.344   7.348   0.374  0.00  0.00    +0.090 C 
ENDBRANCH   6  25
BRANCH  10  27
ATOM     27  O   UNL     1       4.373   9.754   1.139  0.00  0.00    -0.397 OA
ATOM     28  C   UNL     1       5.022  11.019   1.279  0.00  0.00    +0.313 C 
ENDBRANCH  10  27
TORSDOF 4
