REMARK  Name = ZINC58104335
REMARK  3 active torsions:
REMARK  status: ('A' for Active; 'I' for Inactive)
REMARK    1  A    between atoms: C_5  and  C_7
REMARK    2  A    between atoms: C_7  and  N_8
REMARK    3  A    between atoms: C_13  and  N_19
REMARK                            x       y       z     vdW  Elec       q    Type
REMARK                         _______ _______ _______ _____ _____    ______ ____
ROOT
ATOM      1  N   UNL     1       1.606  -2.677   1.306  0.00  0.00    -0.294 N 
ATOM      2  C   UNL     1       2.919  -2.783   1.636  0.00  0.00    +0.203 A 
ATOM      3  N   UNL     1       3.333  -3.210   2.791  0.00  0.00    -0.237 NA
ATOM      4  C   UNL     1       2.465  -3.584   3.763  0.00  0.00    +0.080 A 
ATOM      5  C   UNL     1       2.909  -4.042   5.005  0.00  0.00    +0.061 A 
ATOM      6  C   UNL     1       1.992  -4.412   5.963  0.00  0.00    +0.128 A 
ATOM      7  C   UNL     1       0.628  -4.335   5.711  0.00  0.00    +0.033 A 
ATOM      8  C   UNL     1       0.166  -3.886   4.493  0.00  0.00    +0.017 A 
ATOM      9  C   UNL     1       1.077  -3.507   3.510  0.00  0.00    +0.065 A 
ATOM     10  C   UNL     1       0.642  -3.015   2.194  0.00  0.00    +0.262 A 
ATOM     11  O   UNL     1      -0.538  -2.920   1.913  0.00  0.00    -0.267 OA
ENDROOT
BRANCH   6  12
ATOM     12  N   UNL     1       2.465  -4.897   7.279  0.00  0.00    +0.056 N 
ATOM     13  O   UNL     1       3.651  -4.968   7.507  0.00  0.00    -0.126 OA
ATOM     14  O   UNL     1       1.667  -5.224   8.126  0.00  0.00    -0.126 OA
ENDBRANCH   6  12
BRANCH   1  15
ATOM     15  C   UNL     1       1.229  -2.186  -0.022  0.00  0.00    +0.162 C 
BRANCH  15  20
ATOM     16  C   UNL     1       1.340   1.388   1.190  0.00  0.00    +0.000 A 
ATOM     17  C   UNL     1       1.122   2.085   0.017  0.00  0.00    +0.001 A 
ATOM     18  C   UNL     1       0.939   1.401  -1.170  0.00  0.00    +0.015 A 
ATOM     19  C   UNL     1       0.974   0.018  -1.183  0.00  0.00    +0.023 A 
ATOM     20  C   UNL     1       1.192  -0.679  -0.009  0.00  0.00    -0.014 A 
ATOM     21  C   UNL     1       1.375   0.006   1.178  0.00  0.00    +0.006 A 
ATOM     22 BR   UNL     1       0.722  -0.920  -2.806  0.00  0.00    -0.050 Br
ENDBRANCH  15  20
ENDBRANCH   1  15
TORSDOF 3
