REMARK  Name = ZINC35679433
REMARK  7 active torsions:
REMARK  status: ('A' for Active; 'I' for Inactive)
REMARK    1  A    between atoms: C_1  and  C_2
REMARK    2  A    between atoms: C_5  and  N_9
REMARK    3  A    between atoms: N_9  and  S_10
REMARK    4  A    between atoms: S_10  and  C_13
REMARK    5  A    between atoms: C_16  and  C_18
REMARK    6  A    between atoms: C_18  and  C_19
REMARK    7  A    between atoms: C_19  and  N_20
REMARK                            x       y       z     vdW  Elec       q    Type
REMARK                         _______ _______ _______ _____ _____    ______ ____
ROOT
ATOM      1  S   UNL     1       0.200  -5.004   1.403  0.00  0.00    +0.098 S 
ATOM      2  O   UNL     1       1.446  -4.625   1.972  0.00  0.00    -0.148 OA
ATOM      3  O   UNL     1      -1.032  -4.845   2.092  0.00  0.00    -0.148 OA
ENDROOT
BRANCH   1   4
ATOM      4  C   UNL     1       0.333  -6.713   0.994  0.00  0.00    +0.148 A 
ATOM      5  C   UNL     1       1.445  -7.448   0.751  0.00  0.00    +0.037 A 
ATOM      6  C   UNL     1       1.308  -8.790   0.446  0.00  0.00    +0.013 A 
ATOM      7  C   UNL     1       0.065  -9.329   0.400  0.00  0.00    -0.010 A 
ATOM      8  S   UNL     1      -0.963  -7.926   0.801  0.00  0.00    -0.073 S 
BRANCH   7   9
ATOM      9  C   UNL     1      -0.342 -10.748   0.095  0.00  0.00    +0.023 C 
BRANCH   9  10
ATOM     10  C   UNL     1      -0.391 -11.555   1.393  0.00  0.00    -0.081 C 
BRANCH  10  11
ATOM     11  N   UNL     1      -0.788 -12.938   1.096  0.00  0.00    +0.378 N 
ATOM     12  H   UNL     1      -0.117 -13.353   0.467  0.00  0.00    -0.090 HD
ATOM     13  H   UNL     1      -0.820 -13.470   1.952  0.00  0.00    -0.090 HD
ATOM     14  H   UNL     1      -1.700 -12.940   0.664  0.00  0.00    -0.090 HD
ENDBRANCH  10  11
ENDBRANCH   9  10
ENDBRANCH   7   9
ENDBRANCH   1   4
BRANCH   1  15
ATOM     15  N   UNL     1       0.057  -4.170  -0.021  0.00  0.00    -0.095 NA
BRANCH  15  20
ATOM     16  C   UNL     1       0.564   1.480  -0.063  0.00  0.00    +0.044 C 
ATOM     17  C   UNL     1       0.429  -0.020  -0.052  0.00  0.00    -0.048 A 
ATOM     18  C   UNL     1       1.405  -0.805  -0.638  0.00  0.00    +0.020 A 
ATOM     19  C   UNL     1       1.285  -2.182  -0.630  0.00  0.00    +0.044 A 
ATOM     20  C   UNL     1       0.182  -2.777  -0.031  0.00  0.00    +0.102 A 
ATOM     21  C   UNL     1      -0.796  -1.986   0.558  0.00  0.00    +0.044 A 
ATOM     22  C   UNL     1      -0.667  -0.610   0.551  0.00  0.00    +0.020 A 
ATOM     23 BR   UNL     1      -2.300  -2.791   1.375  0.00  0.00    -0.048 Br
ATOM     24 BR   UNL     1       2.620  -3.253  -1.434  0.00  0.00    -0.048 Br
ENDBRANCH  15  20
ENDBRANCH   1  15
TORSDOF 6
