REMARK  Name = ZINC19961825
REMARK  8 active torsions:
REMARK  status: ('A' for Active; 'I' for Inactive)
REMARK    1  A    between atoms: C_1  and  C_2
REMARK    2  A    between atoms: C_2  and  C_3
REMARK    3  A    between atoms: C_8  and  N_9
REMARK    4  A    between atoms: C_10  and  C_12
REMARK    5  A    between atoms: C_12  and  C_13
REMARK    6  A    between atoms: C_21  and  C_23
REMARK    7  A    between atoms: C_23  and  N_24
REMARK    8  A    between atoms: C_30  and  C_32
REMARK                            x       y       z     vdW  Elec       q    Type
REMARK                         _______ _______ _______ _____ _____    ______ ____
ROOT
ATOM      1  C   UNL     1      -1.236   0.885   4.252  0.00  0.00    +0.170 C 
ATOM      2  C   UNL     1      -0.252   1.097   5.370  0.00  0.00    +0.234 C 
ATOM      3  O   UNL     1      -0.625   1.680   6.366  0.00  0.00    -0.274 OA
ATOM      4  N   UNL     1       1.011   0.671   5.317  0.00  0.00    -0.312 N 
ATOM      5  C   UNL     1       1.622   0.038   4.157  0.00  0.00    +0.123 C 
ATOM      6  C   UNL     1       0.550  -0.565   3.239  0.00  0.00    +0.127 C 
ATOM      7  N   UNL     1      -0.507   0.444   3.053  0.00  0.00    -0.289 N 
ATOM      8  C   UNL     1      -0.798   0.939   1.834  0.00  0.00    +0.200 C 
ATOM      9  O   UNL     1      -1.677   1.764   1.709  0.00  0.00    -0.278 OA
ATOM     10  H   UNL     1       1.601   0.828   6.233  0.00  0.00    +0.149 HD
ENDROOT
BRANCH   1  11
ATOM     11  C   UNL     1      -2.250  -0.187   4.658  0.00  0.00    +0.128 C 
BRANCH  11  13
ATOM     12  N   UNL     1      -4.299  -1.211   3.724  0.00  0.00    -0.285 N 
ATOM     13  C   UNL     1      -3.297  -0.321   3.582  0.00  0.00    +0.219 C 
ATOM     14  O   UNL     1      -3.238   0.373   2.589  0.00  0.00    -0.275 OA
ATOM     15  H   UNL     1      -4.371  -1.817   4.639  0.00  0.00    +0.155 HD
BRANCH  12  21
ATOM     16  C   UNL     1      -5.844  -2.599   2.492  0.00  0.00    -0.026 A 
ATOM     17  C   UNL     1      -6.785  -2.745   1.492  0.00  0.00    +0.005 A 
ATOM     18  C   UNL     1      -7.126  -1.666   0.698  0.00  0.00    +0.000 A 
ATOM     19  C   UNL     1      -6.530  -0.435   0.906  0.00  0.00    +0.002 A 
ATOM     20  C   UNL     1      -5.593  -0.281   1.909  0.00  0.00    +0.023 A 
ATOM     21  C   UNL     1      -5.248  -1.364   2.708  0.00  0.00    +0.037 A 
BRANCH  16  23
ATOM     22  C   UNL     1      -6.306  -3.763   4.633  0.00  0.00    +0.009 C 
ATOM     23  C   UNL     1      -5.468  -3.778   3.352  0.00  0.00    +0.033 C 
ENDBRANCH  16  23
ENDBRANCH  12  21
ENDBRANCH  11  13
ENDBRANCH   1  11
BRANCH   8  24
ATOM     24  C   UNL     1      -0.032   0.465   0.626  0.00  0.00    +0.019 C 
BRANCH  24  25
ATOM     25  N   UNL     1      -0.535   1.149  -0.573  0.00  0.00    +0.387 N 
ATOM     26  C   UNL     1      -1.923   0.761  -0.856  0.00  0.00    -0.059 C 
ATOM     27  C   UNL     1      -2.468   1.626  -1.998  0.00  0.00    +0.089 C 
ATOM     28  N   UNL     1      -1.548   1.526  -3.141  0.00  0.00    -0.299 N 
ATOM     29  C   UNL     1      -0.117   1.767  -2.905  0.00  0.00    +0.089 C 
ATOM     30  C   UNL     1       0.336   0.896  -1.728  0.00  0.00    -0.059 C 
ATOM     31  C   UNL     1      -2.005   1.221  -4.372  0.00  0.00    +0.282 C 
ATOM     32  O   UNL     1      -3.169   0.902  -4.527  0.00  0.00    -0.267 OA
ATOM     33  H   UNL     1      -0.524   2.232  -0.376  0.00  0.00    -0.081 HD
BRANCH  31  34
ATOM     34  C   UNL     1      -1.099   1.275  -5.524  0.00  0.00    +0.189 A 
ATOM     35  C   UNL     1      -1.390   0.864  -6.793  0.00  0.00    +0.054 A 
ATOM     36  C   UNL     1      -0.243   1.099  -7.567  0.00  0.00    +0.042 A 
ATOM     37  C   UNL     1       0.690   1.629  -6.744  0.00  0.00    +0.196 A 
ATOM     38  O   UNL     1       0.170   1.733  -5.514  0.00  0.00    -0.458 OA
ENDBRANCH  31  34
ENDBRANCH  24  25
ENDBRANCH   8  24
TORSDOF 7
