REMARK  Name = ZINC46167814
REMARK  8 active torsions:
REMARK  status: ('A' for Active; 'I' for Inactive)
REMARK    1  A    between atoms: C_1  and  C_2
REMARK    2  A    between atoms: C_2  and  C_3
REMARK    3  A    between atoms: C_3  and  C_4
REMARK    4  A    between atoms: C_4  and  N_5
REMARK    5  A    between atoms: C_6  and  C_8
REMARK    6  A    between atoms: C_8  and  N_9
REMARK    7  A    between atoms: N_12  and  C_15
REMARK    8  A    between atoms: C_15  and  C_16
REMARK                            x       y       z     vdW  Elec       q    Type
REMARK                         _______ _______ _______ _____ _____    ______ ____
ROOT
ATOM      1  N   UNL     1      -4.409  -5.889   0.013  0.00  0.00    +0.387 N 
ATOM      2  C   UNL     1      -3.804  -6.377   1.259  0.00  0.00    -0.063 C 
ATOM      3  C   UNL     1      -3.765  -7.907   1.242  0.00  0.00    +0.066 C 
ATOM      4  N   UNL     1      -5.133  -8.427   1.106  0.00  0.00    -0.301 NA
ATOM      5  C   UNL     1      -5.761  -7.927  -0.125  0.00  0.00    +0.066 C 
ATOM      6  C   UNL     1      -5.783  -6.397  -0.098  0.00  0.00    -0.063 C 
ATOM      7  H   UNL     1      -3.867  -6.214  -0.774  0.00  0.00    -0.081 HD
ENDROOT
BRANCH   1   8
ATOM      8  C   UNL     1      -4.429  -4.420   0.021  0.00  0.00    +0.019 C 
BRANCH   8  10
ATOM      9  N   UNL     1      -2.787  -2.571   0.015  0.00  0.00    -0.317 N 
ATOM     10  C   UNL     1      -3.015  -3.899   0.010  0.00  0.00    +0.196 C 
ATOM     11  O   UNL     1      -2.083  -4.674  -0.003  0.00  0.00    -0.278 OA
ATOM     12  H   UNL     1      -3.533  -1.950   0.025  0.00  0.00    +0.149 HD
BRANCH   9  13
ATOM     13  C   UNL     1      -1.413  -2.063   0.004  0.00  0.00    +0.104 C 
BRANCH  13  14
ATOM     14  C   UNL     1      -1.433  -0.534   0.013  0.00  0.00    +0.018 C 
BRANCH  14  16
ATOM     15  C   UNL     1      -0.019   1.526   0.010  0.00  0.00    +0.004 C 
ATOM     16  C   UNL     1       0.002  -0.004   0.002  0.00  0.00    -0.002 C 
ENDBRANCH  14  16
ENDBRANCH  13  14
ENDBRANCH   9  13
ENDBRANCH   8  10
ENDBRANCH   1   8
BRANCH   4  17
ATOM     17  C   UNL     1      -5.145  -9.895   1.143  0.00  0.00    +0.126 C 
BRANCH  17  18
ATOM     18  C   UNL     1      -6.566 -10.384   1.248  0.00  0.00    +0.005 A 
ATOM     19  C   UNL     1      -7.438 -10.693   0.257  0.00  0.00    +0.013 A 
ATOM     20  C   UNL     1      -8.707 -11.127   0.592  0.00  0.00    +0.023 A 
ATOM     21  C   UNL     1      -9.042 -11.232   1.902  0.00  0.00    +0.055 A 
ATOM     22  S   UNL     1      -7.536 -10.715   2.710  0.00  0.00    -0.085 S 
ATOM     23 BR   UNL     1     -10.677 -11.788   2.672  0.00  0.00    -0.043 Br
ENDBRANCH  17  18
ENDBRANCH   4  17
TORSDOF 7
