REMARK  Name = ZINC02775851
REMARK  7 active torsions:
REMARK  status: ('A' for Active; 'I' for Inactive)
REMARK    1  A    between atoms: C_1  and  C_2
REMARK    2  A    between atoms: C_2  and  N_3
REMARK    3  A    between atoms: C_13  and  S_16
REMARK    4  A    between atoms: S_16  and  C_17
REMARK    5  A    between atoms: C_17  and  C_18
REMARK    6  A    between atoms: N_20  and  C_21
REMARK    7  A    between atoms: C_22  and  C_30
REMARK                            x       y       z     vdW  Elec       q    Type
REMARK                         _______ _______ _______ _____ _____    ______ ____
ROOT
ATOM      1  S   UNL     1       0.002  -0.004   0.002  0.00  0.00    -0.075 S 
ENDROOT
BRANCH   1  12
ATOM      2  N   UNL     1      -4.195  -2.996   0.026  0.00  0.00    -0.324 N 
ATOM      3  C   UNL     1      -5.550  -2.706   0.041  0.00  0.00    +0.053 A 
ATOM      4  C   UNL     1      -6.680  -3.517   0.047  0.00  0.00    +0.026 A 
ATOM      5  C   UNL     1      -7.937  -2.950   0.062  0.00  0.00    +0.002 A 
ATOM      6  C   UNL     1      -8.088  -1.572   0.070  0.00  0.00    +0.001 A 
ATOM      7  C   UNL     1      -6.981  -0.752   0.064  0.00  0.00    +0.012 A 
ATOM      8  C   UNL     1      -5.705  -1.311   0.050  0.00  0.00    +0.029 A 
ATOM      9  C   UNL     1      -4.346  -0.742   0.040  0.00  0.00    +0.138 A 
ATOM     10  C   UNL     1      -3.458  -1.838   0.025  0.00  0.00    +0.165 A 
ATOM     11  N   UNL     1      -2.152  -1.591   0.009  0.00  0.00    -0.201 NA
ATOM     12  C   UNL     1      -1.729  -0.334   0.017  0.00  0.00    +0.212 A 
ATOM     13  N   UNL     1      -2.586   0.682   0.030  0.00  0.00    -0.122 NA
ATOM     14  N   UNL     1      -3.860   0.490   0.042  0.00  0.00    -0.143 NA
BRANCH   2  16
ATOM     15  C   UNL     1      -3.446  -4.809  -1.434  0.00  0.00    +0.027 C 
ATOM     16  C   UNL     1      -3.629  -4.347   0.013  0.00  0.00    +0.120 C 
ENDBRANCH   2  16
ENDBRANCH   1  12
BRANCH   1  17
ATOM     17  C   UNL     1      -0.022   1.806   0.012  0.00  0.00    +0.173 C 
BRANCH  17  18
ATOM     18  C   UNL     1       1.391   2.327   0.001  0.00  0.00    +0.228 C 
ATOM     19  O   UNL     1       2.324   1.552  -0.012  0.00  0.00    -0.275 OA
ATOM     20  N   UNL     1       1.620   3.656   0.006  0.00  0.00    -0.278 N 
ATOM     21  H   UNL     1       0.874   4.276   0.017  0.00  0.00    +0.155 HD
BRANCH  20  22
ATOM     22  C   UNL     1       2.922   4.136  -0.004  0.00  0.00    +0.090 A 
ATOM     23  C   UNL     1       3.354   5.454  -0.006  0.00  0.00    +0.084 A 
ATOM     24  C   UNL     1       4.787   5.691  -0.013  0.00  0.00    -0.018 A 
ATOM     25  C   UNL     1       5.554   4.579  -0.027  0.00  0.00    -0.004 A 
ATOM     26  S   UNL     1       4.402   3.235  -0.023  0.00  0.00    -0.077 S 
ATOM     27  C   UNL     1       7.050   4.514  -0.044  0.00  0.00    +0.043 C 
ATOM     28  C   UNL     1       7.590   5.901  -0.420  0.00  0.00    +0.005 C 
ATOM     29  C   UNL     1       6.876   6.956   0.430  0.00  0.00    +0.005 C 
ATOM     30  C   UNL     1       5.417   7.079  -0.012  0.00  0.00    +0.037 C 
BRANCH  23  31
ATOM     31  C   UNL     1       2.422   6.541   0.002  0.00  0.00    +0.102 C 
ATOM     32  N   UNL     1       1.682   7.403   0.008  0.00  0.00    -0.191 NA
ENDBRANCH  23  31
ENDBRANCH  20  22
ENDBRANCH  17  18
ENDBRANCH   1  17
TORSDOF 6
