REMARK  Name = ZINC38085544
REMARK  5 active torsions:
REMARK  status: ('A' for Active; 'I' for Inactive)
REMARK    1  A    between atoms: C_5  and  O_10
REMARK    2  A    between atoms: C_6  and  C_7
REMARK    3  A    between atoms: C_7  and  C_8
REMARK    4  A    between atoms: C_8  and  N_9
REMARK    5  A    between atoms: O_10  and  C_11
REMARK                            x       y       z     vdW  Elec       q    Type
REMARK                         _______ _______ _______ _____ _____    ______ ____
ROOT
ATOM      1  C   UNL     1      -0.079   1.357  -0.132  0.00  0.00    +0.027 A 
ATOM      2  C   UNL     1       1.083   2.103  -0.223  0.00  0.00    +0.043 A 
ATOM      3  C   UNL     1       2.315   1.476  -0.188  0.00  0.00    +0.043 A 
ATOM      4  C   UNL     1       2.389   0.101  -0.062  0.00  0.00    +0.084 A 
ATOM      5  C   UNL     1       1.224  -0.649   0.030  0.00  0.00    +0.142 A 
ATOM      6  C   UNL     1      -0.010  -0.017  -0.005  0.00  0.00    -0.005 A 
ATOM      7 CL   UNL     1       3.935  -0.686  -0.019  0.00  0.00    -0.080 Cl
ATOM      8 CL   UNL     1       0.993   3.830  -0.382  0.00  0.00    -0.083 Cl
ENDROOT
BRANCH   6   9
ATOM      9  C   UNL     1      -1.276  -0.829   0.094  0.00  0.00    +0.019 C 
BRANCH   9  10
ATOM     10  C   UNL     1      -1.614  -1.068   1.567  0.00  0.00    -0.082 C 
BRANCH  10  11
ATOM     11  N   UNL     1      -2.779  -1.957   1.665  0.00  0.00    +0.378 N 
ATOM     12  H   UNL     1      -3.568  -1.529   1.203  0.00  0.00    -0.090 HD
ATOM     13  H   UNL     1      -2.567  -2.838   1.221  0.00  0.00    -0.090 HD
ATOM     14  H   UNL     1      -3.002  -2.114   2.636  0.00  0.00    -0.090 HD
ENDBRANCH  10  11
ENDBRANCH   9  10
ENDBRANCH   6   9
BRANCH   5  15
ATOM     15  O   UNL     1       1.294  -2.001   0.153  0.00  0.00    -0.485 OA
BRANCH  15  16
ATOM     16  C   UNL     1       1.173  -2.769  -1.046  0.00  0.00    +0.196 C 
ATOM     17  C   UNL     1       2.557  -2.912  -1.702  0.00  0.00    +0.069 C 
ATOM     18  C   UNL     1       2.457  -3.996  -2.812  0.00  0.00    +0.169 C 
ATOM     19  S   UNL     1       1.395  -5.244  -1.970  0.00  0.00    -0.027 S 
ATOM     20  O   UNL     1       0.401  -5.695  -2.880  0.00  0.00    -0.174 OA
ATOM     21  O   UNL     1       2.226  -6.193  -1.316  0.00  0.00    -0.174 OA
ATOM     22  C   UNL     1       0.606  -4.168  -0.705  0.00  0.00    +0.210 C 
ENDBRANCH  15  16
ENDBRANCH   5  15
TORSDOF 5
