REMARK  Name = ZINC09179146
REMARK  5 active torsions:
REMARK  status: ('A' for Active; 'I' for Inactive)
REMARK    1  A    between atoms: C_3  and  O_29
REMARK    2  A    between atoms: C_4  and  C_8
REMARK    3  A    between atoms: N_9  and  N_10
REMARK    4  A    between atoms: C_11  and  C_13
REMARK    5  A    between atoms: C_15  and  C_19
REMARK                            x       y       z     vdW  Elec       q    Type
REMARK                         _______ _______ _______ _____ _____    ______ ____
ROOT
ATOM      1  C   UNL     1       8.471  -0.735  -0.085  0.00  0.00    +0.122 A 
ATOM      2  C   UNL     1       9.737  -0.173  -0.089  0.00  0.00    +0.058 A 
ATOM      3  C   UNL     1      10.621  -1.254  -0.106  0.00  0.00    +0.070 A 
ATOM      4  N   UNL     1       9.911  -2.354  -0.112  0.00  0.00    -0.178 NA
ATOM      5  N   UNL     1       8.654  -2.088  -0.094  0.00  0.00    -0.272 N 
ATOM      6  H   UNL     1       7.944  -2.749  -0.090  0.00  0.00    +0.189 HD
ENDROOT
BRANCH   3   7
ATOM      7  C   UNL     1      12.126  -1.170  -0.118  0.00  0.00    +0.015 C 
ATOM      8  C   UNL     1      12.586  -0.132   0.909  0.00  0.00    +0.016 C 
ATOM      9  C   UNL     1      14.113  -0.046   0.897  0.00  0.00    -0.010 C 
ATOM     10  C   UNL     1      14.703  -1.412   1.253  0.00  0.00    +0.007 C 
ATOM     11  C   UNL     1      14.243  -2.450   0.227  0.00  0.00    -0.010 C 
ATOM     12  C   UNL     1      12.716  -2.536   0.238  0.00  0.00    +0.016 C 
ATOM     13  C   UNL     1      14.720  -2.035  -1.167  0.00  0.00    +0.007 C 
ATOM     14  C   UNL     1      14.130  -0.669  -1.522  0.00  0.00    -0.010 C 
ATOM     15  C   UNL     1      14.590   0.368  -0.496  0.00  0.00    +0.007 C 
ATOM     16  C   UNL     1      12.603  -0.755  -1.511  0.00  0.00    +0.016 C 
ENDBRANCH   3   7
BRANCH   1  18
ATOM     17  N   UNL     1       6.029  -0.708  -0.061  0.00  0.00    -0.202 N 
ATOM     18  C   UNL     1       7.187  -0.018  -0.069  0.00  0.00    +0.281 C 
ATOM     19  O   UNL     1       7.170   1.199  -0.062  0.00  0.00    -0.267 OA
ATOM     20  H   UNL     1       6.043  -1.678  -0.066  0.00  0.00    +0.178 HD
BRANCH  17  22
ATOM     21  C   UNL     1       3.692  -0.690  -0.037  0.00  0.00    +0.142 C 
ATOM     22  N   UNL     1       4.806  -0.025  -0.045  0.00  0.00    -0.187 NA
BRANCH  21  26
ATOM     23  C   UNL     1      -0.017   1.381   0.010  0.00  0.00    +0.019 A 
ATOM     24  C   UNL     1       1.166   2.096   0.002  0.00  0.00    +0.047 A 
ATOM     25  C   UNL     1       2.381   1.430  -0.013  0.00  0.00    +0.126 A 
ATOM     26  C   UNL     1       2.405   0.028  -0.021  0.00  0.00    +0.037 A 
ATOM     27  C   UNL     1       1.204  -0.683  -0.013  0.00  0.00    +0.028 A 
ATOM     28  C   UNL     1       0.002  -0.004   0.002  0.00  0.00    +0.019 A 
ATOM     29 BR   UNL     1      -1.625  -0.968   0.012  0.00  0.00    -0.050 Br
BRANCH  25  30
ATOM     30  O   UNL     1       3.543   2.132  -0.021  0.00  0.00    -0.506 OA
ATOM     31  H   UNL     1       3.888   2.331   0.860  0.00  0.00    +0.292 HD
ENDBRANCH  25  30
ENDBRANCH  21  26
ENDBRANCH  17  22
ENDBRANCH   1  18
TORSDOF 5
