REMARK  Name = ZINC09483305
REMARK  9 active torsions:
REMARK  status: ('A' for Active; 'I' for Inactive)
REMARK    1  A    between atoms: C_1  and  C_2
REMARK    2  A    between atoms: C_2  and  C_38
REMARK    3  A    between atoms: C_6  and  C_27
REMARK    4  A    between atoms: N_8  and  C_16
REMARK    5  A    between atoms: C_16  and  C_17
REMARK    6  A    between atoms: N_19  and  C_20
REMARK    7  A    between atoms: C_20  and  C_21
REMARK    8  A    between atoms: C_32  and  O_33
REMARK    9  A    between atoms: O_33  and  C_34
REMARK                            x       y       z     vdW  Elec       q    Type
REMARK                         _______ _______ _______ _____ _____    ______ ____
ROOT
ATOM      1  C   UNL     1       4.138  -0.629  -1.059  0.00  0.00    +0.011 C 
ATOM      2  C   UNL     1       3.314  -0.902  -2.319  0.00  0.00    -0.023 C 
ATOM      3  C   UNL     1       2.441   0.311  -2.640  0.00  0.00    +0.058 C 
ATOM      4  C   UNL     1       1.503   0.590  -1.481  0.00  0.00    +0.017 C 
ATOM      5  C   UNL     1       1.014  -0.415  -0.733  0.00  0.00    +0.037 C 
ATOM      6  C   UNL     1       0.040  -0.284   0.414  0.00  0.00    +0.143 C 
ATOM      7  N   UNL     1      -0.592   1.009   0.537  0.00  0.00    -0.308 N 
ATOM      8  C   UNL     1       0.273   2.034   0.901  0.00  0.00    +0.052 A 
ATOM      9  C   UNL     1       0.202   2.604   2.167  0.00  0.00    +0.025 A 
ATOM     10  C   UNL     1       1.090   3.607   2.513  0.00  0.00    +0.002 A 
ATOM     11  C   UNL     1       2.045   4.041   1.612  0.00  0.00    +0.002 A 
ATOM     12  C   UNL     1       2.112   3.481   0.347  0.00  0.00    +0.025 A 
ATOM     13  C   UNL     1       1.215   2.484  -0.000  0.00  0.00    +0.052 A 
ATOM     14  N   UNL     1       1.218   1.901  -1.265  0.00  0.00    -0.316 N 
ATOM     15  C   UNL     1       1.414  -1.747  -0.994  0.00  0.00    +0.163 C 
ATOM     16  O   UNL     1       0.954  -2.640  -0.310  0.00  0.00    -0.292 OA
ATOM     17  C   UNL     1       2.384  -2.098  -2.082  0.00  0.00    +0.086 C 
ATOM     18  C   UNL     1       4.247  -1.196  -3.495  0.00  0.00    +0.011 C 
ATOM     19  H   UNL     1       1.007   2.459  -2.030  0.00  0.00    +0.152 HD
ENDROOT
BRANCH   6  20
ATOM     20  C   UNL     1       0.780  -0.574   1.695  0.00  0.00    +0.019 A 
ATOM     21  C   UNL     1       2.095  -0.178   1.839  0.00  0.00    +0.009 A 
ATOM     22  C   UNL     1       2.774  -0.444   3.013  0.00  0.00    +0.001 A 
ATOM     23  C   UNL     1       2.138  -1.106   4.047  0.00  0.00    +0.004 A 
ATOM     24  C   UNL     1       0.823  -1.504   3.908  0.00  0.00    +0.046 A 
ATOM     25  C   UNL     1       0.138  -1.234   2.732  0.00  0.00    +0.125 A 
BRANCH  25  26
ATOM     26  O   UNL     1      -1.158  -1.620   2.595  0.00  0.00    -0.495 OA
ATOM     27  C   UNL     1      -1.755  -2.295   3.704  0.00  0.00    +0.277 C 
ENDBRANCH  25  26
ENDBRANCH   6  20
BRANCH   7  28
ATOM     28  C   UNL     1      -1.746   0.947   1.444  0.00  0.00    +0.201 C 
BRANCH  28  29
ATOM     29  C   UNL     1      -2.828   0.103   0.822  0.00  0.00    +0.231 C 
ATOM     30  O   UNL     1      -2.702  -0.306  -0.313  0.00  0.00    -0.274 OA
ATOM     31  N   UNL     1      -3.937  -0.198   1.526  0.00  0.00    -0.308 N 
ATOM     32  H   UNL     1      -4.038   0.129   2.434  0.00  0.00    +0.149 HD
BRANCH  31  33
ATOM     33  C   UNL     1      -4.989  -1.019   0.922  0.00  0.00    +0.159 C 
BRANCH  33  34
ATOM     34  C   UNL     1      -6.111  -1.206   1.911  0.00  0.00    +0.058 A 
ATOM     35  C   UNL     1      -7.201  -0.357   1.877  0.00  0.00    +0.025 A 
ATOM     36  C   UNL     1      -8.229  -0.541   2.788  0.00  0.00    +0.003 A 
ATOM     37  C   UNL     1      -8.117  -1.571   3.710  0.00  0.00    +0.020 A 
ATOM     38  C   UNL     1      -6.995  -2.377   3.687  0.00  0.00    +0.111 A 
ATOM     39  N   UNL     1      -6.038  -2.175   2.802  0.00  0.00    -0.258 NA
ENDBRANCH  33  34
ENDBRANCH  31  33
ENDBRANCH  28  29
ENDBRANCH   7  28
TORSDOF 6
