REMARK  Name = ZINC25173402
REMARK  9 active torsions:
REMARK  status: ('A' for Active; 'I' for Inactive)
REMARK    1  A    between atoms: C_1  and  C_2
REMARK    2  A    between atoms: C_2  and  C_3
REMARK    3  A    between atoms: C_4  and  C_15
REMARK    4  A    between atoms: N_6  and  C_11
REMARK    5  A    between atoms: C_9  and  O_10
REMARK    6  A    between atoms: C_11  and  C_12
REMARK    7  A    between atoms: N_22  and  C_23
REMARK    8  A    between atoms: C_26  and  O_29
REMARK    9  A    between atoms: O_29  and  C_30
REMARK                            x       y       z     vdW  Elec       q    Type
REMARK                         _______ _______ _______ _____ _____    ______ ____
ROOT
ATOM      1  C   UNL     1       0.139  -0.715   1.216  0.00  0.00    +0.043 C 
ATOM      2  C   UNL     1       0.208  -2.215   1.380  0.00  0.00    +0.143 C 
ATOM      3  N   UNL     1       0.357  -2.459   2.820  0.00  0.00    -0.273 N 
ATOM      4  C   UNL     1       0.376  -1.267   3.442  0.00  0.00    +0.283 C 
ATOM      5  O   UNL     1       0.489  -1.109   4.643  0.00  0.00    -0.267 OA
ATOM      6  C   UNL     1       0.247  -0.182   2.460  0.00  0.00    +0.186 C 
ENDROOT
BRANCH   2   7
ATOM      7  C   UNL     1      -1.061  -2.852   0.873  0.00  0.00    -0.022 A 
ATOM      8  C   UNL     1      -2.195  -2.855   1.663  0.00  0.00    +0.007 A 
ATOM      9  C   UNL     1      -3.359  -3.438   1.199  0.00  0.00    +0.015 A 
ATOM     10  C   UNL     1      -3.389  -4.019  -0.056  0.00  0.00    +0.018 A 
ATOM     11  C   UNL     1      -2.253  -4.015  -0.846  0.00  0.00    +0.015 A 
ATOM     12  C   UNL     1      -1.091  -3.427  -0.383  0.00  0.00    +0.007 A 
ATOM     13 BR   UNL     1      -4.980  -4.817  -0.692  0.00  0.00    -0.050 Br
ENDBRANCH   2   7
BRANCH   1  15
ATOM     14  C   UNL     1      -0.051   1.503   0.012  0.00  0.00    +0.064 C 
ATOM     15  C   UNL     1      -0.005  -0.004   0.002  0.00  0.00    +0.022 C 
ATOM     16  N   UNL     1      -0.099  -0.653  -1.129  0.00  0.00    -0.358 N 
ATOM     17  H   UNL     1      -0.153  -1.621  -1.129  0.00  0.00    +0.166 HD
BRANCH  16  18
ATOM     18  C   UNL     1      -0.119   0.031  -2.308  0.00  0.00    +0.040 A 
ATOM     19  C   UNL     1       0.917   0.917  -2.624  0.00  0.00    +0.029 A 
ATOM     20  C   UNL     1       0.891   1.605  -3.817  0.00  0.00    +0.047 A 
ATOM     21  C   UNL     1      -0.161   1.421  -4.706  0.00  0.00    +0.120 A 
ATOM     22  C   UNL     1      -1.192   0.543  -4.397  0.00  0.00    +0.047 A 
ATOM     23  C   UNL     1      -1.174  -0.154  -3.209  0.00  0.00    +0.029 A 
BRANCH  21  24
ATOM     24  O   UNL     1      -0.181   2.103  -5.881  0.00  0.00    -0.495 OA
ATOM     25  C   UNL     1      -1.292   1.867  -6.748  0.00  0.00    +0.277 C 
ENDBRANCH  21  24
ENDBRANCH  16  18
ENDBRANCH   1  15
BRANCH   6  26
ATOM     26  O   UNL     1       0.237   1.143   2.750  0.00  0.00    -0.502 OA
ATOM     27  H   UNL     1       0.325   1.340   3.693  0.00  0.00    +0.292 HD
ENDBRANCH   6  26
BRANCH   3  28
ATOM     28  C   UNL     1       0.466  -3.770   3.465  0.00  0.00    +0.234 C 
BRANCH  28  29
ATOM     29  C   UNL     1       1.917  -4.170   3.548  0.00  0.00    +0.373 C 
ATOM     30  O   UNL     1       2.780  -3.429   3.109  0.00  0.00    -0.245 OA
ATOM     31  O   UNL     1       2.227  -5.235   4.054  0.00  0.00    -0.245 OA
ENDBRANCH  28  29
ENDBRANCH   3  28
TORSDOF 7
