REMARK  Name = ZINC07904770
REMARK  6 active torsions:
REMARK  status: ('A' for Active; 'I' for Inactive)
REMARK    1  A    between atoms: C_6  and  N_7
REMARK    2  A    between atoms: N_7  and  C_8
REMARK    3  A    between atoms: C_8  and  C_9
REMARK    4  A    between atoms: C_9  and  C_10
REMARK    5  A    between atoms: N_12  and  C_13
REMARK    6  A    between atoms: C_14  and  C_18
REMARK                            x       y       z     vdW  Elec       q    Type
REMARK                         _______ _______ _______ _____ _____    ______ ____
ROOT
ATOM      1  C   UNL     1       2.459  -3.950  -0.044  0.00  0.00    +0.114 C 
ENDROOT
BRANCH   1   2
ATOM      2  C   UNL     1       1.715  -2.639  -0.029  0.00  0.00    +0.219 C 
ATOM      3  O   UNL     1       0.503  -2.630  -0.018  0.00  0.00    -0.275 OA
ATOM      4  N   UNL     1       2.398  -1.477  -0.029  0.00  0.00    -0.279 N 
ATOM      5  H   UNL     1       3.368  -1.484  -0.039  0.00  0.00    +0.155 HD
BRANCH   4   6
ATOM      6  C   UNL     1       1.713  -0.270  -0.016  0.00  0.00    +0.089 A 
ATOM      7  C   UNL     1       2.234   1.018  -0.014  0.00  0.00    +0.080 A 
ATOM      8  C   UNL     1       1.284   2.103   0.001  0.00  0.00    +0.028 A 
ATOM      9  C   UNL     1      -0.022   1.777   0.012  0.00  0.00    +0.048 A 
ATOM     10  S   UNL     1       0.002  -0.004   0.002  0.00  0.00    -0.081 S 
BRANCH   7  11
ATOM     11  C   UNL     1       3.646   1.256  -0.026  0.00  0.00    +0.102 C 
ATOM     12  N   UNL     1       4.766   1.446  -0.036  0.00  0.00    -0.191 NA
ENDBRANCH   7  11
ENDBRANCH   4   6
ENDBRANCH   1   2
BRANCH   1  13
ATOM     13  C   UNL     1       1.456  -5.105  -0.041  0.00  0.00    +0.111 C 
BRANCH  13  14
ATOM     14  N   UNL     1       2.179  -6.379  -0.056  0.00  0.00    -0.343 N 
ATOM     15  H   UNL     1       3.149  -6.386  -0.065  0.00  0.00    +0.146 HD
BRANCH  14  21
ATOM     16  C   UNL     1       0.083  -7.575  -0.036  0.00  0.00    +0.024 A 
ATOM     17  C   UNL     1      -0.614  -8.768  -0.042  0.00  0.00    +0.017 A 
ATOM     18  C   UNL     1       0.070  -9.970  -0.056  0.00  0.00    +0.018 A 
ATOM     19  C   UNL     1       1.454  -9.982  -0.069  0.00  0.00    +0.017 A 
ATOM     20  C   UNL     1       2.156  -8.793  -0.069  0.00  0.00    +0.024 A 
ATOM     21  C   UNL     1       1.472  -7.584  -0.056  0.00  0.00    +0.027 A 
ATOM     22 BR   UNL     1      -0.888 -11.601  -0.057  0.00  0.00    -0.050 Br
ENDBRANCH  14  21
ENDBRANCH  13  14
ENDBRANCH   1  13
TORSDOF 6
