REMARK  Name = ZINC36494910
REMARK  14 active torsions:
REMARK  status: ('A' for Active; 'I' for Inactive)
REMARK    1  A    between atoms: C_1  and  C_2
REMARK    2  A    between atoms: C_3  and  C_4
REMARK    3  A    between atoms: C_4  and  C_6
REMARK    4  A    between atoms: C_4  and  N_13
REMARK    5  A    between atoms: N_8  and  C_9
REMARK    6  A    between atoms: C_9  and  C_10
REMARK    7  A    between atoms: C_9  and  C_11
REMARK    8  A    between atoms: C_9  and  C_12
REMARK    9  A    between atoms: N_13  and  C_14
REMARK   10  A    between atoms: C_14  and  C_15
REMARK   11  A    between atoms: C_20  and  C_22
REMARK   12  A    between atoms: C_22  and  C_23
REMARK   13  A    between atoms: C_23  and  C_24
REMARK   14  A    between atoms: C_24  and  C_25
REMARK                            x       y       z     vdW  Elec       q    Type
REMARK                         _______ _______ _______ _____ _____    ______ ____
ROOT
ATOM      1  N   UNL     1      -0.355  -2.502  -0.325  0.00  0.00    -0.279 N 
ATOM      2  C   UNL     1       0.233  -3.010   0.776  0.00  0.00    +0.217 C 
ATOM      3  O   UNL     1       1.435  -3.169   0.803  0.00  0.00    -0.276 OA
ENDROOT
BRANCH   1   4
ATOM      4  C   UNL     1       0.458  -2.143  -1.489  0.00  0.00    +0.185 C 
BRANCH   4   5
ATOM      5  C   UNL     1       1.496  -1.128  -1.083  0.00  0.00    +0.238 C 
ATOM      6  O   UNL     1       1.633  -0.836   0.086  0.00  0.00    -0.273 OA
ATOM      7  N   UNL     1       2.271  -0.546  -2.019  0.00  0.00    -0.309 N 
ATOM      8  H   UNL     1       2.162  -0.780  -2.954  0.00  0.00    +0.149 HD
BRANCH   7   9
ATOM      9  C   UNL     1       3.281   0.440  -1.625  0.00  0.00    +0.026 C 
ATOM     10  C   UNL     1       4.281  -0.210  -0.667  0.00  0.00    +0.031 C 
ATOM     11  C   UNL     1       4.017   0.942  -2.869  0.00  0.00    +0.031 C 
ATOM     12  C   UNL     1       2.597   1.617  -0.927  0.00  0.00    +0.031 C 
ENDBRANCH   7   9
ENDBRANCH   4   5
BRANCH   4  15
ATOM     13  C   UNL     1       1.561  -5.779  -2.041  0.00  0.00    +0.035 C 
ATOM     14  C   UNL     1       0.877  -4.548  -1.506  0.00  0.00    -0.032 C 
ATOM     15  C   UNL     1       1.141  -3.374  -2.025  0.00  0.00    +0.000 C 
ENDBRANCH   4  15
ENDBRANCH   1   4
BRANCH   1  16
ATOM     16  C   UNL     1      -1.807  -2.310  -0.357  0.00  0.00    +0.183 C 
BRANCH  16  17
ATOM     17  C   UNL     1      -2.460  -3.521  -0.972  0.00  0.00    +0.122 A 
ATOM     18  C   UNL     1      -2.973  -4.566  -0.297  0.00  0.00    +0.046 A 
ATOM     19  C   UNL     1      -3.480  -5.467  -1.261  0.00  0.00    +0.041 A 
ATOM     20  C   UNL     1      -3.248  -4.918  -2.467  0.00  0.00    +0.195 A 
ATOM     21  O   UNL     1      -2.635  -3.737  -2.285  0.00  0.00    -0.466 OA
ENDBRANCH  16  17
ENDBRANCH   1  16
BRANCH   2  22
ATOM     22  C   UNL     1      -0.603  -3.381   1.975  0.00  0.00    +0.096 C 
BRANCH  22  23
ATOM     23  C   UNL     1       0.303  -3.929   3.079  0.00  0.00    +0.014 C 
BRANCH  23  24
ATOM     24  C   UNL     1      -0.545  -4.305   4.295  0.00  0.00    +0.036 C 
BRANCH  24  25
ATOM     25  C   UNL     1       0.347  -4.845   5.383  0.00  0.00    -0.039 A 
ATOM     26  C   UNL     1       0.555  -6.303   5.512  0.00  0.00    +0.012 A 
ATOM     27  C   UNL     1       1.332  -6.773   6.459  0.00  0.00    -0.016 A 
ATOM     28  C   UNL     1       1.579  -8.214   6.641  0.00  0.00    +0.008 A 
ATOM     29  C   UNL     1       2.370  -8.615   7.613  0.00  0.00    +0.001 A 
ATOM     30  C   UNL     1       3.028  -7.684   8.539  0.00  0.00    +0.008 A 
ATOM     31  C   UNL     1       2.865  -6.385   8.451  0.00  0.00    -0.017 A 
ATOM     32  C   UNL     1       1.995  -5.843   7.391  0.00  0.00    -0.002 A 
ATOM     33  C   UNL     1       1.812  -4.556   7.277  0.00  0.00    -0.002 A 
ATOM     34  C   UNL     1       0.944  -4.021   6.211  0.00  0.00    -0.014 A 
ATOM     35  C   UNL     1       0.782  -2.559   6.132  0.00  0.00    +0.009 A 
ATOM     36  C   UNL     1       1.411  -1.792   6.997  0.00  0.00    +0.001 A 
ATOM     37  C   UNL     1       2.279  -2.330   8.052  0.00  0.00    +0.008 A 
ATOM     38  C   UNL     1       2.471  -3.619   8.204  0.00  0.00    -0.017 A 
ATOM     39  C   UNL     1       3.342  -4.154   9.265  0.00  0.00    +0.009 A 
ATOM     40  C   UNL     1       3.526  -5.455   9.382  0.00  0.00    +0.009 A 
ENDBRANCH  24  25
ENDBRANCH  23  24
ENDBRANCH  22  23
ENDBRANCH   2  22
TORSDOF 10
