REMARK  Name = ZINC40826509
REMARK  7 active torsions:
REMARK  status: ('A' for Active; 'I' for Inactive)
REMARK    1  A    between atoms: C_1  and  C_2
REMARK    2  A    between atoms: C_6  and  C_7
REMARK    3  A    between atoms: C_7  and  O_9
REMARK    4  A    between atoms: O_9  and  C_10
REMARK    5  A    between atoms: N_20  and  N_21
REMARK    6  A    between atoms: C_22  and  C_24
REMARK    7  A    between atoms: C_29  and  O_30
REMARK                            x       y       z     vdW  Elec       q    Type
REMARK                         _______ _______ _______ _____ _____    ______ ____
ROOT
ATOM      1  C   UNL     1       0.107   1.494   0.003  0.00  0.00    +0.048 C 
ATOM      2  C   UNL     1       0.079  -0.013  -0.002  0.00  0.00    +0.011 A 
ATOM      3  C   UNL     1       0.070  -0.850  -1.124  0.00  0.00    +0.042 A 
ATOM      4  C   UNL     1       0.041  -2.148  -0.670  0.00  0.00    +0.115 A 
ATOM      5  O   UNL     1       0.036  -2.119   0.660  0.00  0.00    -0.452 OA
ATOM      6  C   UNL     1       0.064  -0.837   1.090  0.00  0.00    +0.215 A 
ATOM      7  C   UNL     1       0.018  -3.340  -1.594  0.00  0.00    +0.075 C 
ATOM      8  C   UNL     1      -0.478  -2.902  -2.975  0.00  0.00    +0.014 C 
ATOM      9  C   UNL     1       0.337  -1.712  -3.491  0.00  0.00    +0.058 C 
ATOM     10  C   UNL     1       0.087  -0.528  -2.568  0.00  0.00    +0.070 C 
ATOM     11  N   UNL     1      -0.098   0.676  -3.015  0.00  0.00    -0.184 NA
ENDROOT
BRANCH  11  12
ATOM     12  N   UNL     1      -0.071   0.923  -4.394  0.00  0.00    -0.203 N 
ATOM     13  C   UNL     1      -0.263   2.174  -4.858  0.00  0.00    +0.267 C 
ATOM     14  O   UNL     1      -0.459   3.088  -4.080  0.00  0.00    -0.268 OA
ATOM     15  H   UNL     1       0.086   0.194  -5.014  0.00  0.00    +0.178 HD
BRANCH  13  16
ATOM     16  C   UNL     1      -0.234   2.434  -6.309  0.00  0.00    +0.080 A 
ATOM     17  C   UNL     1      -0.015   1.386  -7.207  0.00  0.00    +0.017 A 
ATOM     18  C   UNL     1       0.010   1.636  -8.562  0.00  0.00    +0.001 A 
ATOM     19  C   UNL     1      -0.180   2.923  -9.039  0.00  0.00    +0.004 A 
ATOM     20  C   UNL     1      -0.398   3.967  -8.163  0.00  0.00    +0.046 A 
ATOM     21  C   UNL     1      -0.433   3.733  -6.797  0.00  0.00    +0.129 A 
BRANCH  21  22
ATOM     22  O   UNL     1      -0.653   4.758  -5.935  0.00  0.00    -0.506 OA
ATOM     23  H   UNL     1       0.153   5.205  -5.641  0.00  0.00    +0.292 HD
ENDBRANCH  21  22
ENDBRANCH  13  16
ENDBRANCH  11  12
BRANCH   6  24
ATOM     24  C   UNL     1       0.071  -0.404   2.490  0.00  0.00    +0.380 C 
ATOM     25  O   UNL     1       0.093   0.782   2.759  0.00  0.00    -0.241 OA
BRANCH  24  26
ATOM     26  O   UNL     1       0.054  -1.320   3.480  0.00  0.00    -0.420 OA
BRANCH  26  27
ATOM     27  C   UNL     1       0.166  -0.878   4.760  0.00  0.00    +0.132 A 
ATOM     28  C   UNL     1      -0.927  -0.305   5.395  0.00  0.00    +0.046 A 
ATOM     29  C   UNL     1      -0.812   0.143   6.697  0.00  0.00    +0.004 A 
ATOM     30  C   UNL     1       0.392   0.021   7.367  0.00  0.00    +0.000 A 
ATOM     31  C   UNL     1       1.482  -0.549   6.736  0.00  0.00    +0.004 A 
ATOM     32  C   UNL     1       1.370  -1.004   5.437  0.00  0.00    +0.046 A 
ENDBRANCH  26  27
ENDBRANCH  24  26
ENDBRANCH   6  24
TORSDOF 6
