REMARK  Name = ZINC58265821
REMARK  11 active torsions:
REMARK  status: ('A' for Active; 'I' for Inactive)
REMARK    1  A    between atoms: C_1  and  C_2
REMARK    2  A    between atoms: C_2  and  C_3
REMARK    3  A    between atoms: C_3  and  C_5
REMARK    4  A    between atoms: C_3  and  N_6
REMARK    5  A    between atoms: C_7  and  C_9
REMARK    6  A    between atoms: C_12  and  C_36
REMARK    7  A    between atoms: N_14  and  C_21
REMARK    8  A    between atoms: C_21  and  C_22
REMARK    9  A    between atoms: N_27  and  C_28
REMARK   10  A    between atoms: C_31  and  C_35
REMARK   11  A    between atoms: C_33  and  C_34
REMARK                            x       y       z     vdW  Elec       q    Type
REMARK                         _______ _______ _______ _____ _____    ______ ____
ROOT
ATOM      1  C   UNL     1      -4.089   0.272   2.656  0.00  0.00    +0.108 C 
ATOM      2  C   UNL     1      -5.611   0.239   2.518  0.00  0.00    +0.039 C 
ATOM      3  C   UNL     1      -6.237   0.325   3.916  0.00  0.00    +0.072 C 
ATOM      4  N   UNL     1      -5.826  -0.870   4.665  0.00  0.00    -0.318 N 
ATOM      5  C   UNL     1      -4.490  -1.279   4.606  0.00  0.00    +0.034 A 
ATOM      6  C   UNL     1      -3.628  -0.756   3.655  0.00  0.00    -0.014 A 
ATOM      7  C   UNL     1      -2.312  -1.184   3.617  0.00  0.00    +0.006 A 
ATOM      8  C   UNL     1      -1.859  -2.125   4.522  0.00  0.00    +0.000 A 
ATOM      9  C   UNL     1      -2.717  -2.645   5.473  0.00  0.00    +0.002 A 
ATOM     10  C   UNL     1      -4.030  -2.224   5.517  0.00  0.00    +0.023 A 
ATOM     11  C   UNL     1      -5.740   1.583   4.630  0.00  0.00    +0.028 C 
ENDROOT
BRANCH   1  13
ATOM     12  N   UNL     1      -2.232   0.454   1.032  0.00  0.00    -0.312 N 
ATOM     13  C   UNL     1      -3.461  -0.019   1.317  0.00  0.00    +0.221 C 
ATOM     14  O   UNL     1      -4.063  -0.679   0.496  0.00  0.00    -0.275 OA
ATOM     15  H   UNL     1      -1.781   1.042   1.658  0.00  0.00    +0.149 HD
BRANCH  12  16
ATOM     16  C   UNL     1      -1.577   0.081  -0.224  0.00  0.00    +0.070 C 
ATOM     17  C   UNL     1      -0.860  -1.259  -0.046  0.00  0.00    +0.028 C 
BRANCH  16  19
ATOM     18  C   UNL     1      -1.291   2.467  -0.908  0.00  0.00    +0.005 C 
ATOM     19  C   UNL     1      -0.559   1.157  -0.609  0.00  0.00    +0.018 C 
ENDBRANCH  16  19
ENDBRANCH  12  16
ENDBRANCH   1  13
BRANCH   4  20
ATOM     20  C   UNL     1      -6.800  -1.620   5.462  0.00  0.00    +0.201 C 
BRANCH  20  21
ATOM     21  C   UNL     1      -7.433  -2.688   4.607  0.00  0.00    +0.238 C 
ATOM     22  O   UNL     1      -7.103  -2.810   3.447  0.00  0.00    -0.274 OA
ATOM     23  N   UNL     1      -8.365  -3.507   5.133  0.00  0.00    -0.239 N 
ATOM     24  C   UNL     1      -8.931  -4.462   4.368  0.00  0.00    +0.310 C 
ATOM     25  O   UNL     1      -8.600  -4.584   3.205  0.00  0.00    -0.252 OA
ATOM     26  N   UNL     1      -9.864  -5.281   4.893  0.00  0.00    -0.269 N 
ATOM     27  H   UNL     1      -8.629  -3.409   6.061  0.00  0.00    +0.159 HD
ATOM     28  H   UNL     1     -10.173  -5.144   5.802  0.00  0.00    +0.156 HD
BRANCH  26  29
ATOM     29  C   UNL     1     -10.386  -6.329   4.127  0.00  0.00    +0.038 A 
ATOM     30  C   UNL     1     -10.560  -6.171   2.758  0.00  0.00    +0.024 A 
ATOM     31  C   UNL     1     -11.076  -7.207   2.005  0.00  0.00    +0.005 A 
ATOM     32  C   UNL     1     -11.419  -8.401   2.612  0.00  0.00    -0.050 A 
ATOM     33  C   UNL     1     -11.247  -8.562   3.974  0.00  0.00    +0.008 A 
ATOM     34  C   UNL     1     -10.725  -7.532   4.732  0.00  0.00    -0.029 A 
ATOM     35  C   UNL     1     -10.532  -7.710   6.216  0.00  0.00    +0.045 C 
ATOM     36  C   UNL     1     -11.982  -9.530   1.787  0.00  0.00    +0.044 C 
ENDBRANCH  26  29
ENDBRANCH  20  21
ENDBRANCH   4  20
TORSDOF 6
