REMARK  Name = ZINC08930297
REMARK  10 active torsions:
REMARK  status: ('A' for Active; 'I' for Inactive)
REMARK    1  A    between atoms: C_1  and  C_2
REMARK    2  A    between atoms: C_8  and  N_10
REMARK    3  A    between atoms: C_11  and  C_13
REMARK    4  A    between atoms: C_13  and  N_14
REMARK    5  A    between atoms: C_17  and  C_21
REMARK    6  A    between atoms: C_17  and  C_29
REMARK    7  A    between atoms: C_24  and  O_27
REMARK    8  A    between atoms: O_27  and  C_28
REMARK    9  A    between atoms: C_32  and  O_35
REMARK   10  A    between atoms: O_35  and  C_36
REMARK                            x       y       z     vdW  Elec       q    Type
REMARK                         _______ _______ _______ _____ _____    ______ ____
ROOT
ATOM      1  N   UNL     1      -2.841   0.536  -2.198  0.00  0.00    -0.215 N 
ATOM      2  C   UNL     1      -2.514   1.557  -1.381  0.00  0.00    +0.256 C 
ATOM      3  O   UNL     1      -2.272   2.702  -1.700  0.00  0.00    -0.272 OA
ATOM      4  C   UNL     1      -2.513   0.977   0.019  0.00  0.00    +0.164 C 
ATOM      5  N   UNL     1      -2.873  -0.436  -0.191  0.00  0.00    -0.278 N 
ATOM      6  C   UNL     1      -3.045  -0.596  -1.516  0.00  0.00    +0.310 C 
ATOM      7  O   UNL     1      -3.350  -1.652  -2.034  0.00  0.00    -0.252 OA
ATOM      8  H   UNL     1      -2.968  -1.117   0.492  0.00  0.00    +0.152 HD
ENDROOT
BRANCH   4   9
ATOM      9  C   UNL     1      -1.144   1.089   0.638  0.00  0.00    -0.011 A 
ATOM     10  C   UNL     1      -0.469   2.295   0.608  0.00  0.00    +0.010 A 
ATOM     11  C   UNL     1       0.784   2.401   1.179  0.00  0.00    +0.046 A 
ATOM     12  C   UNL     1       1.368   1.295   1.780  0.00  0.00    +0.120 A 
ATOM     13  C   UNL     1       0.690   0.085   1.805  0.00  0.00    +0.046 A 
ATOM     14  C   UNL     1      -0.562  -0.017   1.232  0.00  0.00    +0.010 A 
BRANCH  12  15
ATOM     15  O   UNL     1       2.600   1.397   2.344  0.00  0.00    -0.495 OA
ATOM     16  C   UNL     1       3.139   0.218   2.944  0.00  0.00    +0.277 C 
ENDBRANCH  12  15
ENDBRANCH   4   9
BRANCH   4  17
ATOM     17  C   UNL     1      -3.540   1.667   0.880  0.00  0.00    -0.011 A 
ATOM     18  C   UNL     1      -3.573   3.048   0.942  0.00  0.00    +0.010 A 
ATOM     19  C   UNL     1      -4.516   3.683   1.726  0.00  0.00    +0.046 A 
ATOM     20  C   UNL     1      -5.424   2.934   2.460  0.00  0.00    +0.120 A 
ATOM     21  C   UNL     1      -5.386   1.548   2.400  0.00  0.00    +0.046 A 
ATOM     22  C   UNL     1      -4.444   0.918   1.610  0.00  0.00    +0.010 A 
BRANCH  20  23
ATOM     23  O   UNL     1      -6.349   3.556   3.237  0.00  0.00    -0.495 OA
ATOM     24  C   UNL     1      -6.330   4.985   3.251  0.00  0.00    +0.277 C 
ENDBRANCH  20  23
ENDBRANCH   4  17
BRANCH   1  25
ATOM     25  C   UNL     1      -2.960   0.653  -3.654  0.00  0.00    +0.213 C 
BRANCH  25  27
ATOM     26  N   UNL     1      -1.494   0.411  -5.632  0.00  0.00    -0.311 N 
ATOM     27  C   UNL     1      -1.625   0.363  -4.291  0.00  0.00    +0.231 C 
ATOM     28  O   UNL     1      -0.669   0.087  -3.598  0.00  0.00    -0.274 OA
ATOM     29  H   UNL     1      -2.259   0.632  -6.186  0.00  0.00    +0.149 HD
BRANCH  26  36
ATOM     30  C   UNL     1      -0.281   2.332  -7.428  0.00  0.00    +0.009 C 
ATOM     31  C   UNL     1      -0.122   0.822  -7.614  0.00  0.00    +0.006 C 
ATOM     32  C   UNL     1       1.233   0.527  -8.261  0.00  0.00    +0.005 C 
ATOM     33  C   UNL     1       1.392  -0.983  -8.447  0.00  0.00    +0.000 C 
ATOM     34  C   UNL     1       1.317  -1.675  -7.084  0.00  0.00    +0.002 C 
ATOM     35  C   UNL     1      -0.038  -1.381  -6.437  0.00  0.00    +0.022 C 
ATOM     36  C   UNL     1      -0.197   0.130  -6.252  0.00  0.00    +0.076 C 
ENDBRANCH  26  36
ENDBRANCH  25  27
ENDBRANCH   1  25
TORSDOF 7
