REMARK  Name = ZINC43221539
REMARK  11 active torsions:
REMARK  status: ('A' for Active; 'I' for Inactive)
REMARK    1  A    between atoms: C_1  and  C_2
REMARK    2  A    between atoms: C_2  and  C_3
REMARK    3  A    between atoms: C_7  and  C_41
REMARK    4  A    between atoms: C_8  and  N_9
REMARK    5  A    between atoms: C_14  and  C_31
REMARK    6  A    between atoms: C_17  and  C_22
REMARK    7  A    between atoms: C_17  and  C_28
REMARK    8  A    between atoms: C_34  and  O_37
REMARK    9  A    between atoms: O_37  and  C_38
REMARK   10  A    between atoms: C_38  and  C_40
REMARK   11  A    between atoms: C_41  and  C_42
REMARK                            x       y       z     vdW  Elec       q    Type
REMARK                         _______ _______ _______ _____ _____    ______ ____
ROOT
ATOM      1  N   UNL     1      -1.841   1.321   3.244  0.00  0.00    -0.209 N 
ATOM      2  C   UNL     1      -2.644   2.390   3.556  0.00  0.00    +0.229 C 
ATOM      3  O   UNL     1      -2.308   3.538   3.752  0.00  0.00    -0.275 OA
ATOM      4  C   UNL     1      -3.980   1.842   3.599  0.00  0.00    +0.078 C 
ATOM      5  C   UNL     1      -5.382   2.281   3.546  0.00  0.00    -0.026 C 
ATOM      6  N   UNL     1      -6.146   1.039   3.191  0.00  0.00    +0.398 N 
ATOM      7  C   UNL     1      -5.146  -0.047   2.931  0.00  0.00    +0.074 C 
ATOM      8  C   UNL     1      -3.916   0.755   2.453  0.00  0.00    +0.090 C 
ATOM      9  C   UNL     1      -2.549   0.238   2.806  0.00  0.00    +0.229 C 
ATOM     10  O   UNL     1      -2.157  -0.906   2.721  0.00  0.00    -0.275 OA
ATOM     11  H   UNL     1      -6.745   0.775   3.959  0.00  0.00    -0.083 HD
ATOM     12  H   UNL     1      -6.698   1.202   2.363  0.00  0.00    -0.083 HD
ENDROOT
BRANCH   1  18
ATOM     13  C   UNL     1       0.340   1.633   2.250  0.00  0.00    -0.026 A 
ATOM     14  C   UNL     1       1.716   1.657   2.367  0.00  0.00    +0.005 A 
ATOM     15  C   UNL     1       2.313   1.386   3.584  0.00  0.00    +0.001 A 
ATOM     16  C   UNL     1       1.535   1.089   4.688  0.00  0.00    +0.005 A 
ATOM     17  C   UNL     1       0.159   1.064   4.578  0.00  0.00    -0.026 A 
ATOM     18  C   UNL     1      -0.444   1.341   3.358  0.00  0.00    +0.050 A 
BRANCH  13  20
ATOM     19  C   UNL     1      -0.691   3.410   0.861  0.00  0.00    +0.009 C 
ATOM     20  C   UNL     1      -0.310   1.929   0.923  0.00  0.00    +0.033 C 
ENDBRANCH  13  20
BRANCH  17  21
ATOM     21  C   UNL     1      -0.689   0.741   5.782  0.00  0.00    +0.033 C 
ATOM     22  C   UNL     1      -1.020  -0.753   5.786  0.00  0.00    +0.009 C 
ENDBRANCH  17  21
ENDBRANCH   1  18
BRANCH   7  23
ATOM     23  C   UNL     1      -4.854  -0.818   4.192  0.00  0.00    -0.047 A 
ATOM     24  C   UNL     1      -5.303  -0.345   5.411  0.00  0.00    +0.003 A 
ATOM     25  C   UNL     1      -5.035  -1.052   6.568  0.00  0.00    +0.000 A 
ATOM     26  C   UNL     1      -4.318  -2.232   6.506  0.00  0.00    +0.000 A 
ATOM     27  C   UNL     1      -3.869  -2.706   5.287  0.00  0.00    +0.000 A 
ATOM     28  C   UNL     1      -4.141  -2.001   4.130  0.00  0.00    +0.003 A 
ENDBRANCH   7  23
BRANCH   5  29
ATOM     29  C   UNL     1      -5.563   3.335   2.485  0.00  0.00    -0.060 A 
ATOM     30  C   UNL     1      -5.683   2.966   1.157  0.00  0.00    +0.005 A 
ATOM     31  C   UNL     1      -5.849   3.931   0.183  0.00  0.00    +0.046 A 
ATOM     32  C   UNL     1      -5.896   5.271   0.537  0.00  0.00    +0.132 A 
ATOM     33  C   UNL     1      -5.777   5.639   1.869  0.00  0.00    +0.046 A 
ATOM     34  C   UNL     1      -5.616   4.670   2.840  0.00  0.00    +0.005 A 
BRANCH  32  35
ATOM     35  O   UNL     1      -6.059   6.222  -0.420  0.00  0.00    -0.426 OA
BRANCH  35  36
ATOM     36  C   UNL     1      -7.247   6.294  -1.042  0.00  0.00    +0.309 C 
ATOM     37  O   UNL     1      -8.158   5.584  -0.688  0.00  0.00    -0.251 OA
ATOM     38  C   UNL     1      -7.444   7.261  -2.181  0.00  0.00    +0.136 C 
ENDBRANCH  35  36
ENDBRANCH  32  35
ENDBRANCH   5  29
BRANCH   7  39
ATOM     39  C   UNL     1      -5.629  -0.968   1.840  0.00  0.00    +0.350 C 
ATOM     40  O   UNL     1      -6.718  -0.782   1.324  0.00  0.00    -0.248 OA
ATOM     41  O   UNL     1      -4.932  -1.898   1.474  0.00  0.00    -0.248 OA
ENDBRANCH   7  39
TORSDOF 8
