REMARK  Name = ZINC53163544
REMARK  4 active torsions:
REMARK  status: ('A' for Active; 'I' for Inactive)
REMARK    1  A    between atoms: C_5  and  C_6
REMARK    2  A    between atoms: C_6  and  N_7
REMARK    3  A    between atoms: N_7  and  C_8
REMARK    4  A    between atoms: C_9  and  N_16
REMARK                            x       y       z     vdW  Elec       q    Type
REMARK                         _______ _______ _______ _____ _____    ______ ____
ROOT
ATOM      1  C   UNL     1      -2.630  -2.120  -1.627  0.00  0.00    +0.097 A 
ATOM      2  C   UNL     1      -2.839  -2.610  -2.910  0.00  0.00    +0.150 A 
ATOM      3  C   UNL     1      -3.859  -3.511  -3.147  0.00  0.00    +0.037 A 
ATOM      4  C   UNL     1      -4.674  -3.926  -2.110  0.00  0.00    +0.043 A 
ATOM      5  C   UNL     1      -4.470  -3.441  -0.829  0.00  0.00    +0.160 A 
ATOM      6  C   UNL     1      -3.445  -2.542  -0.584  0.00  0.00    +0.181 A 
ATOM      7  F   UNL     1      -3.242  -2.072   0.666  0.00  0.00    -0.200 F 
ATOM      8  F   UNL     1      -5.268  -3.848   0.182  0.00  0.00    -0.202 F 
ENDROOT
BRANCH   2   9
ATOM      9  N   UNL     1      -1.969  -2.167  -4.022  0.00  0.00    +0.058 N 
ATOM     10  O   UNL     1      -2.437  -1.993  -5.123  0.00  0.00    -0.126 OA
ATOM     11  O   UNL     1      -0.790  -1.979  -3.830  0.00  0.00    -0.126 OA
ENDBRANCH   2   9
BRANCH   1  12
ATOM     12  N   UNL     1      -1.598  -1.208  -1.385  0.00  0.00    -0.335 N 
ATOM     13  H   UNL     1      -1.193  -0.726  -2.124  0.00  0.00    +0.147 HD
BRANCH  12  14
ATOM     14  C   UNL     1      -1.127  -0.981  -0.017  0.00  0.00    +0.144 C 
BRANCH  14  19
ATOM     15  C   UNL     1      -0.098   1.388   0.078  0.00  0.00    +0.014 A 
ATOM     16  C   UNL     1       1.065   2.134   0.040  0.00  0.00    +0.023 A 
ATOM     17  C   UNL     1       2.252   1.494  -0.103  0.00  0.00    +0.055 A 
ATOM     18  S   UNL     1       1.742  -0.215  -0.191  0.00  0.00    -0.085 S 
ATOM     19  C   UNL     1      -0.018   0.040  -0.030  0.00  0.00    +0.008 A 
ATOM     20 BR   UNL     1       3.995   2.221  -0.189  0.00  0.00    -0.043 Br
ENDBRANCH  14  19
ENDBRANCH  12  14
ENDBRANCH   1  12
TORSDOF 4
