REMARK  Name = ZINC66320860
REMARK  10 active torsions:
REMARK  status: ('A' for Active; 'I' for Inactive)
REMARK    1  A    between atoms: C_1  and  C_2
REMARK    2  A    between atoms: C_2  and  C_3
REMARK    3  A    between atoms: C_3  and  C_4
REMARK    4  A    between atoms: C_4  and  N_5
REMARK    5  A    between atoms: N_8  and  C_9
REMARK    6  A    between atoms: C_9  and  C_15
REMARK    7  A    between atoms: N_17  and  C_18
REMARK    8  A    between atoms: C_18  and  C_19
REMARK    9  A    between atoms: C_19  and  N_20
REMARK   10  A    between atoms: C_21  and  C_23
REMARK                            x       y       z     vdW  Elec       q    Type
REMARK                         _______ _______ _______ _____ _____    ______ ____
ROOT
ATOM      1  C   UNL     1       2.327  -5.733   3.996  0.00  0.00    +0.112 C 
ATOM      2  C   UNL     1       3.168  -6.531   2.998  0.00  0.00    +0.035 C 
ATOM      3  C   UNL     1       4.587  -5.959   2.954  0.00  0.00    +0.003 C 
ATOM      4  C   UNL     1       5.219  -6.055   4.344  0.00  0.00    +0.000 C 
ATOM      5  C   UNL     1       4.377  -5.257   5.343  0.00  0.00    +0.003 C 
ATOM      6  C   UNL     1       2.959  -5.829   5.387  0.00  0.00    +0.035 C 
ENDROOT
BRANCH   1  10
ATOM      7  N   UNL     1       1.531  -2.694   2.090  0.00  0.00    -0.299 N 
ATOM      8  C   UNL     1       1.668  -3.992   2.425  0.00  0.00    +0.300 C 
ATOM      9  O   UNL     1       1.243  -4.859   1.685  0.00  0.00    -0.253 OA
ATOM     10  N   UNL     1       2.275  -4.330   3.579  0.00  0.00    -0.285 N 
ATOM     11  H   UNL     1       1.869  -2.002   2.680  0.00  0.00    +0.150 HD
ATOM     12  H   UNL     1       2.678  -3.644   4.135  0.00  0.00    +0.151 HD
BRANCH   7  13
ATOM     13  C   UNL     1       0.871  -2.326   0.835  0.00  0.00    +0.106 C 
BRANCH  13  14
ATOM     14  C   UNL     1       0.847  -0.803   0.698  0.00  0.00    +0.018 C 
BRANCH  14  16
ATOM     15  C   UNL     1       0.134   1.104  -0.750  0.00  0.00    +0.004 C 
ATOM     16  C   UNL     1       0.157  -0.419  -0.613  0.00  0.00    -0.002 C 
ENDBRANCH  14  16
ENDBRANCH  13  14
ENDBRANCH   7  13
ENDBRANCH   1  10
BRANCH   1  17
ATOM     17  C   UNL     1       0.930  -6.297   4.040  0.00  0.00    +0.237 C 
ATOM     18  O   UNL     1       0.731  -7.449   3.717  0.00  0.00    -0.273 OA
ATOM     19  N   UNL     1      -0.098  -5.521   4.436  0.00  0.00    -0.312 N 
ATOM     20  H   UNL     1       0.071  -4.623   4.763  0.00  0.00    +0.149 HD
BRANCH  19  21
ATOM     21  C   UNL     1      -1.469  -6.032   4.373  0.00  0.00    +0.123 C 
BRANCH  21  22
ATOM     22  C   UNL     1      -2.437  -4.960   4.877  0.00  0.00    +0.123 C 
BRANCH  22  23
ATOM     23  N   UNL     1      -3.808  -5.472   4.815  0.00  0.00    -0.314 N 
ATOM     24  C   UNL     1      -4.836  -4.696   5.211  0.00  0.00    +0.216 C 
ATOM     25  O   UNL     1      -4.626  -3.573   5.620  0.00  0.00    -0.276 OA
ATOM     26  H   UNL     1      -3.976  -6.370   4.488  0.00  0.00    +0.149 HD
BRANCH  24  27
ATOM     27  C   UNL     1      -6.247  -5.222   5.147  0.00  0.00    +0.075 C 
ATOM     28  C   UNL     1      -6.591  -5.582   3.700  0.00  0.00    +0.013 C 
ATOM     29  C   UNL     1      -8.023  -6.116   3.635  0.00  0.00    +0.001 C 
ATOM     30  C   UNL     1      -8.992  -5.044   4.138  0.00  0.00    +0.000 C 
ATOM     31  C   UNL     1      -8.647  -4.685   5.585  0.00  0.00    +0.001 C 
ATOM     32  C   UNL     1      -7.215  -4.150   5.650  0.00  0.00    +0.013 C 
ENDBRANCH  24  27
ENDBRANCH  22  23
ENDBRANCH  21  22
ENDBRANCH  19  21
ENDBRANCH   1  17
TORSDOF 9
