REMARK  Name = ZINC37191980
REMARK  4 active torsions:
REMARK  status: ('A' for Active; 'I' for Inactive)
REMARK    1  A    between atoms: C_3  and  N_19
REMARK    2  A    between atoms: C_6  and  S_7
REMARK    3  A    between atoms: S_7  and  C_8
REMARK    4  A    between atoms: C_8  and  C_9
REMARK                            x       y       z     vdW  Elec       q    Type
REMARK                         _______ _______ _______ _____ _____    ______ ____
ROOT
ATOM      1  C   UNL     1      -0.969  -2.650  -0.003  0.00  0.00    +0.131 C 
ENDROOT
BRANCH   1   2
ATOM      2  C   UNL     1      -2.178  -3.550   0.005  0.00  0.00    +0.070 A 
ATOM      3  C   UNL     1      -2.802  -4.022   1.106  0.00  0.00    +0.116 A 
ATOM      4  N   UNL     1      -3.846  -4.795   0.678  0.00  0.00    -0.305 N 
ATOM      5  C   UNL     1      -4.801  -5.510   1.344  0.00  0.00    +0.112 A 
ATOM      6  C   UNL     1      -5.739  -6.204   0.665  0.00  0.00    +0.058 A 
ATOM      7  C   UNL     1      -5.745  -6.199  -0.741  0.00  0.00    +0.025 A 
ATOM      8  C   UNL     1      -4.800  -5.491  -1.416  0.00  0.00    +0.048 A 
ATOM      9  C   UNL     1      -3.828  -4.772  -0.693  0.00  0.00    +0.138 A 
ATOM     10  N   UNL     1      -2.814  -4.008  -1.076  0.00  0.00    -0.232 NA
ATOM     11 CL   UNL     1      -6.942  -7.106   1.531  0.00  0.00    -0.082 Cl
ENDBRANCH   1   2
BRANCH   1  12
ATOM     12  S   UNL     1      -1.505  -0.917   0.012  0.00  0.00    -0.117 S 
BRANCH  12  18
ATOM     13  C   UNL     1      -0.017   1.390   0.010  0.00  0.00    +0.019 A 
ATOM     14  C   UNL     1       1.190   2.065   0.002  0.00  0.00    +0.044 A 
ATOM     15  C   UNL     1       2.374   1.337  -0.013  0.00  0.00    +0.116 A 
ATOM     16  N   UNL     1       2.355   0.013  -0.020  0.00  0.00    -0.240 NA
ATOM     17  C   UNL     1       1.222  -0.664  -0.013  0.00  0.00    +0.127 A 
ATOM     18  C   UNL     1       0.002  -0.004   0.002  0.00  0.00    +0.026 A 
BRANCH  15  19
ATOM     19  N   UNL     1       3.596   2.007  -0.022  0.00  0.00    -0.343 N 
ATOM     20  H   UNL     1       3.616   2.977  -0.017  0.00  0.00    +0.144 HD
ATOM     21  H   UNL     1       4.425   1.505  -0.033  0.00  0.00    +0.144 HD
ENDBRANCH  15  19
ENDBRANCH  12  18
ENDBRANCH   1  12
TORSDOF 4
