REMARK  Name = ZINC14883122
REMARK  6 active torsions:
REMARK  status: ('A' for Active; 'I' for Inactive)
REMARK    1  A    between atoms: C_1  and  C_2
REMARK    2  A    between atoms: C_5  and  N_8
REMARK    3  A    between atoms: C_14  and  C_16
REMARK    4  A    between atoms: N_19  and  C_22
REMARK    5  A    between atoms: N_30  and  C_33
REMARK    6  A    between atoms: C_33  and  C_34
REMARK                            x       y       z     vdW  Elec       q    Type
REMARK                         _______ _______ _______ _____ _____    ______ ____
ROOT
ATOM      1  C   UNL     1      -0.035   6.115   0.070  0.00  0.00    +0.078 C 
ATOM      2  C   UNL     1       0.579   5.534  -1.207  0.00  0.00    +0.031 C 
ATOM      3  C   UNL     1       0.453   4.009  -1.180  0.00  0.00    +0.106 C 
ATOM      4  N   UNL     1       1.147   3.481   0.002  0.00  0.00    -0.329 N 
ATOM      5  C   UNL     1       0.546   3.987   1.242  0.00  0.00    +0.106 C 
ATOM      6  C   UNL     1       0.674   5.512   1.287  0.00  0.00    +0.031 C 
ENDROOT
BRANCH   4   7
ATOM      7  C   UNL     1       1.166   2.094  -0.011  0.00  0.00    +0.043 A 
ATOM      8  C   UNL     1      -0.032   1.374  -0.016  0.00  0.00    +0.024 A 
ATOM      9  C   UNL     1      -0.016  -0.003  -0.029  0.00  0.00    +0.003 A 
ATOM     10  C   UNL     1       1.187  -0.697  -0.038  0.00  0.00    +0.014 A 
ATOM     11  C   UNL     1       2.384  -0.004  -0.033  0.00  0.00    +0.051 A 
ATOM     12  C   UNL     1       2.379   1.408  -0.019  0.00  0.00    +0.070 A 
ATOM     13  C   UNL     1       3.793   1.817  -0.017  0.00  0.00    +0.256 C 
ATOM     14  O   UNL     1       4.199   2.963  -0.006  0.00  0.00    -0.269 OA
ATOM     15  N   UNL     1       4.561   0.713  -0.029  0.00  0.00    -0.230 N 
ATOM     16  C   UNL     1       3.807  -0.401  -0.039  0.00  0.00    +0.254 C 
ATOM     17  O   UNL     1       4.226  -1.541  -0.051  0.00  0.00    -0.270 OA
BRANCH  15  18
ATOM     18  C   UNL     1       6.026   0.723  -0.031  0.00  0.00    +0.152 C 
BRANCH  18  19
ATOM     19  C   UNL     1       6.527   0.740  -1.452  0.00  0.00    -0.023 A 
ATOM     20  C   UNL     1       6.752   1.939  -2.102  0.00  0.00    +0.013 A 
ATOM     21  C   UNL     1       7.202   1.920  -3.380  0.00  0.00    +0.045 A 
ATOM     22  S   UNL     1       7.321   0.168  -3.703  0.00  0.00    -0.105 S 
ATOM     23  C   UNL     1       6.768  -0.420  -2.111  0.00  0.00    +0.050 A 
ENDBRANCH  18  19
ENDBRANCH  15  18
ENDBRANCH   4   7
BRANCH   1  30
ATOM     24  N   UNL     1      -2.155   9.936   2.513  0.00  0.00    -0.327 N 
ATOM     25  C   UNL     1      -0.906  10.447   1.933  0.00  0.00    +0.124 C 
ATOM     26  C   UNL     1      -0.723   9.863   0.528  0.00  0.00    +0.126 C 
ATOM     27  N   UNL     1      -0.815   8.398   0.615  0.00  0.00    -0.298 N 
ATOM     28  C   UNL     1      -1.977   7.813   1.301  0.00  0.00    +0.126 C 
ATOM     29  C   UNL     1      -2.108   8.477   2.680  0.00  0.00    +0.124 C 
ATOM     30  C   UNL     1       0.138   7.612   0.076  0.00  0.00    +0.219 C 
ATOM     31  O   UNL     1       1.134   8.109  -0.404  0.00  0.00    -0.275 OA
BRANCH  24  36
ATOM     32  C   UNL     1      -3.312  12.509   7.432  0.00  0.00    +0.044 C 
ATOM     33  C   UNL     1      -3.004  11.825   6.125  0.00  0.00    -0.050 A 
ATOM     34  C   UNL     1      -3.862  10.857   5.635  0.00  0.00    +0.005 A 
ATOM     35  C   UNL     1      -3.583  10.229   4.437  0.00  0.00    +0.023 A 
ATOM     36  C   UNL     1      -2.440  10.570   3.725  0.00  0.00    +0.030 A 
ATOM     37  C   UNL     1      -1.579  11.539   4.223  0.00  0.00    +0.023 A 
ATOM     38  C   UNL     1      -1.866  12.167   5.419  0.00  0.00    +0.005 A 
ENDBRANCH  24  36
ENDBRANCH   1  30
TORSDOF 5
