REMARK  Name = ZINC35681174
REMARK  9 active torsions:
REMARK  status: ('A' for Active; 'I' for Inactive)
REMARK    1  A    between atoms: C_1  and  C_2
REMARK    2  A    between atoms: C_5  and  C_8
REMARK    3  A    between atoms: C_9  and  C_10
REMARK    4  A    between atoms: N_12  and  C_13
REMARK    5  A    between atoms: C_13  and  N_15
REMARK    6  A    between atoms: N_15  and  C_16
REMARK    7  A    between atoms: C_19  and  S_22
REMARK    8  A    between atoms: S_22  and  N_25
REMARK    9  A    between atoms: N_28  and  C_31
REMARK                            x       y       z     vdW  Elec       q    Type
REMARK                         _______ _______ _______ _____ _____    ______ ____
ROOT
ATOM      1  N   UNL     1       0.142  -9.097   3.454  0.00  0.00    -0.297 N 
ATOM      2  H   UNL     1       0.727  -8.589   4.038  0.00  0.00    +0.154 HD
ENDROOT
BRANCH   1   3
ATOM      3  C   UNL     1       0.110 -10.493   3.540  0.00  0.00    +0.033 A 
ATOM      4  C   UNL     1       0.146 -11.262   2.384  0.00  0.00    +0.025 A 
ATOM      5  C   UNL     1       0.114 -12.640   2.471  0.00  0.00    +0.030 A 
ATOM      6  C   UNL     1       0.047 -13.254   3.708  0.00  0.00    +0.106 A 
ATOM      7  C   UNL     1       0.012 -12.491   4.861  0.00  0.00    +0.030 A 
ATOM      8  C   UNL     1       0.049 -11.113   4.781  0.00  0.00    +0.025 A 
BRANCH   6   9
ATOM      9  S   UNL     1       0.006 -15.012   3.815  0.00  0.00    +0.061 S 
ATOM     10  O   UNL     1      -0.606 -15.329   5.058  0.00  0.00    -0.153 OA
ATOM     11  O   UNL     1      -0.500 -15.483   2.574  0.00  0.00    -0.153 OA
BRANCH   9  12
ATOM     12  N   UNL     1       1.575 -15.533   3.915  0.00  0.00    -0.174 NA
ATOM     13  C   UNL     1       2.346 -15.843   2.701  0.00  0.00    +0.125 C 
ATOM     14  C   UNL     1       3.680 -15.092   2.767  0.00  0.00    +0.101 C 
ATOM     15  N   UNL     1       4.357 -15.412   4.031  0.00  0.00    -0.303 NA
ATOM     16  C   UNL     1       3.573 -14.953   5.186  0.00  0.00    +0.101 C 
ATOM     17  C   UNL     1       2.237 -15.693   5.219  0.00  0.00    +0.125 C 
ATOM     18  C   UNL     1       5.714 -14.850   4.058  0.00  0.00    +0.105 C 
ENDBRANCH   9  12
ENDBRANCH   6   9
ENDBRANCH   1   3
BRANCH   1  19
ATOM     19  C   UNL     1      -0.640  -8.458   2.562  0.00  0.00    +0.141 C 
ATOM     20  S   UNL     1      -1.591  -9.358   1.459  0.00  0.00    -0.018 S 
BRANCH  19  23
ATOM     21  C   UNL     1      -1.456  -6.473   1.645  0.00  0.00    +0.242 C 
ATOM     22  O   UNL     1      -2.131  -7.112   0.861  0.00  0.00    -0.270 OA
ATOM     23  N   UNL     1      -0.673  -7.111   2.538  0.00  0.00    -0.264 N 
ATOM     24  H   UNL     1      -0.135  -6.601   3.163  0.00  0.00    +0.157 HD
BRANCH  21  26
ATOM     25  C   UNL     1      -2.275  -4.371   0.725  0.00  0.00    +0.013 C 
ATOM     26  C   UNL     1      -1.492  -5.010   1.619  0.00  0.00    +0.068 C 
BRANCH  25  31
ATOM     27  C   UNL     1      -2.419   1.375   0.623  0.00  0.00    +0.044 C 
ATOM     28  C   UNL     1      -2.381  -0.131   0.650  0.00  0.00    -0.050 A 
ATOM     29  C   UNL     1      -3.151  -0.855  -0.244  0.00  0.00    +0.004 A 
ATOM     30  C   UNL     1      -3.122  -2.233  -0.226  0.00  0.00    +0.008 A 
ATOM     31  C   UNL     1      -2.311  -2.900   0.699  0.00  0.00    -0.025 A 
ATOM     32  C   UNL     1      -1.536  -2.161   1.599  0.00  0.00    +0.008 A 
ATOM     33  C   UNL     1      -1.573  -0.783   1.564  0.00  0.00    +0.004 A 
ENDBRANCH  25  31
ENDBRANCH  21  26
ENDBRANCH  19  23
ENDBRANCH   1  19
TORSDOF 7
