REMARK  Name = ZINC47405350
REMARK  5 active torsions:
REMARK  status: ('A' for Active; 'I' for Inactive)
REMARK    1  A    between atoms: C_1  and  C_2
REMARK    2  A    between atoms: C_6  and  C_7
REMARK    3  A    between atoms: C_7  and  N_8
REMARK    4  A    between atoms: N_8  and  C_9
REMARK    5  A    between atoms: C_10  and  C_15
REMARK                            x       y       z     vdW  Elec       q    Type
REMARK                         _______ _______ _______ _____ _____    ______ ____
ROOT
ATOM      1  N   UNL     1      -1.349  -0.028   3.053  0.00  0.00    -0.332 N 
ATOM      2  H   UNL     1      -2.089  -0.255   2.468  0.00  0.00    +0.147 HD
ENDROOT
BRANCH   1   3
ATOM      3  C   UNL     1      -1.595   0.437   4.330  0.00  0.00    +0.105 A 
ATOM      4  C   UNL     1      -2.824   0.641   4.961  0.00  0.00    +0.118 A 
ATOM      5  C   UNL     1      -2.727   1.125   6.267  0.00  0.00    +0.157 A 
ATOM      6  N   UNL     1      -1.530   1.327   6.744  0.00  0.00    -0.196 NA
ATOM      7  S   UNL     1      -0.491   0.888   5.510  0.00  0.00    +0.029 S 
ATOM      8 CL   UNL     1      -4.143   1.444   7.219  0.00  0.00    -0.060 Cl
BRANCH   4   9
ATOM      9  C   UNL     1      -4.078   0.379   4.321  0.00  0.00    +0.105 C 
ATOM     10  N   UNL     1      -5.073   0.171   3.814  0.00  0.00    -0.191 NA
ENDBRANCH   4   9
ENDBRANCH   1   3
BRANCH   1  11
ATOM     11  C   UNL     1       0.030  -0.179   2.581  0.00  0.00    +0.145 C 
BRANCH  11  17
ATOM     12  C   UNL     1      -0.018   1.503   0.010  0.00  0.00    +0.044 C 
ATOM     13  C   UNL     1       0.002  -0.004   0.002  0.00  0.00    -0.039 A 
ATOM     14  C   UNL     1       0.006  -0.699  -1.193  0.00  0.00    +0.011 A 
ATOM     15  C   UNL     1       0.024  -2.054  -1.165  0.00  0.00    +0.046 A 
ATOM     16  S   UNL     1       0.037  -2.387   0.589  0.00  0.00    -0.100 S 
ATOM     17  C   UNL     1       0.023  -0.698   1.166  0.00  0.00    +0.010 A 
ENDBRANCH  11  17
ENDBRANCH   1  11
TORSDOF 4
