REMARK  Name = ZINC36185588
REMARK  11 active torsions:
REMARK  status: ('A' for Active; 'I' for Inactive)
REMARK    1  A    between atoms: C_1  and  C_2
REMARK    2  A    between atoms: C_2  and  C_3
REMARK    3  A    between atoms: C_2  and  C_4
REMARK    4  A    between atoms: C_2  and  N_5
REMARK    5  A    between atoms: C_9  and  C_11
REMARK    6  A    between atoms: C_11  and  O_12
REMARK    7  A    between atoms: O_12  and  C_13
REMARK    8  A    between atoms: C_13  and  C_15
REMARK    9  A    between atoms: C_16  and  C_17
REMARK   10  A    between atoms: C_20  and  S_23
REMARK   11  A    between atoms: S_23  and  N_26
REMARK                            x       y       z     vdW  Elec       q    Type
REMARK                         _______ _______ _______ _____ _____    ______ ____
ROOT
ATOM      1  C   UNL     1       8.087  -0.090  -5.137  0.00  0.00    +0.092 C 
ATOM      2  C   UNL     1       8.860  -0.437  -6.187  0.00  0.00    +0.015 C 
ENDROOT
BRANCH   2   3
ATOM      3  C   UNL     1      10.252   0.036  -6.265  0.00  0.00    -0.025 A 
ATOM      4  C   UNL     1      10.778   0.840  -5.249  0.00  0.00    +0.010 A 
ATOM      5  C   UNL     1      12.083   1.279  -5.328  0.00  0.00    +0.029 A 
ATOM      6  C   UNL     1      12.871   0.926  -6.410  0.00  0.00    +0.109 A 
ATOM      7  C   UNL     1      12.357   0.131  -7.420  0.00  0.00    +0.029 A 
ATOM      8  C   UNL     1      11.056  -0.321  -7.352  0.00  0.00    +0.010 A 
BRANCH   6   9
ATOM      9  S   UNL     1      14.537   1.493  -6.503  0.00  0.00    +0.075 S 
ATOM     10  O   UNL     1      14.894   1.478  -7.878  0.00  0.00    -0.150 OA
ATOM     11  O   UNL     1      14.610   2.669  -5.709  0.00  0.00    -0.150 OA
BRANCH   9  12
ATOM     12  N   UNL     1      15.482   0.357  -5.756  0.00  0.00    -0.202 N 
ATOM     13  C   UNL     1      15.820   0.353  -4.330  0.00  0.00    +0.136 C 
ATOM     14  C   UNL     1      16.708  -0.887  -4.130  0.00  0.00    +0.058 C 
ATOM     15  C   UNL     1      16.807  -1.508  -5.505  0.00  0.00    -0.023 A 
ATOM     16  C   UNL     1      16.069  -0.738  -6.391  0.00  0.00    +0.054 A 
ATOM     17  C   UNL     1      16.006  -1.122  -7.732  0.00  0.00    +0.025 A 
ATOM     18  C   UNL     1      16.666  -2.253  -8.164  0.00  0.00    +0.002 A 
ATOM     19  C   UNL     1      17.396  -3.016  -7.271  0.00  0.00    +0.000 A 
ATOM     20  C   UNL     1      17.471  -2.638  -5.943  0.00  0.00    +0.005 A 
ENDBRANCH   9  12
ENDBRANCH   6   9
ENDBRANCH   2   3
BRANCH   1  21
ATOM     21  C   UNL     1       6.705  -0.560  -5.060  0.00  0.00    +0.332 C 
ATOM     22  O   UNL     1       6.251  -1.263  -5.943  0.00  0.00    -0.246 OA
BRANCH  21  23
ATOM     23  O   UNL     1       5.932  -0.214  -4.010  0.00  0.00    -0.452 OA
BRANCH  23  24
ATOM     24  C   UNL     1       4.591  -0.709  -3.999  0.00  0.00    +0.328 C 
BRANCH  24  29
ATOM     25  N   UNL     1       0.688  -0.476  -1.203  0.00  0.00    -0.294 N 
ATOM     26  C   UNL     1       1.972  -0.132  -1.427  0.00  0.00    +0.306 C 
ATOM     27  O   UNL     1       2.560   0.570  -0.629  0.00  0.00    -0.252 OA
ATOM     28  N   UNL     1       2.602  -0.567  -2.536  0.00  0.00    -0.237 N 
ATOM     29  C   UNL     1       3.886  -0.223  -2.760  0.00  0.00    +0.258 C 
ATOM     30  O   UNL     1       4.473   0.478  -1.963  0.00  0.00    -0.272 OA
ATOM     31  H   UNL     1       0.218  -1.037  -1.840  0.00  0.00    +0.151 HD
ATOM     32  H   UNL     1       2.132  -1.127  -3.173  0.00  0.00    +0.159 HD
BRANCH  25  34
ATOM     33  C   UNL     1      -0.019   1.526   0.010  0.00  0.00    +0.031 C 
ATOM     34  C   UNL     1       0.002  -0.004   0.002  0.00  0.00    +0.028 C 
ATOM     35  C   UNL     1       0.742  -0.511   1.242  0.00  0.00    +0.031 C 
ATOM     36  C   UNL     1      -1.433  -0.534   0.013  0.00  0.00    +0.031 C 
ENDBRANCH  25  34
ENDBRANCH  24  29
ENDBRANCH  23  24
ENDBRANCH  21  23
ENDBRANCH   1  21
TORSDOF 8
