REMARK  Name = ZINC03538082
REMARK  2 active torsions:
REMARK  status: ('A' for Active; 'I' for Inactive)
REMARK    1  A    between atoms: N_9  and  C_10
REMARK    2  A    between atoms: C_10  and  C_11
REMARK                            x       y       z     vdW  Elec       q    Type
REMARK                         _______ _______ _______ _____ _____    ______ ____
ROOT
ATOM      1  C   UNL     1      -1.967   4.687   0.041  0.00  0.00    -0.013 A 
ATOM      2  C   UNL     1      -1.664   6.010   0.046  0.00  0.00    +0.097 A 
ATOM      3  C   UNL     1      -0.314   6.421   0.033  0.00  0.00    +0.338 A 
ATOM      4  O   UNL     1      -0.056   7.611   0.038  0.00  0.00    -0.245 OA
ATOM      5  O   UNL     1       0.693   5.534   0.015  0.00  0.00    -0.422 OA
ATOM      6  C   UNL     1       0.460   4.204   0.008  0.00  0.00    +0.140 A 
ATOM      7  C   UNL     1      -0.862   3.724   0.021  0.00  0.00    +0.023 A 
ATOM      8  C   UNL     1      -1.102   2.349   0.011  0.00  0.00    +0.015 A 
ATOM      9  C   UNL     1      -0.052   1.470  -0.003  0.00  0.00    -0.043 A 
ATOM     10  C   UNL     1       1.254   1.939  -0.017  0.00  0.00    -0.041 A 
ATOM     11  C   UNL     1       1.510   3.297  -0.011  0.00  0.00    +0.051 A 
ATOM     12  C   UNL     1       2.215   0.768  -0.037  0.00  0.00    +0.036 C 
ATOM     13  C   UNL     1       1.379  -0.450   0.409  0.00  0.00    +0.009 C 
ATOM     14  C   UNL     1      -0.050  -0.045  -0.011  0.00  0.00    +0.036 C 
ENDROOT
BRANCH   1  15
ATOM     15  C   UNL     1      -3.400   4.221   0.055  0.00  0.00    +0.141 C 
BRANCH  15  24
ATOM     16  C   UNL     1      -7.756   2.837   2.046  0.00  0.00    +0.000 A 
ATOM     17  C   UNL     1      -7.226   2.465   0.824  0.00  0.00    +0.002 A 
ATOM     18  C   UNL     1      -5.903   2.724   0.532  0.00  0.00    +0.023 A 
ATOM     19  C   UNL     1      -5.091   3.362   1.468  0.00  0.00    +0.033 A 
ATOM     20  C   UNL     1      -5.635   3.737   2.691  0.00  0.00    -0.025 A 
ATOM     21  C   UNL     1      -6.957   3.473   2.978  0.00  0.00    +0.005 A 
ATOM     22  C   UNL     1      -4.547   4.420   3.496  0.00  0.00    +0.056 C 
ATOM     23  C   UNL     1      -3.478   4.740   2.427  0.00  0.00    +0.110 C 
ATOM     24  N   UNL     1      -3.738   3.716   1.392  0.00  0.00    -0.325 N 
ENDBRANCH  15  24
ENDBRANCH   1  15
TORSDOF 2
