REMARK  Name = ZINC38670860
REMARK  8 active torsions:
REMARK  status: ('A' for Active; 'I' for Inactive)
REMARK    1  A    between atoms: C_1  and  N_2
REMARK    2  A    between atoms: C_10  and  C_12
REMARK    3  A    between atoms: C_12  and  C_14
REMARK    4  A    between atoms: C_12  and  N_28
REMARK    5  A    between atoms: C_14  and  N_15
REMARK    6  A    between atoms: C_16  and  C_18
REMARK    7  A    between atoms: C_18  and  C_19
REMARK    8  A    between atoms: C_22  and  N_25
REMARK                            x       y       z     vdW  Elec       q    Type
REMARK                         _______ _______ _______ _____ _____    ______ ____
ROOT
ATOM      1  C   UNL     1       4.956  -2.731  -0.470  0.00  0.00    -0.020 C 
ENDROOT
BRANCH   1  11
ATOM      2  C   UNL     1      -0.115   1.225   0.628  0.00  0.00    +0.129 C 
ATOM      3  N   UNL     1      -0.043  -0.232   0.500  0.00  0.00    -0.333 N 
ATOM      4  C   UNL     1      -1.256  -1.053   0.612  0.00  0.00    +0.105 C 
ATOM      5  C   UNL     1      -0.927  -2.255   1.508  0.00  0.00    +0.024 C 
ATOM      6  C   UNL     1       0.149  -3.099   0.825  0.00  0.00    +0.038 C 
ATOM      7  C   UNL     1       1.315  -2.237   0.416  0.00  0.00    -0.026 A 
ATOM      8  C   UNL     1       1.183  -0.865   0.261  0.00  0.00    +0.033 A 
ATOM      9  C   UNL     1       2.276  -0.098  -0.128  0.00  0.00    +0.023 A 
ATOM     10  C   UNL     1       3.494  -0.703  -0.364  0.00  0.00    +0.004 A 
ATOM     11  C   UNL     1       3.626  -2.071  -0.214  0.00  0.00    -0.059 A 
ATOM     12  C   UNL     1       2.541  -2.836   0.184  0.00  0.00    +0.007 A 
ENDBRANCH   1  11
BRANCH   1  13
ATOM     13  N   UNL     1       5.589  -2.117  -1.645  0.00  0.00    +0.385 N 
ATOM     14  C   UNL     1       4.696  -2.247  -2.803  0.00  0.00    -0.078 C 
ATOM     15  C   UNL     1       5.314  -1.538  -4.011  0.00  0.00    -0.019 C 
ATOM     16  C   UNL     1       6.668  -2.178  -4.333  0.00  0.00    -0.004 C 
ATOM     17  C   UNL     1       7.565  -2.103  -3.094  0.00  0.00    -0.019 C 
ATOM     18  C   UNL     1       6.864  -2.790  -1.921  0.00  0.00    -0.078 C 
ATOM     19  H   UNL     1       5.759  -1.139  -1.462  0.00  0.00    -0.081 HD
ENDBRANCH   1  13
BRANCH   1  20
ATOM     20  C   UNL     1       5.861  -2.547   0.750  0.00  0.00    +0.093 C 
BRANCH  20  21
ATOM     21  N   UNL     1       5.276  -3.241   1.900  0.00  0.00    -0.316 N 
ATOM     22  C   UNL     1       5.947  -3.294   3.068  0.00  0.00    +0.217 C 
ATOM     23  O   UNL     1       7.035  -2.767   3.166  0.00  0.00    -0.275 OA
ATOM     24  H   UNL     1       4.406  -3.662   1.821  0.00  0.00    +0.149 HD
BRANCH  22  25
ATOM     25  C   UNL     1       5.346  -4.008   4.251  0.00  0.00    +0.130 C 
BRANCH  25  26
ATOM     26  C   UNL     1       6.290  -3.922   5.422  0.00  0.00    -0.038 A 
ATOM     27  C   UNL     1       7.251  -4.898   5.609  0.00  0.00    +0.006 A 
ATOM     28  C   UNL     1       8.117  -4.819   6.683  0.00  0.00    +0.033 A 
ATOM     29  C   UNL     1       8.022  -3.764   7.572  0.00  0.00    +0.126 A 
ATOM     30  C   UNL     1       7.061  -2.788   7.385  0.00  0.00    +0.033 A 
ATOM     31  C   UNL     1       6.198  -2.864   6.308  0.00  0.00    +0.006 A 
BRANCH  29  32
ATOM     32  N   UNL     1       8.948  -3.680   8.723  0.00  0.00    +0.056 N 
ATOM     33  O   UNL     1       9.789  -4.534   8.886  0.00  0.00    -0.126 OA
ATOM     34  O   UNL     1       8.865  -2.757   9.500  0.00  0.00    -0.126 OA
ENDBRANCH  29  32
ENDBRANCH  25  26
ENDBRANCH  22  25
ENDBRANCH  20  21
ENDBRANCH   1  20
TORSDOF 7
