REMARK  Name = ZINC63684149
REMARK  10 active torsions:
REMARK  status: ('A' for Active; 'I' for Inactive)
REMARK    1  A    between atoms: C_1  and  C_2
REMARK    2  A    between atoms: C_2  and  C_3
REMARK    3  A    between atoms: C_8  and  N_9
REMARK    4  A    between atoms: C_10  and  C_12
REMARK    5  A    between atoms: C_12  and  S_13
REMARK    6  A    between atoms: S_13  and  C_14
REMARK    7  A    between atoms: C_18  and  C_21
REMARK    8  A    between atoms: C_21  and  C_23
REMARK    9  A    between atoms: C_21  and  N_33
REMARK   10  A    between atoms: C_23  and  C_24
REMARK                            x       y       z     vdW  Elec       q    Type
REMARK                         _______ _______ _______ _____ _____    ______ ____
ROOT
ATOM      1  C   UNL     1      -1.593  -0.299  -7.719  0.00  0.00    +0.319 C 
ATOM      2  N   UNL     1      -1.147   1.100  -7.697  0.00  0.00    -0.146 NA
ATOM      3  N   UNL     1       0.044   1.172  -8.027  0.00  0.00    -0.159 NA
ATOM      4  C   UNL     1       0.569  -0.168  -8.318  0.00  0.00    +0.246 C 
ATOM      5  O   UNL     1      -0.382  -1.084  -7.733  0.00  0.00    -0.320 OA
ENDROOT
BRANCH   1   6
ATOM      6  S   UNL     1      -2.568  -0.672  -6.236  0.00  0.00    -0.095 S 
BRANCH   6   7
ATOM      7  C   UNL     1      -1.451  -0.272  -4.864  0.00  0.00    +0.169 C 
BRANCH   7   9
ATOM      8  N   UNL     1      -1.505  -0.315  -2.391  0.00  0.00    -0.285 N 
ATOM      9  C   UNL     1      -2.147  -0.541  -3.555  0.00  0.00    +0.227 C 
ATOM     10  O   UNL     1      -3.285  -0.961  -3.548  0.00  0.00    -0.275 OA
ATOM     11  H   UNL     1      -0.620   0.082  -2.395  0.00  0.00    +0.155 HD
BRANCH   8  17
ATOM     12  C   UNL     1      -1.349  -1.119  -0.119  0.00  0.00    -0.026 A 
ATOM     13  C   UNL     1      -1.954  -1.445   1.079  0.00  0.00    +0.005 A 
ATOM     14  C   UNL     1      -3.322  -1.313   1.222  0.00  0.00    +0.000 A 
ATOM     15  C   UNL     1      -4.090  -0.854   0.168  0.00  0.00    +0.002 A 
ATOM     16  C   UNL     1      -3.491  -0.525  -1.033  0.00  0.00    +0.023 A 
ATOM     17  C   UNL     1      -2.116  -0.652  -1.178  0.00  0.00    +0.037 A 
BRANCH  12  19
ATOM     18  C   UNL     1       0.819   0.078   0.019  0.00  0.00    +0.009 C 
ATOM     19  C   UNL     1       0.143  -1.263  -0.275  0.00  0.00    +0.033 C 
ENDBRANCH  12  19
ENDBRANCH   8  17
ENDBRANCH   7   9
ENDBRANCH   6   7
ENDBRANCH   1   6
BRANCH   4  20
ATOM     20  C   UNL     1       0.657  -0.388  -9.829  0.00  0.00    -0.017 C 
BRANCH  20  21
ATOM     21  N   UNL     1      -0.676  -0.223 -10.426  0.00  0.00    +0.383 N 
ATOM     22  H   UNL     1      -0.618  -0.367 -11.423  0.00  0.00    -0.089 HD
ATOM     23  H   UNL     1      -1.310  -0.898 -10.024  0.00  0.00    -0.089 HD
ATOM     24  H   UNL     1      -1.015   0.709 -10.240  0.00  0.00    -0.089 HD
ENDBRANCH  20  21
BRANCH  20  25
ATOM     25  C   UNL     1       1.618   0.635 -10.438  0.00  0.00    +0.021 C 
BRANCH  25  26
ATOM     26  C   UNL     1       1.799   0.343 -11.905  0.00  0.00    -0.043 C 
ATOM     27  C   UNL     1       1.128   0.907 -12.936  0.00  0.00    -0.001 A 
ATOM     28  C   UNL     1       0.068   1.920 -12.996  0.00  0.00    +0.010 A 
ATOM     29  C   UNL     1      -0.418   2.290 -14.203  0.00  0.00    +0.001 A 
ATOM     30  C   UNL     1       0.064   1.731 -15.395  0.00  0.00    +0.002 A 
ATOM     31  C   UNL     1       1.036   0.794 -15.419  0.00  0.00    +0.026 A 
ATOM     32  C   UNL     1       1.620   0.332 -14.208  0.00  0.00    +0.043 A 
ATOM     33  N   UNL     1       2.559  -0.553 -13.973  0.00  0.00    -0.380 N 
ATOM     34  C   UNL     1       2.773  -0.634 -12.524  0.00  0.00    +0.144 C 
ATOM     35  H   UNL     1       3.035  -1.065 -14.646  0.00  0.00    +0.160 HD
ENDBRANCH  25  26
ENDBRANCH  20  25
ENDBRANCH   4  20
TORSDOF 9
