REMARK  Name = ZINC00916833
REMARK  9 active torsions:
REMARK  status: ('A' for Active; 'I' for Inactive)
REMARK    1  A    between atoms: C_1  and  C_2
REMARK    2  A    between atoms: C_2  and  C_3
REMARK    3  A    between atoms: C_10  and  C_15
REMARK    4  A    between atoms: C_15  and  N_16
REMARK    5  A    between atoms: N_16  and  C_17
REMARK    6  A    between atoms: N_16  and  C_23
REMARK    7  A    between atoms: C_23  and  N_25
REMARK    8  A    between atoms: N_25  and  C_26
REMARK    9  A    between atoms: C_26  and  C_27
REMARK                            x       y       z     vdW  Elec       q    Type
REMARK                         _______ _______ _______ _____ _____    ______ ____
ROOT
ATOM      1  C   UNL     1       0.152   0.540   0.211  0.00  0.00    -0.047 A 
ATOM      2  C   UNL     1       0.213   1.920   0.065  0.00  0.00    +0.005 A 
ATOM      3  C   UNL     1       1.426   2.558  -0.081  0.00  0.00    +0.026 A 
ATOM      4  C   UNL     1       2.602   1.815  -0.082  0.00  0.00    +0.049 A 
ATOM      5  C   UNL     1       2.535   0.417   0.066  0.00  0.00    -0.001 A 
ATOM      6  C   UNL     1       1.294  -0.210   0.212  0.00  0.00    +0.013 A 
ATOM      7  C   UNL     1       3.779  -0.356   0.064  0.00  0.00    +0.020 A 
ATOM      8  C   UNL     1       4.953   0.306  -0.081  0.00  0.00    +0.035 A 
ATOM      9  C   UNL     1       4.965   1.710  -0.226  0.00  0.00    +0.254 A 
ATOM     10  O   UNL     1       6.031   2.285  -0.354  0.00  0.00    -0.268 OA
ATOM     11  N   UNL     1       3.828   2.428  -0.225  0.00  0.00    -0.322 N 
ATOM     12  H   UNL     1       3.873   3.422  -0.329  0.00  0.00    +0.169 HD
ENDROOT
BRANCH   1  14
ATOM     13  C   UNL     1      -1.734  -0.511  -1.009  0.00  0.00    +0.009 C 
ATOM     14  C   UNL     1      -1.186  -0.135   0.369  0.00  0.00    +0.032 C 
ENDBRANCH   1  14
BRANCH   8  15
ATOM     15  C   UNL     1       6.251  -0.460  -0.087  0.00  0.00    +0.147 C 
BRANCH  15  16
ATOM     16  N   UNL     1       6.643  -0.746  -1.470  0.00  0.00    -0.305 N 
BRANCH  16  17
ATOM     17  C   UNL     1       7.483   0.204  -2.204  0.00  0.00    +0.075 C 
ATOM     18  C   UNL     1       6.793   0.587  -3.515  0.00  0.00    +0.022 C 
ATOM     19  C   UNL     1       7.671   1.578  -4.282  0.00  0.00    +0.002 C 
ATOM     20  C   UNL     1       9.024   0.932  -4.587  0.00  0.00    +0.000 C 
ATOM     21  C   UNL     1       9.713   0.549  -3.276  0.00  0.00    +0.002 C 
ATOM     22  C   UNL     1       8.836  -0.443  -2.509  0.00  0.00    +0.022 C 
ENDBRANCH  16  17
BRANCH  16  23
ATOM     23  C   UNL     1       6.230  -1.882  -2.066  0.00  0.00    +0.133 C 
ATOM     24  S   UNL     1       5.150  -2.932  -1.253  0.00  0.00    -0.019 S 
BRANCH  23  25
ATOM     25  N   UNL     1       6.667  -2.191  -3.303  0.00  0.00    -0.327 N 
ATOM     26  H   UNL     1       7.333  -1.634  -3.735  0.00  0.00    +0.148 HD
BRANCH  25  27
ATOM     27  C   UNL     1       6.137  -3.368  -3.995  0.00  0.00    +0.100 C 
ATOM     28  C   UNL     1       6.794  -3.491  -5.371  0.00  0.00    +0.024 C 
ENDBRANCH  25  27
ENDBRANCH  23  25
ENDBRANCH  16  23
ENDBRANCH  15  16
ENDBRANCH   8  15
TORSDOF 7
