REMARK  Name = ZINC14076533
REMARK  6 active torsions:
REMARK  status: ('A' for Active; 'I' for Inactive)
REMARK    1  A    between atoms: C_3  and  C_6
REMARK    2  A    between atoms: C_9  and  C_11
REMARK    3  A    between atoms: C_11  and  O_12
REMARK    4  A    between atoms: O_12  and  C_13
REMARK    5  A    between atoms: C_13  and  C_15
REMARK    6  A    between atoms: C_20  and  N_21
REMARK                            x       y       z     vdW  Elec       q    Type
REMARK                         _______ _______ _______ _____ _____    ______ ____
ROOT
ATOM      1  C   UNL     1      -2.350   4.803   0.077  0.00  0.00    +0.342 C 
ATOM      2  O   UNL     1      -2.225   6.009  -0.003  0.00  0.00    -0.245 OA
ENDROOT
BRANCH   1   3
ATOM      3  C   UNL     1      -1.159   3.937   0.047  0.00  0.00    +0.082 A 
ATOM      4  C   UNL     1      -1.302   2.546   0.014  0.00  0.00    +0.037 A 
ATOM      5  C   UNL     1      -0.184   1.740  -0.009  0.00  0.00    +0.043 A 
ATOM      6  C   UNL     1       1.085   2.302  -0.010  0.00  0.00    +0.042 A 
ATOM      7  C   UNL     1       1.242   3.673   0.018  0.00  0.00    +0.064 A 
ATOM      8  C   UNL     1       0.126   4.502   0.046  0.00  0.00    +0.057 A 
ATOM      9 CL   UNL     1       2.835   4.364   0.017  0.00  0.00    -0.082 Cl
ATOM     10 CL   UNL     1      -0.364   0.014  -0.044  0.00  0.00    -0.083 Cl
BRANCH   8  11
ATOM     11  N   UNL     1       0.281   5.882   0.074  0.00  0.00    -0.356 N 
ATOM     12  H   UNL     1       1.167   6.269   0.157  0.00  0.00    +0.142 HD
ATOM     13  H   UNL     1      -0.496   6.459   0.011  0.00  0.00    +0.142 HD
ENDBRANCH   8  11
ENDBRANCH   1   3
BRANCH   1  14
ATOM     14  O   UNL     1      -3.577   4.258   0.194  0.00  0.00    -0.451 OA
BRANCH  14  15
ATOM     15  C   UNL     1      -4.705   5.173   0.217  0.00  0.00    +0.329 C 
BRANCH  15  19
ATOM     16  C   UNL     1      -7.779   3.277  -0.091  0.00  0.00    +0.284 A 
ATOM     17  N   UNL     1      -7.638   3.386   1.213  0.00  0.00    -0.104 NA
ATOM     18  N   UNL     1      -6.563   4.045   1.468  0.00  0.00    -0.108 NA
ATOM     19  C   UNL     1      -5.984   4.388   0.351  0.00  0.00    +0.255 A 
ATOM     20  O   UNL     1      -6.733   3.911  -0.659  0.00  0.00    -0.414 OA
BRANCH  16  23
ATOM     21  C   UNL     1     -10.722   1.448  -1.255  0.00  0.00    +0.042 A 
ATOM     22  C   UNL     1      -9.926   1.954  -0.211  0.00  0.00    +0.055 A 
ATOM     23  C   UNL     1      -8.873   2.592  -0.795  0.00  0.00    +0.191 A 
ATOM     24  O   UNL     1      -9.012   2.491  -2.132  0.00  0.00    -0.458 OA
ATOM     25  C   UNL     1     -10.125   1.796  -2.413  0.00  0.00    +0.196 A 
ENDBRANCH  16  23
ENDBRANCH  15  19
ENDBRANCH  14  15
ENDBRANCH   1  14
TORSDOF 6
