REMARK  Name = ZINC50152412
REMARK  7 active torsions:
REMARK  status: ('A' for Active; 'I' for Inactive)
REMARK    1  A    between atoms: C_1  and  C_2
REMARK    2  A    between atoms: C_2  and  C_4
REMARK    3  A    between atoms: C_2  and  N_12
REMARK    4  A    between atoms: C_4  and  C_6
REMARK    5  A    between atoms: N_12  and  C_13
REMARK    6  A    between atoms: N_12  and  C_14
REMARK    7  A    between atoms: C_14  and  C_15
REMARK                            x       y       z     vdW  Elec       q    Type
REMARK                         _______ _______ _______ _____ _____    ______ ____
ROOT
ATOM      1  C   UNL     1      -0.019   1.526   0.010  0.00  0.00    -0.005 C 
ATOM      2  C   UNL     1       0.002  -0.004   0.002  0.00  0.00    +0.002 C 
ENDROOT
BRANCH   2   3
ATOM      3  N   UNL     1       0.713  -0.491   1.192  0.00  0.00    +0.387 N 
ATOM      4  C   UNL     1       0.733  -1.960   1.184  0.00  0.00    -0.095 C 
ATOM      5  H   UNL     1       0.240  -0.165   2.022  0.00  0.00    -0.081 HD
BRANCH   3   6
ATOM      6  C   UNL     1       2.091   0.018   1.182  0.00  0.00    -0.042 C 
BRANCH   6   7
ATOM      7  C   UNL     1       2.782  -0.379   2.461  0.00  0.00    -0.056 A 
ATOM      8  C   UNL     1       2.731   0.445   3.570  0.00  0.00    +0.024 A 
ATOM      9  C   UNL     1       3.364   0.058   4.705  0.00  0.00    +0.055 A 
ATOM     10  S   UNL     1       4.062  -1.512   4.222  0.00  0.00    -0.090 S 
ATOM     11  C   UNL     1       3.459  -1.550   2.542  0.00  0.00    +0.048 A 
ATOM     12 BR   UNL     1       3.478   0.950   6.369  0.00  0.00    -0.043 Br
ENDBRANCH   6   7
ENDBRANCH   3   6
ENDBRANCH   2   3
BRANCH   2  13
ATOM     13  C   UNL     1      -1.412  -0.526   0.013  0.00  0.00    +0.156 C 
ATOM     14  O   UNL     1      -1.908  -0.913   1.051  0.00  0.00    -0.293 OA
BRANCH  13  15
ATOM     15  C   UNL     1      -2.158  -0.564  -1.184  0.00  0.00    +0.054 A 
ATOM     16  C   UNL     1      -3.466  -0.998  -1.389  0.00  0.00    +0.020 A 
ATOM     17  C   UNL     1      -3.924  -0.914  -2.678  0.00  0.00    +0.028 A 
ATOM     18  C   UNL     1      -3.098  -0.428  -3.643  0.00  0.00    +0.079 A 
ATOM     19  S   UNL     1      -1.677  -0.063  -2.825  0.00  0.00    -0.074 S 
ATOM     20 CL   UNL     1      -3.438  -0.224  -5.333  0.00  0.00    -0.076 Cl
ENDBRANCH  13  15
ENDBRANCH   2  13
TORSDOF 5
