REMARK  Name = ZINC38550926
REMARK  4 active torsions:
REMARK  status: ('A' for Active; 'I' for Inactive)
REMARK    1  A    between atoms: C_1  and  C_2
REMARK    2  A    between atoms: C_4  and  C_23
REMARK    3  A    between atoms: N_19  and  C_20
REMARK    4  A    between atoms: C_20  and  C_21
REMARK                            x       y       z     vdW  Elec       q    Type
REMARK                         _______ _______ _______ _____ _____    ______ ____
ROOT
ATOM      1  C   UNL     1      -0.030   1.499   0.007  0.00  0.00    +0.044 C 
ATOM      2  C   UNL     1      -0.005  -0.008  -0.001  0.00  0.00    -0.048 A 
ATOM      3  C   UNL     1       0.003  -0.679  -1.215  0.00  0.00    +0.008 A 
ATOM      4  C   UNL     1       0.026  -2.062  -1.224  0.00  0.00    -0.034 A 
ATOM      5  C   UNL     1       0.040  -2.747  -0.035  0.00  0.00    +0.044 A 
ATOM      6  C   UNL     1       0.032  -2.097   1.220  0.00  0.00    +0.081 A 
ATOM      7  C   UNL     1       0.014  -0.684   1.191  0.00  0.00    +0.032 A 
ATOM      8  N   UNL     1       0.047  -2.909   2.300  0.00  0.00    -0.225 NA
ATOM      9  C   UNL     1       0.068  -4.219   2.197  0.00  0.00    +0.162 A 
ATOM     10  S   UNL     1       0.069  -4.462   0.426  0.00  0.00    -0.052 S 
ATOM     11  N   UNL     1       0.086  -5.166   3.201  0.00  0.00    -0.307 N 
ATOM     12  C   UNL     1       0.115  -6.599   2.877  0.00  0.00    +0.126 C 
ATOM     13  C   UNL     1       1.321  -7.235   3.578  0.00  0.00    +0.128 C 
ATOM     14  N   UNL     1       1.311  -6.829   4.991  0.00  0.00    -0.283 N 
ATOM     15  C   UNL     1       1.282  -5.395   5.315  0.00  0.00    +0.128 C 
ATOM     16  C   UNL     1       0.082  -4.759   4.613  0.00  0.00    +0.126 C 
ATOM     17  C   UNL     1       1.328  -7.753   5.971  0.00  0.00    +0.303 C 
ATOM     18  O   UNL     1       1.256  -8.935   5.694  0.00  0.00    -0.253 OA
ATOM     19  N   UNL     1       1.425  -7.368   7.259  0.00  0.00    -0.296 N 
ATOM     20  C   UNL     1       0.035  -2.811  -2.531  0.00  0.00    +0.045 C 
ATOM     21  H   UNL     1       1.410  -6.425   7.486  0.00  0.00    +0.151 HD
ENDROOT
BRANCH  19  22
ATOM     22  C   UNL     1       1.554  -8.374   8.316  0.00  0.00    +0.132 C 
BRANCH  22  23
ATOM     23  C   UNL     1       1.644  -7.687   9.655  0.00  0.00    -0.016 C 
ATOM     24  C   UNL     1       0.805  -8.001  10.610  0.00  0.00    +0.005 C 
ENDBRANCH  22  23
ENDBRANCH  19  22
TORSDOF 2
