REMARK  Name = ZINC52811599
REMARK  3 active torsions:
REMARK  status: ('A' for Active; 'I' for Inactive)
REMARK    1  A    between atoms: C_7  and  N_12
REMARK    2  A    between atoms: C_17  and  C_19
REMARK    3  A    between atoms: C_19  and  O_20
REMARK                            x       y       z     vdW  Elec       q    Type
REMARK                         _______ _______ _______ _____ _____    ______ ____
ROOT
ATOM      1  C   UNL     1       2.288  -2.427   3.757  0.00  0.00    +0.001 A 
ATOM      2  C   UNL     1       3.445  -1.654   3.782  0.00  0.00    +0.002 A 
ATOM      3  C   UNL     1       3.908  -1.045   2.653  0.00  0.00    +0.028 A 
ATOM      4  C   UNL     1       3.209  -1.199   1.448  0.00  0.00    +0.077 A 
ATOM      5  C   UNL     1       2.032  -1.987   1.425  0.00  0.00    +0.040 A 
ATOM      6  C   UNL     1       1.584  -2.598   2.601  0.00  0.00    +0.013 A 
ATOM      7  C   UNL     1       1.345  -2.127   0.195  0.00  0.00    +0.134 A 
ATOM      8  N   UNL     1       1.838  -1.514  -0.873  0.00  0.00    -0.202 NA
ATOM      9  C   UNL     1       2.943  -0.787  -0.803  0.00  0.00    +0.225 A 
ATOM     10  N   UNL     1       3.621  -0.623   0.309  0.00  0.00    -0.217 NA
ATOM     11 CL   UNL     1       3.522  -0.019  -2.248  0.00  0.00    -0.041 Cl
ENDROOT
BRANCH   7  12
ATOM     12  N   UNL     1       0.194  -2.881   0.109  0.00  0.00    -0.309 N 
ATOM     13  C   UNL     1      -1.126  -2.251   0.251  0.00  0.00    +0.107 C 
ATOM     14  C   UNL     1      -1.982  -2.620  -0.965  0.00  0.00    +0.019 C 
ATOM     15  C   UNL     1      -2.025  -4.142  -1.111  0.00  0.00    +0.003 C 
ATOM     16  C   UNL     1      -0.608  -4.675  -1.338  0.00  0.00    +0.025 C 
ATOM     17  C   UNL     1       0.263  -4.329  -0.132  0.00  0.00    +0.100 C 
BRANCH  17  18
ATOM     18  C   UNL     1       1.712  -4.732  -0.416  0.00  0.00    +0.178 C 
BRANCH  18  19
ATOM     19  O   UNL     1       2.144  -4.129  -1.637  0.00  0.00    -0.393 OA
ATOM     20  H   UNL     1       3.055  -4.343  -1.880  0.00  0.00    +0.209 HD
ENDBRANCH  18  19
ENDBRANCH  17  18
ENDBRANCH   7  12
TORSDOF 3
