REMARK  Name = ZINC64137506
REMARK  7 active torsions:
REMARK  status: ('A' for Active; 'I' for Inactive)
REMARK    1  A    between atoms: C_7  and  C_10
REMARK    2  A    between atoms: C_10  and  C_12
REMARK    3  A    between atoms: C_10  and  C_29
REMARK    4  A    between atoms: C_12  and  N_13
REMARK    5  A    between atoms: C_14  and  C_16
REMARK    6  A    between atoms: C_16  and  C_17
REMARK    7  A    between atoms: C_17  and  N_18
REMARK                            x       y       z     vdW  Elec       q    Type
REMARK                         _______ _______ _______ _____ _____    ______ ____
ROOT
ATOM      1  C   UNL     1       0.923  -4.026  -1.281  0.00  0.00    +0.117 C 
ENDROOT
BRANCH   1   2
ATOM      2  N   UNL     1      -0.070  -5.102  -1.340  0.00  0.00    -0.314 N 
ATOM      3  C   UNL     1      -0.058  -5.974  -2.367  0.00  0.00    +0.215 C 
ATOM      4  O   UNL     1       0.774  -5.869  -3.243  0.00  0.00    -0.276 OA
ATOM      5  H   UNL     1      -0.735  -5.186  -0.639  0.00  0.00    +0.149 HD
BRANCH   3   6
ATOM      6  C   UNL     1      -1.080  -7.080  -2.428  0.00  0.00    +0.115 C 
BRANCH   6   7
ATOM      7  C   UNL     1      -0.847  -7.921  -3.685  0.00  0.00    +0.123 C 
BRANCH   7   8
ATOM      8  N   UNL     1      -1.840  -8.997  -3.744  0.00  0.00    -0.265 N 
ATOM      9  C   UNL     1      -1.580 -10.239  -3.147  0.00  0.00    +0.078 A 
ATOM     10  C   UNL     1      -0.550 -10.383  -2.232  0.00  0.00    +0.027 A 
ATOM     11  C   UNL     1      -0.310 -11.617  -1.656  0.00  0.00    +0.002 A 
ATOM     12  C   UNL     1      -1.095 -12.705  -1.990  0.00  0.00    +0.004 A 
ATOM     13  C   UNL     1      -2.126 -12.567  -2.902  0.00  0.00    +0.047 A 
ATOM     14  C   UNL     1      -2.373 -11.335  -3.482  0.00  0.00    +0.142 A 
ATOM     15  O   UNL     1      -3.384 -11.181  -4.379  0.00  0.00    -0.481 OA
ATOM     16  C   UNL     1      -4.045  -9.912  -4.390  0.00  0.00    +0.325 C 
ATOM     17  C   UNL     1      -3.022  -8.805  -4.369  0.00  0.00    +0.258 C 
ATOM     18  O   UNL     1      -3.258  -7.748  -4.915  0.00  0.00    -0.272 OA
ENDBRANCH   7   8
ENDBRANCH   6   7
ENDBRANCH   3   6
ENDBRANCH   1   2
BRANCH   1  19
ATOM     19  C   UNL     1       0.691  -3.186  -0.024  0.00  0.00    +0.071 C 
BRANCH  19  26
ATOM     20  C   UNL     1      -0.016   1.348   0.009  0.00  0.00    +0.001 A 
ATOM     21  C   UNL     1       1.166   2.101   0.002  0.00  0.00    +0.002 A 
ATOM     22  C   UNL     1       2.391   1.535  -0.013  0.00  0.00    +0.026 A 
ATOM     23  C   UNL     1       2.529   0.120  -0.022  0.00  0.00    +0.043 A 
ATOM     24  N   UNL     1       3.587  -0.654  -0.037  0.00  0.00    -0.380 N 
ATOM     25  C   UNL     1       3.143  -2.053  -0.041  0.00  0.00    +0.145 C 
ATOM     26  C   UNL     1       1.631  -2.008  -0.025  0.00  0.00    -0.032 C 
ATOM     27  C   UNL     1       1.295  -0.698  -0.014  0.00  0.00    -0.000 A 
ATOM     28  C   UNL     1       0.002  -0.004   0.002  0.00  0.00    +0.010 A 
ATOM     29  H   UNL     1       4.509  -0.353  -0.045  0.00  0.00    +0.160 HD
ENDBRANCH  19  26
BRANCH  19  30
ATOM     30  C   UNL     1       0.944  -4.029   1.199  0.00  0.00    -0.002 A 
ATOM     31  C   UNL     1       0.093  -4.353   2.203  0.00  0.00    +0.012 A 
ATOM     32  C   UNL     1       0.548  -5.151   3.236  0.00  0.00    +0.008 A 
ATOM     33  C   UNL     1       1.832  -5.586   3.214  0.00  0.00    +0.045 A 
ATOM     34  S   UNL     1       2.439  -4.867   1.697  0.00  0.00    -0.101 S 
ENDBRANCH  19  30
ENDBRANCH   1  19
TORSDOF 7
