REMARK  Name = ZINC12139329
REMARK  11 active torsions:
REMARK  status: ('A' for Active; 'I' for Inactive)
REMARK    1  A    between atoms: C_1  and  C_2
REMARK    2  A    between atoms: C_2  and  C_3
REMARK    3  A    between atoms: C_10  and  N_34
REMARK    4  A    between atoms: C_11  and  C_32
REMARK    5  A    between atoms: C_12  and  C_14
REMARK    6  A    between atoms: C_18  and  O_29
REMARK    7  A    between atoms: C_19  and  O_20
REMARK    8  A    between atoms: O_20  and  C_21
REMARK    9  A    between atoms: C_21  and  C_22
REMARK   10  A    between atoms: O_29  and  C_30
REMARK   11  A    between atoms: C_30  and  C_31
REMARK                            x       y       z     vdW  Elec       q    Type
REMARK                         _______ _______ _______ _____ _____    ______ ____
ROOT
ATOM      1  C   UNL     1       2.513   0.133   0.186  0.00  0.00    +0.011 A 
ATOM      2  C   UNL     1       2.396   1.503   0.329  0.00  0.00    +0.008 A 
ATOM      3  C   UNL     1       1.165   2.115   0.176  0.00  0.00    +0.004 A 
ATOM      4  C   UNL     1       0.046   1.358  -0.120  0.00  0.00    +0.049 A 
ATOM      5  C   UNL     1       0.157  -0.015  -0.265  0.00  0.00    +0.162 A 
ATOM      6  C   UNL     1       1.396  -0.630  -0.111  0.00  0.00    +0.166 A 
ENDROOT
BRANCH   1  16
ATOM      7  C   UNL     1       3.491  -1.836   2.593  0.00  0.00    +0.070 A 
ATOM      8  C   UNL     1       3.714  -1.752   1.225  0.00  0.00    +0.050 A 
ATOM      9  C   UNL     1       3.795  -3.024   0.730  0.00  0.00    +0.222 A 
ATOM     10  N   UNL     1       3.626  -3.871   1.758  0.00  0.00    -0.246 N 
ATOM     11  H   UNL     1       3.633  -4.869   1.705  0.00  0.00    +0.192 HD
ATOM     12  N   UNL     1       3.437  -3.105   2.919  0.00  0.00    -0.176 NA
ATOM     13  O   UNL     1       4.012  -3.286  -0.583  0.00  0.00    -0.423 OA
ATOM     14  C   UNL     1       4.422  -2.267  -1.364  0.00  0.00    +0.200 C 
ATOM     15  C   UNL     1       4.379  -0.968  -0.991  0.00  0.00    +0.098 C 
ATOM     16  C   UNL     1       3.856  -0.530   0.354  0.00  0.00    +0.105 C 
BRANCH  14  17
ATOM     17  N   UNL     1       4.912  -2.564  -2.611  0.00  0.00    -0.328 N 
ATOM     18  H   UNL     1       4.955  -3.487  -2.908  0.00  0.00    +0.145 HD
ATOM     19  H   UNL     1       5.214  -1.852  -3.197  0.00  0.00    +0.145 HD
ENDBRANCH  14  17
BRANCH   7  21
ATOM     20  C   UNL     1       1.878  -0.217   3.555  0.00  0.00    +0.010 C 
ATOM     21  C   UNL     1       3.339  -0.672   3.537  0.00  0.00    +0.054 C 
ENDBRANCH   7  21
BRANCH  15  22
ATOM     22  C   UNL     1       4.847   0.028  -1.907  0.00  0.00    +0.101 C 
ATOM     23  N   UNL     1       5.218   0.819  -2.633  0.00  0.00    -0.191 NA
ENDBRANCH  15  22
ENDBRANCH   1  16
BRANCH   6  24
ATOM     24  O   UNL     1       1.509  -1.978  -0.253  0.00  0.00    -0.483 OA
BRANCH  24  25
ATOM     25  C   UNL     1       1.517  -2.492  -1.586  0.00  0.00    +0.266 C 
BRANCH  25  26
ATOM     26  C   UNL     1       1.499  -3.998  -1.544  0.00  0.00    +0.008 A 
ATOM     27  C   UNL     1       1.478  -4.656  -0.328  0.00  0.00    +0.008 A 
ATOM     28  C   UNL     1       1.462  -6.037  -0.289  0.00  0.00    +0.000 A 
ATOM     29  C   UNL     1       1.465  -6.763  -1.466  0.00  0.00    +0.001 A 
ATOM     30  C   UNL     1       1.485  -6.107  -2.682  0.00  0.00    +0.020 A 
ATOM     31  C   UNL     1       1.497  -4.723  -2.722  0.00  0.00    +0.047 A 
ATOM     32 CL   UNL     1       1.515  -3.899  -4.249  0.00  0.00    -0.083 Cl
ENDBRANCH  25  26
ENDBRANCH  24  25
ENDBRANCH   6  24
BRANCH   5  33
ATOM     33  O   UNL     1      -0.943  -0.760  -0.557  0.00  0.00    -0.489 OA
BRANCH  33  34
ATOM     34  C   UNL     1      -2.181  -0.061  -0.700  0.00  0.00    +0.226 C 
ATOM     35  C   UNL     1      -3.295  -1.058  -1.024  0.00  0.00    +0.048 C 
ENDBRANCH  33  34
ENDBRANCH   5  33
TORSDOF 9
