REMARK  Name = ZINC03409467
REMARK  6 active torsions:
REMARK  status: ('A' for Active; 'I' for Inactive)
REMARK    1  A    between atoms: C_1  and  N_2
REMARK    2  A    between atoms: C_3  and  C_27
REMARK    3  A    between atoms: C_6  and  S_7
REMARK    4  A    between atoms: S_7  and  C_8
REMARK    5  A    between atoms: C_8  and  C_9
REMARK    6  A    between atoms: C_15  and  C_20
REMARK                            x       y       z     vdW  Elec       q    Type
REMARK                         _______ _______ _______ _____ _____    ______ ____
ROOT
ATOM      1  C   UNL     1      -3.898  -0.847   3.088  0.00  0.00    +0.121 A 
ATOM      2  N   UNL     1      -2.696  -0.250   3.290  0.00  0.00    -0.310 N 
ATOM      3  H   UNL     1      -2.213  -0.420   4.114  0.00  0.00    +0.170 HD
ATOM      4  C   UNL     1      -2.160   0.574   2.370  0.00  0.00    +0.260 A 
ATOM      5  O   UNL     1      -1.079   1.103   2.567  0.00  0.00    -0.267 OA
ATOM      6  C   UNL     1      -2.879   0.820   1.157  0.00  0.00    +0.080 A 
ATOM      7  C   UNL     1      -2.514   1.661   0.023  0.00  0.00    +0.005 A 
ATOM      8  C   UNL     1      -3.367   1.744  -1.027  0.00  0.00    +0.056 A 
ATOM      9  S   UNL     1      -4.714   0.679  -0.550  0.00  0.00    -0.076 S 
ATOM     10  C   UNL     1      -4.112   0.159   1.036  0.00  0.00    +0.116 A 
ATOM     11  N   UNL     1      -4.577  -0.642   1.991  0.00  0.00    -0.226 NA
ENDROOT
BRANCH   7  12
ATOM     12  C   UNL     1      -1.238   2.414   0.021  0.00  0.00    +0.002 A 
ATOM     13  C   UNL     1      -1.248   3.808   0.035  0.00  0.00    +0.010 A 
ATOM     14  C   UNL     1      -0.057   4.505   0.027  0.00  0.00    +0.001 A 
ATOM     15  C   UNL     1       1.146   3.823   0.011  0.00  0.00    +0.001 A 
ATOM     16  C   UNL     1       1.164   2.440   0.004  0.00  0.00    +0.020 A 
ATOM     17  C   UNL     1      -0.021   1.732   0.012  0.00  0.00    +0.049 A 
ATOM     18 CL   UNL     1       0.002  -0.004   0.002  0.00  0.00    -0.083 Cl
ENDBRANCH   7  12
BRANCH   1  19
ATOM     19  C   UNL     1      -4.458  -1.761   4.146  0.00  0.00    +0.151 C 
BRANCH  19  20
ATOM     20  S   UNL     1      -6.060  -2.405   3.601  0.00  0.00    -0.078 S 
BRANCH  20  26
ATOM     21  C   UNL     1      -8.713  -4.291   4.184  0.00  0.00    +0.153 C 
ATOM     22  N   UNL     1      -7.605  -4.163   5.134  0.00  0.00    -0.303 N 
ATOM     23  C   UNL     1      -7.488  -4.773   6.364  0.00  0.00    +0.200 A 
ATOM     24  N   UNL     1      -6.343  -4.383   6.879  0.00  0.00    -0.125 NA
ATOM     25  N   UNL     1      -5.745  -3.587   6.067  0.00  0.00    -0.122 NA
ATOM     26  C   UNL     1      -6.472  -3.413   4.986  0.00  0.00    +0.192 A 
BRANCH  23  27
ATOM     27  C   UNL     1      -8.460  -5.688   6.982  0.00  0.00    +0.172 A 
ATOM     28  C   UNL     1      -8.223  -6.509   8.044  0.00  0.00    +0.053 A 
ATOM     29  C   UNL     1      -9.424  -7.197   8.300  0.00  0.00    +0.042 A 
ATOM     30  C   UNL     1     -10.324  -6.777   7.389  0.00  0.00    +0.196 A 
ATOM     31  O   UNL     1      -9.738  -5.865   6.594  0.00  0.00    -0.460 OA
ENDBRANCH  23  27
ENDBRANCH  20  26
ENDBRANCH  19  20
ENDBRANCH   1  19
TORSDOF 5
