REMARK  Name = ZINC33432021
REMARK  4 active torsions:
REMARK  status: ('A' for Active; 'I' for Inactive)
REMARK    1  A    between atoms: C_1  and  N_2
REMARK    2  A    between atoms: N_2  and  C_3
REMARK    3  A    between atoms: N_2  and  C_4
REMARK    4  A    between atoms: C_6  and  C_20
REMARK                            x       y       z     vdW  Elec       q    Type
REMARK                         _______ _______ _______ _____ _____    ______ ____
ROOT
ATOM      1  C   UNL     1       0.283   1.383  -0.274  0.00  0.00    +0.085 C 
ATOM      2  C   UNL     1      -0.889   2.003  -0.664  0.00  0.00    +0.080 C 
ATOM      3  C   UNL     1      -2.196   1.363  -0.919  0.00  0.00    +0.103 C 
ATOM      4  N   UNL     1      -3.028   2.311  -1.265  0.00  0.00    -0.169 NA
ATOM      5  N   UNL     1      -2.378   3.546  -1.262  0.00  0.00    -0.131 N 
ATOM      6  C   UNL     1      -1.091   3.391  -0.898  0.00  0.00    +0.275 C 
ATOM      7  O   UNL     1      -0.256   4.273  -0.793  0.00  0.00    -0.268 OA
ATOM      8  C   UNL     1      -2.974   4.758  -1.582  0.00  0.00    +0.189 A 
ATOM      9  N   UNL     1      -4.214   4.997  -1.938  0.00  0.00    -0.223 NA
ATOM     10  C   UNL     1      -4.661   6.239  -2.224  0.00  0.00    +0.080 A 
ATOM     11  C   UNL     1      -5.962   6.630  -2.616  0.00  0.00    +0.029 A 
ATOM     12  C   UNL     1      -6.251   7.945  -2.870  0.00  0.00    +0.002 A 
ATOM     13  C   UNL     1      -5.286   8.936  -2.753  0.00  0.00    +0.001 A 
ATOM     14  C   UNL     1      -4.003   8.589  -2.371  0.00  0.00    +0.017 A 
ATOM     15  C   UNL     1      -3.704   7.274  -2.115  0.00  0.00    +0.041 A 
ATOM     16  S   UNL     1      -2.248   6.391  -1.607  0.00  0.00    -0.050 S 
ENDROOT
BRANCH   3  17
ATOM     17  C   UNL     1      -2.505  -0.081  -0.804  0.00  0.00    +0.003 A 
ATOM     18  C   UNL     1      -1.533  -1.032  -1.113  0.00  0.00    +0.010 A 
ATOM     19  C   UNL     1      -1.826  -2.376  -1.001  0.00  0.00    +0.001 A 
ATOM     20  C   UNL     1      -3.085  -2.781  -0.592  0.00  0.00    +0.000 A 
ATOM     21  C   UNL     1      -4.055  -1.842  -0.289  0.00  0.00    +0.001 A 
ATOM     22  C   UNL     1      -3.772  -0.495  -0.393  0.00  0.00    +0.010 A 
ENDBRANCH   3  17
BRANCH   1  24
ATOM     23  C   UNL     1       0.919   3.437   0.875  0.00  0.00    +0.128 C 
ATOM     24  N   UNL     1       1.186   2.055   0.470  0.00  0.00    -0.341 N 
ATOM     25  C   UNL     1       2.434   1.402   0.873  0.00  0.00    +0.128 C 
ENDBRANCH   1  24
TORSDOF 2
