REMARK  Name = ZINC52094887
REMARK  4 active torsions:
REMARK  status: ('A' for Active; 'I' for Inactive)
REMARK    1  A    between atoms: C_6  and  C_7
REMARK    2  A    between atoms: C_7  and  C_8
REMARK    3  A    between atoms: C_8  and  C_10
REMARK    4  A    between atoms: C_8  and  O_23
REMARK                            x       y       z     vdW  Elec       q    Type
REMARK                         _______ _______ _______ _____ _____    ______ ____
ROOT
ATOM      1  C   UNL     1      -2.973  -1.903  -1.423  0.00  0.00    -0.003 A 
ATOM      2  C   UNL     1      -4.227  -1.328  -1.484  0.00  0.00    +0.035 A 
ATOM      3  C   UNL     1      -5.356  -2.132  -1.479  0.00  0.00    +0.067 A 
ATOM      4  C   UNL     1      -5.221  -3.521  -1.412  0.00  0.00    +0.068 A 
ATOM      5  C   UNL     1      -3.958  -4.090  -1.351  0.00  0.00    +0.043 A 
ATOM      6  C   UNL     1      -2.838  -3.280  -1.363  0.00  0.00    +0.026 A 
ATOM      7 BR   UNL     1      -1.114  -4.055  -1.288  0.00  0.00    -0.050 Br
ATOM      8  N   UNL     1      -6.508  -4.052  -1.424  0.00  0.00    -0.306 N 
ATOM      9  H   UNL     1      -6.734  -4.995  -1.387  0.00  0.00    +0.170 HD
ATOM     10  C   UNL     1      -7.386  -3.034  -1.494  0.00  0.00    +0.325 A 
ATOM     11  O   UNL     1      -8.597  -3.154  -1.522  0.00  0.00    -0.247 OA
ATOM     12  N   UNL     1      -6.722  -1.863  -1.529  0.00  0.00    -0.306 N 
ATOM     13  H   UNL     1      -7.126  -0.983  -1.579  0.00  0.00    +0.170 HD
ENDROOT
BRANCH   1  14
ATOM     14  C   UNL     1      -1.745  -1.028  -1.429  0.00  0.00    +0.150 C 
BRANCH  14  15
ATOM     15  O   UNL     1      -2.051   0.218  -2.058  0.00  0.00    -0.387 OA
ATOM     16  H   UNL     1      -2.755   0.717  -1.621  0.00  0.00    +0.210 HD
ENDBRANCH  14  15
BRANCH  14  17
ATOM     17  C   UNL     1      -1.293  -0.775   0.011  0.00  0.00    +0.071 C 
BRANCH  17  23
ATOM     18  C   UNL     1      -0.017   1.378   0.010  0.00  0.00    +0.005 A 
ATOM     19  C   UNL     1       1.171   2.086   0.002  0.00  0.00    +0.020 A 
ATOM     20  C   UNL     1       2.378   1.410  -0.013  0.00  0.00    +0.041 A 
ATOM     21  C   UNL     1       2.396   0.027  -0.021  0.00  0.00    +0.020 A 
ATOM     22  C   UNL     1       1.208  -0.679  -0.013  0.00  0.00    +0.005 A 
ATOM     23  C   UNL     1       0.002  -0.004   0.002  0.00  0.00    -0.045 A 
ATOM     24 CL   UNL     1       3.870   2.298  -0.023  0.00  0.00    -0.084 Cl
ENDBRANCH  17  23
ENDBRANCH  14  17
ENDBRANCH   1  14
TORSDOF 4
