REMARK  Name = ZINC39897995
REMARK  12 active torsions:
REMARK  status: ('A' for Active; 'I' for Inactive)
REMARK    1  A    between atoms: C_1  and  C_2
REMARK    2  A    between atoms: C_2  and  C_3
REMARK    3  A    between atoms: C_2  and  C_4
REMARK    4  A    between atoms: C_4  and  C_5
REMARK    5  A    between atoms: C_5  and  O_6
REMARK    6  A    between atoms: O_6  and  C_7
REMARK    7  A    between atoms: C_11  and  C_13
REMARK    8  A    between atoms: C_16  and  C_27
REMARK    9  A    between atoms: N_23  and  C_24
REMARK   10  A    between atoms: C_24  and  C_25
REMARK   11  A    between atoms: C_25  and  O_26
REMARK   12  A    between atoms: C_32  and  O_33
REMARK                            x       y       z     vdW  Elec       q    Type
REMARK                         _______ _______ _______ _____ _____    ______ ____
ROOT
ATOM      1  C   UNL     1      -5.759  -6.304  -0.492  0.00  0.00    +0.141 C 
ATOM      2  C   UNL     1      -6.011  -6.790   0.909  0.00  0.00    +0.035 A 
ATOM      3  C   UNL     1      -6.153  -6.465   2.262  0.00  0.00    +0.102 A 
ATOM      4  N   UNL     1      -6.385  -7.587   2.915  0.00  0.00    -0.173 NA
ATOM      5  N   UNL     1      -6.405  -8.588   2.108  0.00  0.00    -0.272 N 
ATOM      6  H   UNL     1      -6.558  -9.510   2.368  0.00  0.00    +0.189 HD
ATOM      7  C   UNL     1      -6.177  -8.160   0.831  0.00  0.00    +0.126 A 
ATOM      8  C   UNL     1      -6.040  -8.567  -0.572  0.00  0.00    +0.266 C 
ATOM      9  O   UNL     1      -6.132  -9.711  -0.974  0.00  0.00    -0.268 OA
ATOM     10  N   UNL     1      -5.797  -7.496  -1.350  0.00  0.00    -0.283 N 
ENDROOT
BRANCH   3  11
ATOM     11  C   UNL     1      -6.058  -5.108   2.855  0.00  0.00    +0.045 A 
ATOM     12  C   UNL     1      -5.935  -3.992   2.030  0.00  0.00    +0.033 A 
ATOM     13  C   UNL     1      -5.847  -2.731   2.586  0.00  0.00    +0.042 A 
ATOM     14  C   UNL     1      -5.880  -2.572   3.961  0.00  0.00    +0.023 A 
ATOM     15  C   UNL     1      -6.000  -3.673   4.787  0.00  0.00    +0.047 A 
ATOM     16  C   UNL     1      -6.096  -4.943   4.242  0.00  0.00    +0.126 A 
ATOM     17 CL   UNL     1      -5.694  -1.341   1.558  0.00  0.00    -0.084 Cl
BRANCH  16  18
ATOM     18  O   UNL     1      -6.221  -6.026   5.053  0.00  0.00    -0.506 OA
ATOM     19  H   UNL     1      -5.377  -6.416   5.322  0.00  0.00    +0.292 HD
ENDBRANCH  16  18
ENDBRANCH   3  11
BRANCH   1  24
ATOM     20  C   UNL     1      -3.067  -3.683  -0.886  0.00  0.00    +0.121 A 
ATOM     21  C   UNL     1      -1.917  -4.444  -0.733  0.00  0.00    +0.045 A 
ATOM     22  C   UNL     1      -2.016  -5.803  -0.503  0.00  0.00    +0.004 A 
ATOM     23  C   UNL     1      -3.260  -6.403  -0.425  0.00  0.00    +0.006 A 
ATOM     24  C   UNL     1      -4.406  -5.646  -0.577  0.00  0.00    -0.019 A 
ATOM     25  C   UNL     1      -4.313  -4.287  -0.802  0.00  0.00    +0.051 A 
BRANCH  20  26
ATOM     26  O   UNL     1      -2.972  -2.346  -1.112  0.00  0.00    -0.492 OA
BRANCH  26  27
ATOM     27  C   UNL     1      -1.657  -1.792  -1.187  0.00  0.00    +0.229 C 
BRANCH  27  28
ATOM     28  C   UNL     1      -1.752  -0.287  -1.444  0.00  0.00    +0.044 C 
BRANCH  28  30
ATOM     29  C   UNL     1      -0.434   1.786  -1.905  0.00  0.00    +0.007 C 
ATOM     30  C   UNL     1      -0.344   0.306  -1.524  0.00  0.00    -0.014 C 
ATOM     31  C   UNL     1       0.345   0.171  -0.164  0.00  0.00    +0.007 C 
ENDBRANCH  28  30
ENDBRANCH  27  28
ENDBRANCH  26  27
ENDBRANCH  20  26
ENDBRANCH   1  24
BRANCH  10  32
ATOM     32  C   UNL     1      -5.604  -7.514  -2.802  0.00  0.00    +0.137 C 
BRANCH  32  33
ATOM     33  C   UNL     1      -4.143  -7.839  -3.119  0.00  0.00    +0.175 C 
BRANCH  33  34
ATOM     34  O   UNL     1      -3.848  -9.170  -2.689  0.00  0.00    -0.393 OA
ATOM     35  H   UNL     1      -2.936  -9.445  -2.859  0.00  0.00    +0.209 HD
ENDBRANCH  33  34
ENDBRANCH  32  33
ENDBRANCH  10  32
TORSDOF 10
