REMARK  Name = ZINC35430435
REMARK  4 active torsions:
REMARK  status: ('A' for Active; 'I' for Inactive)
REMARK    1  A    between atoms: C_5  and  O_7
REMARK    2  A    between atoms: O_7  and  C_8
REMARK    3  A    between atoms: C_9  and  C_16
REMARK    4  A    between atoms: C_16  and  N_17
REMARK                            x       y       z     vdW  Elec       q    Type
REMARK                         _______ _______ _______ _____ _____    ______ ____
ROOT
ATOM      1  C   UNL     1       0.049  -2.697   0.091  0.00  0.00    +0.241 A 
ATOM      2  C   UNL     1      -0.106  -4.031   0.202  0.00  0.00    +0.070 A 
ATOM      3  N   UNL     1      -1.475  -4.292   0.293  0.00  0.00    -0.296 N 
ATOM      4  C   UNL     1      -2.307  -5.382   0.420  0.00  0.00    +0.100 A 
ATOM      5  C   UNL     1      -3.630  -5.228   0.477  0.00  0.00    +0.067 A 
ATOM      6  S   UNL     1      -3.800  -3.454   0.350  0.00  0.00    -0.058 S 
ATOM      7  C   UNL     1      -2.070  -3.060   0.230  0.00  0.00    +0.181 A 
ATOM      8  N   UNL     1      -1.168  -2.127   0.117  0.00  0.00    -0.186 NA
ENDROOT
BRANCH   1   9
ATOM      9  O   UNL     1       1.235  -2.039  -0.021  0.00  0.00    -0.435 OA
BRANCH   9  14
ATOM     10  C   UNL     1       0.031   1.370   0.386  0.00  0.00    +0.004 A 
ATOM     11  C   UNL     1       1.181   2.085   0.106  0.00  0.00    +0.001 A 
ATOM     12  C   UNL     1       2.350   1.420  -0.215  0.00  0.00    +0.019 A 
ATOM     13  C   UNL     1       2.371   0.038  -0.259  0.00  0.00    +0.060 A 
ATOM     14  C   UNL     1       1.217  -0.681   0.021  0.00  0.00    +0.144 A 
ATOM     15  C   UNL     1       0.046  -0.011   0.344  0.00  0.00    +0.047 A 
ATOM     16 BR   UNL     1       3.970  -0.871  -0.699  0.00  0.00    -0.046 Br
ENDBRANCH   9  14
ENDBRANCH   1   9
BRANCH   2  17
ATOM     17  C   UNL     1       0.998  -5.057   0.222  0.00  0.00    -0.026 C 
BRANCH  17  18
ATOM     18  N   UNL     1       1.284  -5.495  -1.151  0.00  0.00    +0.382 N 
ATOM     19  H   UNL     1       0.454  -5.903  -1.554  0.00  0.00    -0.090 HD
ATOM     20  H   UNL     1       1.572  -4.702  -1.704  0.00  0.00    -0.090 HD
ATOM     21  H   UNL     1       2.024  -6.181  -1.137  0.00  0.00    -0.090 HD
ENDBRANCH  17  18
ENDBRANCH   2  17
TORSDOF 4
