REMARK  Name = ZINC63140597
REMARK  14 active torsions:
REMARK  status: ('A' for Active; 'I' for Inactive)
REMARK    1  A    between atoms: C_1  and  C_2
REMARK    2  A    between atoms: C_2  and  O_3
REMARK    3  A    between atoms: O_3  and  C_4
REMARK    4  A    between atoms: C_9  and  C_10
REMARK    5  A    between atoms: N_29  and  C_32
REMARK    6  A    between atoms: C_32  and  C_33
REMARK    7  A    between atoms: C_33  and  C_34
REMARK    8  A    between atoms: C_34  and  C_35
REMARK    9  A    between atoms: C_35  and  O_36
REMARK   10  A    between atoms: C_35  and  O_39
REMARK   11  A    between atoms: O_36  and  C_37
REMARK   12  A    between atoms: C_37  and  C_38
REMARK   13  A    between atoms: O_39  and  C_40
REMARK   14  A    between atoms: C_40  and  C_41
REMARK                            x       y       z     vdW  Elec       q    Type
REMARK                         _______ _______ _______ _____ _____    ______ ____
ROOT
ATOM      1  C   UNL     1       1.163  -1.898   3.999  0.00  0.00    +0.137 C 
ATOM      2  C   UNL     1      -0.029  -1.815   4.952  0.00  0.00    +0.131 C 
ATOM      3  C   UNL     1      -0.086  -3.164   5.666  0.00  0.00    -0.034 C 
ATOM      4  C   UNL     1      -1.257  -3.707   5.364  0.00  0.00    -0.001 A 
ATOM      5  C   UNL     1      -1.885  -4.974   5.775  0.00  0.00    +0.010 A 
ATOM      6  C   UNL     1      -3.119  -5.225   5.264  0.00  0.00    +0.001 A 
ATOM      7  C   UNL     1      -3.784  -4.354   4.396  0.00  0.00    +0.002 A 
ATOM      8  C   UNL     1      -3.283  -3.168   3.967  0.00  0.00    +0.026 A 
ATOM      9  C   UNL     1      -1.991  -2.792   4.438  0.00  0.00    +0.043 A 
ATOM     10  N   UNL     1      -1.284  -1.706   4.197  0.00  0.00    -0.375 N 
ATOM     11  C   UNL     1       1.068  -3.656   6.496  0.00  0.00    +0.065 C 
ATOM     12  C   UNL     1       2.368  -3.341   5.802  0.00  0.00    +0.167 C 
ATOM     13  N   UNL     1       2.333  -2.478   4.643  0.00  0.00    -0.279 N 
ATOM     14  C   UNL     1       3.553  -2.224   4.064  0.00  0.00    +0.234 C 
ATOM     15  O   UNL     1       3.665  -1.462   3.128  0.00  0.00    -0.274 OA
ATOM     16  C   UNL     1       4.751  -2.940   4.651  0.00  0.00    +0.203 C 
ATOM     17  N   UNL     1       4.383  -4.348   4.890  0.00  0.00    -0.291 N 
ATOM     18  C   UNL     1       3.184  -4.571   5.494  0.00  0.00    +0.237 C 
ATOM     19  O   UNL     1       2.799  -5.688   5.768  0.00  0.00    -0.274 OA
ATOM     20  H   UNL     1      -1.536  -0.966   3.624  0.00  0.00    +0.160 HD
ENDROOT
BRANCH   1  26
ATOM     21  C   UNL     1       0.103  -2.182   1.745  0.00  0.00    +0.125 A 
ATOM     22  C   UNL     1      -0.239  -2.965   0.652  0.00  0.00    +0.046 A 
ATOM     23  C   UNL     1       0.095  -4.305   0.632  0.00  0.00    +0.004 A 
ATOM     24  C   UNL     1       0.770  -4.867   1.700  0.00  0.00    +0.001 A 
ATOM     25  C   UNL     1       1.112  -4.089   2.791  0.00  0.00    +0.009 A 
ATOM     26  C   UNL     1       0.785  -2.747   2.813  0.00  0.00    +0.017 A 
BRANCH  21  27
ATOM     27  O   UNL     1      -0.224  -0.863   1.767  0.00  0.00    -0.492 OA
BRANCH  27  29
ATOM     28  C   UNL     1      -1.205   1.140   0.837  0.00  0.00    +0.048 C 
ATOM     29  C   UNL     1      -0.926  -0.350   0.633  0.00  0.00    +0.225 C 
ENDBRANCH  27  29
ENDBRANCH  21  27
ENDBRANCH   1  26
BRANCH  17  30
ATOM     30  C   UNL     1       5.264  -5.450   4.497  0.00  0.00    +0.108 C 
BRANCH  30  31
ATOM     31  C   UNL     1       6.212  -5.783   5.651  0.00  0.00    +0.024 C 
BRANCH  31  32
ATOM     32  C   UNL     1       7.132  -6.934   5.240  0.00  0.00    +0.063 C 
BRANCH  32  33
ATOM     33  C   UNL     1       8.080  -7.266   6.394  0.00  0.00    +0.250 C 
BRANCH  33  34
ATOM     34  O   UNL     1       7.326  -7.762   7.502  0.00  0.00    -0.352 OA
BRANCH  34  35
ATOM     35  C   UNL     1       8.106  -8.004   8.674  0.00  0.00    +0.159 C 
ATOM     36  C   UNL     1       7.181  -8.371   9.836  0.00  0.00    +0.034 C 
ENDBRANCH  34  35
ENDBRANCH  33  34
BRANCH  33  37
ATOM     37  O   UNL     1       9.015  -8.261   5.971  0.00  0.00    -0.352 OA
BRANCH  37  38
ATOM     38  C   UNL     1      10.266  -8.213   6.660  0.00  0.00    +0.159 C 
ATOM     39  C   UNL     1      11.130  -9.400   6.232  0.00  0.00    +0.034 C 
ENDBRANCH  37  38
ENDBRANCH  33  37
ENDBRANCH  32  33
ENDBRANCH  31  32
ENDBRANCH  30  31
ENDBRANCH  17  30
TORSDOF 11
