REMARK  Name = ZINC05656628
REMARK  6 active torsions:
REMARK  status: ('A' for Active; 'I' for Inactive)
REMARK    1  A    between atoms: C_1  and  C_2
REMARK    2  A    between atoms: C_2  and  N_3
REMARK    3  A    between atoms: C_14  and  N_16
REMARK    4  A    between atoms: C_21  and  S_26
REMARK    5  A    between atoms: S_26  and  C_29
REMARK    6  A    between atoms: C_29  and  C_30
REMARK                            x       y       z     vdW  Elec       q    Type
REMARK                         _______ _______ _______ _____ _____    ______ ____
ROOT
ATOM      1  N   UNL     1      -0.708   8.841   0.048  0.00  0.00    -0.269 N 
ATOM      2  C   UNL     1      -1.910   8.868  -0.624  0.00  0.00    +0.293 A 
ATOM      3  N   UNL     1      -2.672   9.924  -0.755  0.00  0.00    -0.195 NA
ATOM      4  C   UNL     1      -3.773   9.580  -1.477  0.00  0.00    +0.113 A 
ATOM      5  C   UNL     1      -4.898  10.282  -1.914  0.00  0.00    +0.058 A 
ATOM      6  C   UNL     1      -5.867   9.633  -2.647  0.00  0.00    +0.090 A 
ATOM      7  C   UNL     1      -5.731   8.288  -2.954  0.00  0.00    +0.030 A 
ATOM      8  C   UNL     1      -4.624   7.581  -2.528  0.00  0.00    +0.050 A 
ATOM      9  C   UNL     1      -3.640   8.219  -1.789  0.00  0.00    +0.157 A 
ATOM     10  O   UNL     1      -2.468   7.815  -1.247  0.00  0.00    -0.424 OA
ATOM     11  H   UNL     1      -0.331   9.662   0.400  0.00  0.00    +0.157 HD
ENDROOT
BRANCH   1  23
ATOM     12  N   UNL     1       1.747   3.917   0.746  0.00  0.00    -0.340 N 
ATOM     13  C   UNL     1       0.654   3.071   0.790  0.00  0.00    +0.050 A 
ATOM     14  C   UNL     1       0.542   1.692   0.945  0.00  0.00    +0.026 A 
ATOM     15  C   UNL     1      -0.701   1.097   0.951  0.00  0.00    +0.002 A 
ATOM     16  C   UNL     1      -1.849   1.860   0.800  0.00  0.00    +0.001 A 
ATOM     17  C   UNL     1      -1.759   3.227   0.651  0.00  0.00    +0.010 A 
ATOM     18  C   UNL     1      -0.509   3.842   0.642  0.00  0.00    +0.008 A 
ATOM     19  C   UNL     1      -0.068   5.242   0.501  0.00  0.00    +0.009 A 
ATOM     20  C   UNL     1       1.333   5.228   0.573  0.00  0.00    +0.050 A 
ATOM     21  C   UNL     1       2.036   6.424   0.468  0.00  0.00    +0.028 A 
ATOM     22  C   UNL     1       1.359   7.611   0.296  0.00  0.00    +0.025 A 
ATOM     23  C   UNL     1      -0.031   7.628   0.224  0.00  0.00    +0.036 A 
ATOM     24  C   UNL     1      -0.745   6.446   0.327  0.00  0.00    +0.034 A 
BRANCH  12  26
ATOM     25  C   UNL     1       3.701   3.172  -0.523  0.00  0.00    +0.027 C 
ATOM     26  C   UNL     1       3.143   3.488   0.866  0.00  0.00    +0.119 C 
ENDBRANCH  12  26
ENDBRANCH   1  23
BRANCH   6  27
ATOM     27  S   UNL     1      -7.287  10.518  -3.199  0.00  0.00    -0.003 S 
ATOM     28  O   UNL     1      -8.298   9.530  -3.339  0.00  0.00    -0.169 OA
ATOM     29  O   UNL     1      -7.437  11.580  -2.267  0.00  0.00    -0.169 OA
BRANCH  27  30
ATOM     30  C   UNL     1      -6.824  11.174  -4.826  0.00  0.00    +0.168 C 
ATOM     31  C   UNL     1      -7.995  11.970  -5.406  0.00  0.00    +0.028 C 
ENDBRANCH  27  30
ENDBRANCH   6  27
TORSDOF 4
