REMARK  Name = ZINC06795713
REMARK  11 active torsions:
REMARK  status: ('A' for Active; 'I' for Inactive)
REMARK    1  A    between atoms: C_1  and  C_2
REMARK    2  A    between atoms: C_7  and  N_12
REMARK    3  A    between atoms: C_9  and  C_11
REMARK    4  A    between atoms: C_13  and  C_15
REMARK    5  A    between atoms: C_15  and  C_16
REMARK    6  A    between atoms: C_16  and  C_17
REMARK    7  A    between atoms: C_17  and  C_18
REMARK    8  A    between atoms: C_18  and  C_19
REMARK    9  A    between atoms: N_21  and  C_22
REMARK   10  A    between atoms: C_27  and  C_32
REMARK   11  A    between atoms: C_29  and  C_31
REMARK                            x       y       z     vdW  Elec       q    Type
REMARK                         _______ _______ _______ _____ _____    ______ ____
ROOT
ATOM      1  C   UNL     1      -0.729   1.579   1.267  0.00  0.00    +0.010 C 
ENDROOT
BRANCH   1   2
ATOM      2  C   UNL     1      -0.013   1.086   0.008  0.00  0.00    +0.096 C 
BRANCH   2   4
ATOM      3  N   UNL     1      -0.288   1.272  -2.443  0.00  0.00    -0.312 N 
ATOM      4  C   UNL     1      -0.742   1.585  -1.213  0.00  0.00    +0.213 C 
ATOM      5  O   UNL     1      -1.736   2.268  -1.088  0.00  0.00    -0.276 OA
ATOM      6  H   UNL     1       0.507   0.726  -2.543  0.00  0.00    +0.149 HD
BRANCH   3  12
ATOM      7  C   UNL     1       0.205   2.407  -7.230  0.00  0.00    +0.008 C 
ATOM      8  C   UNL     1      -0.766   2.336  -6.050  0.00  0.00    -0.009 C 
ATOM      9  C   UNL     1      -1.910   1.378  -6.388  0.00  0.00    +0.003 C 
ATOM     10  C   UNL     1      -2.881   1.307  -5.207  0.00  0.00    +0.002 C 
ATOM     11  C   UNL     1      -2.141   0.800  -3.968  0.00  0.00    +0.022 C 
ATOM     12  C   UNL     1      -0.997   1.758  -3.630  0.00  0.00    +0.076 C 
ATOM     13  C   UNL     1      -0.026   1.829  -4.810  0.00  0.00    +0.009 C 
ATOM     14  C   UNL     1       1.118   2.787  -4.472  0.00  0.00    +0.009 C 
ENDBRANCH   3  12
ENDBRANCH   2   4
ENDBRANCH   1   2
BRANCH   1  15
ATOM     15  C   UNL     1       0.011   1.072   2.506  0.00  0.00    +0.010 C 
BRANCH  15  16
ATOM     16  C   UNL     1      -0.705   1.566   3.765  0.00  0.00    +0.096 C 
BRANCH  16  17
ATOM     17  C   UNL     1       0.024   1.067   4.986  0.00  0.00    +0.213 C 
ATOM     18  O   UNL     1       1.018   0.383   4.862  0.00  0.00    -0.276 OA
ATOM     19  N   UNL     1      -0.429   1.379   6.216  0.00  0.00    -0.312 N 
ATOM     20  H   UNL     1      -1.224   1.926   6.316  0.00  0.00    +0.149 HD
BRANCH  19  21
ATOM     21  C   UNL     1       0.279   0.894   7.403  0.00  0.00    +0.076 C 
ATOM     22  C   UNL     1      -0.204  -0.517   7.744  0.00  0.00    +0.022 C 
ATOM     23  C   UNL     1       0.536  -1.024   8.983  0.00  0.00    +0.002 C 
ATOM     24  C   UNL     1       0.256  -0.090  10.162  0.00  0.00    +0.003 C 
ATOM     25  C   UNL     1       0.739   1.321   9.822  0.00  0.00    -0.009 C 
ATOM     26  C   UNL     1      -0.002   1.828   8.582  0.00  0.00    +0.009 C 
ATOM     27  C   UNL     1      -1.505   1.857   8.862  0.00  0.00    +0.009 C 
ATOM     28  C   UNL     1       0.458   2.255  11.001  0.00  0.00    +0.008 C 
ENDBRANCH  19  21
ENDBRANCH  16  17
ENDBRANCH  15  16
ENDBRANCH   1  15
TORSDOF 7
