REMARK  Name = ZINC39534014
REMARK  10 active torsions:
REMARK  status: ('A' for Active; 'I' for Inactive)
REMARK    1  A    between atoms: C_1  and  S_2
REMARK    2  A    between atoms: S_2  and  C_3
REMARK    3  A    between atoms: N_6  and  C_10
REMARK    4  A    between atoms: C_10  and  C_12
REMARK    5  A    between atoms: C_10  and  C_16
REMARK    6  A    between atoms: C_12  and  N_13
REMARK    7  A    between atoms: N_13  and  S_14
REMARK    8  A    between atoms: S_14  and  C_15
REMARK    9  A    between atoms: C_19  and  C_22
REMARK   10  A    between atoms: C_27  and  O_28
REMARK                            x       y       z     vdW  Elec       q    Type
REMARK                         _______ _______ _______ _____ _____    ______ ____
ROOT
ATOM      1  C   UNL     1       3.466  -3.011  -2.266  0.00  0.00    -0.023 C 
ENDROOT
BRANCH   1   4
ATOM      2  C   UNL     1       1.004  -0.269  -1.550  0.00  0.00    +0.095 C 
ATOM      3  C   UNL     1       1.899  -1.482  -1.286  0.00  0.00    -0.048 C 
ATOM      4  N   UNL     1       2.594  -1.857  -2.524  0.00  0.00    +0.387 N 
ATOM      5  C   UNL     1       1.608  -2.210  -3.554  0.00  0.00    -0.062 C 
ATOM      6  C   UNL     1       0.711  -1.003  -3.837  0.00  0.00    +0.063 C 
ATOM      7  N   UNL     1       0.029  -0.601  -2.598  0.00  0.00    -0.308 NA
ATOM      8  H   UNL     1      -0.607  -1.319  -2.286  0.00  0.00    +0.123 HD
ATOM      9  H   UNL     1       3.151  -1.080  -2.845  0.00  0.00    -0.081 HD
BRANCH   2  11
ATOM     10  C   UNL     1       0.290   1.984   0.059  0.00  0.00    +0.086 C 
ATOM     11  S   UNL     1       0.127   0.179  -0.027  0.00  0.00    -0.147 S 
ENDBRANCH   2  11
ENDBRANCH   1   4
BRANCH   1  12
ATOM     12  C   UNL     1       4.456  -2.660  -1.185  0.00  0.00    -0.060 A 
ATOM     13  C   UNL     1       5.033  -1.403  -1.160  0.00  0.00    +0.002 A 
ATOM     14  C   UNL     1       5.940  -1.077  -0.173  0.00  0.00    +0.009 A 
ATOM     15  C   UNL     1       6.274  -2.016   0.801  0.00  0.00    -0.014 A 
ATOM     16  C   UNL     1       5.689  -3.281   0.772  0.00  0.00    +0.009 A 
ATOM     17  C   UNL     1       4.779  -3.595  -0.217  0.00  0.00    +0.002 A 
BRANCH  15  18
ATOM     18  C   UNL     1       7.249  -1.672   1.864  0.00  0.00    +0.024 A 
ATOM     19  C   UNL     1       8.476  -1.103   1.530  0.00  0.00    +0.012 A 
ATOM     20  C   UNL     1       9.380  -0.784   2.523  0.00  0.00    +0.001 A 
ATOM     21  C   UNL     1       9.072  -1.027   3.850  0.00  0.00    +0.004 A 
ATOM     22  C   UNL     1       7.858  -1.591   4.192  0.00  0.00    +0.046 A 
ATOM     23  C   UNL     1       6.939  -1.911   3.206  0.00  0.00    +0.125 A 
BRANCH  23  24
ATOM     24  O   UNL     1       5.742  -2.460   3.541  0.00  0.00    -0.506 OA
ATOM     25  H   UNL     1       5.749  -3.426   3.576  0.00  0.00    +0.292 HD
ENDBRANCH  23  24
ENDBRANCH  15  18
ENDBRANCH   1  12
BRANCH   1  26
ATOM     26  C   UNL     1       4.218  -3.378  -3.546  0.00  0.00    +0.082 C 
BRANCH  26  27
ATOM     27  N   UNL     1       5.032  -4.578  -3.309  0.00  0.00    -0.265 NA
ATOM     28  H   UNL     1       4.534  -5.246  -2.740  0.00  0.00    +0.135 HD
BRANCH  27  29
ATOM     29  S   UNL     1       5.548  -5.304  -4.832  0.00  0.00    -0.084 S 
ATOM     30  C   UNL     1       6.523  -6.746  -4.323  0.00  0.00    +0.102 C 
ENDBRANCH  27  29
ENDBRANCH  26  27
ENDBRANCH   1  26
TORSDOF 8
