REMARK  Name = ZINC67299712
REMARK  10 active torsions:
REMARK  status: ('A' for Active; 'I' for Inactive)
REMARK    1  A    between atoms: C_1  and  C_2
REMARK    2  A    between atoms: C_7  and  C_8
REMARK    3  A    between atoms: C_8  and  C_9
REMARK    4  A    between atoms: C_9  and  C_10
REMARK    5  A    between atoms: C_9  and  C_11
REMARK    6  A    between atoms: C_9  and  N_12
REMARK    7  A    between atoms: C_13  and  C_15
REMARK    8  A    between atoms: C_15  and  C_16
REMARK    9  A    between atoms: C_19  and  S_22
REMARK   10  A    between atoms: S_22  and  N_25
REMARK                            x       y       z     vdW  Elec       q    Type
REMARK                         _______ _______ _______ _____ _____    ______ ____
ROOT
ATOM      1  N   UNL     1      -1.862   1.121   4.000  0.00  0.00    -0.310 N 
ATOM      2  C   UNL     1      -3.104   1.344   4.472  0.00  0.00    +0.218 C 
ATOM      3  O   UNL     1      -4.056   0.795   3.958  0.00  0.00    -0.275 OA
ATOM      4  H   UNL     1      -1.101   1.560   4.411  0.00  0.00    +0.149 HD
ENDROOT
BRANCH   1   5
ATOM      5  C   UNL     1      -1.661   0.215   2.866  0.00  0.00    +0.033 C 
ATOM      6  C   UNL     1      -2.429   0.740   1.651  0.00  0.00    +0.031 C 
ATOM      7  C   UNL     1      -2.174  -1.180   3.230  0.00  0.00    +0.031 C 
BRANCH   5   8
ATOM      8  C   UNL     1      -0.169   0.138   2.532  0.00  0.00    +0.060 C 
BRANCH   8  15
ATOM      9  C   UNL     1       0.405  -2.631   3.120  0.00  0.00    +0.044 C 
ATOM     10  C   UNL     1       0.319  -2.167   1.689  0.00  0.00    -0.047 A 
ATOM     11  C   UNL     1       0.509  -3.067   0.657  0.00  0.00    +0.003 A 
ATOM     12  C   UNL     1       0.430  -2.641  -0.655  0.00  0.00    +0.000 A 
ATOM     13  C   UNL     1       0.161  -1.315  -0.937  0.00  0.00    +0.000 A 
ATOM     14  C   UNL     1      -0.030  -0.415   0.095  0.00  0.00    +0.004 A 
ATOM     15  C   UNL     1       0.044  -0.842   1.408  0.00  0.00    -0.042 A 
ENDBRANCH   8  15
ENDBRANCH   5   8
ENDBRANCH   1   5
BRANCH   2  16
ATOM     16  C   UNL     1      -3.311   2.275   5.638  0.00  0.00    +0.130 C 
BRANCH  16  17
ATOM     17  C   UNL     1      -4.780   2.351   5.967  0.00  0.00    -0.039 A 
ATOM     18  C   UNL     1      -5.577   3.301   5.357  0.00  0.00    +0.006 A 
ATOM     19  C   UNL     1      -6.924   3.370   5.658  0.00  0.00    +0.029 A 
ATOM     20  C   UNL     1      -7.474   2.488   6.569  0.00  0.00    +0.105 A 
ATOM     21  C   UNL     1      -6.678   1.537   7.179  0.00  0.00    +0.029 A 
ATOM     22  C   UNL     1      -5.331   1.465   6.874  0.00  0.00    +0.006 A 
BRANCH  20  23
ATOM     23  S   UNL     1      -9.191   2.577   6.954  0.00  0.00    +0.056 S 
ATOM     24  O   UNL     1      -9.350   1.997   8.242  0.00  0.00    -0.153 OA
ATOM     25  O   UNL     1      -9.606   3.904   6.661  0.00  0.00    -0.153 OA
BRANCH  23  26
ATOM     26  N   UNL     1      -9.984   1.587   5.889  0.00  0.00    -0.204 NA
ATOM     27  H   UNL     1      -9.483   1.098   5.218  0.00  0.00    +0.144 HD
ATOM     28  H   UNL     1     -10.949   1.497   5.936  0.00  0.00    +0.144 HD
ENDBRANCH  23  26
ENDBRANCH  20  23
ENDBRANCH  16  17
ENDBRANCH   2  16
TORSDOF 7
