REMARK  Name = ZINC16032777
REMARK  5 active torsions:
REMARK  status: ('A' for Active; 'I' for Inactive)
REMARK    1  A    between atoms: C_12  and  C_15
REMARK    2  A    between atoms: C_15  and  C_16
REMARK    3  A    between atoms: C_19  and  O_23
REMARK    4  A    between atoms: C_20  and  O_22
REMARK    5  A    between atoms: N_26  and  C_29
REMARK                            x       y       z     vdW  Elec       q    Type
REMARK                         _______ _______ _______ _____ _____    ______ ____
ROOT
ATOM      1  C   UNL     1      -0.017   1.379   0.010  0.00  0.00    +0.000 A 
ATOM      2  C   UNL     1       1.174   2.084   0.002  0.00  0.00    +0.002 A 
ATOM      3  C   UNL     1       2.379   1.414  -0.014  0.00  0.00    +0.023 A 
ATOM      4  C   UNL     1       2.407   0.021  -0.021  0.00  0.00    +0.039 A 
ATOM      5  C   UNL     1       1.204  -0.677  -0.013  0.00  0.00    +0.003 A 
ATOM      6  C   UNL     1       0.002  -0.004   0.002  0.00  0.00    +0.008 A 
ATOM      7  C   UNL     1       1.573  -2.133  -0.024  0.00  0.00    +0.136 C 
ATOM      8  C   UNL     1       0.990  -2.851  -1.247  0.00  0.00    +0.122 C 
ATOM      9  C   UNL     1       0.619  -4.268  -0.729  0.00  0.00    +0.107 C 
ATOM     10  C   UNL     1       1.050  -4.274   0.753  0.00  0.00    +0.072 C 
ATOM     11  N   UNL     1       1.034  -2.836   1.155  0.00  0.00    -0.295 NA
ATOM     12  C   UNL     1      -0.889  -4.293  -0.827  0.00  0.00    +0.227 C 
ATOM     13  O   UNL     1      -1.597  -5.223  -0.505  0.00  0.00    -0.275 OA
ATOM     14  N   UNL     1      -1.321  -3.127  -1.322  0.00  0.00    -0.238 N 
ATOM     15  C   UNL     1      -0.344  -2.236  -1.607  0.00  0.00    +0.228 C 
ATOM     16  O   UNL     1      -0.502  -1.127  -2.072  0.00  0.00    -0.275 OA
ATOM     17  C   UNL     1       3.077  -2.155  -0.039  0.00  0.00    +0.243 C 
ATOM     18  O   UNL     1       3.787  -3.138  -0.050  0.00  0.00    -0.273 OA
ATOM     19  N   UNL     1       3.482  -0.870  -0.037  0.00  0.00    -0.283 N 
ATOM     20  H   UNL     1       1.617  -2.685   1.964  0.00  0.00    +0.124 HD
ATOM     21  H   UNL     1       4.413  -0.596  -0.046  0.00  0.00    +0.155 HD
ENDROOT
BRANCH  14  22
ATOM     22  C   UNL     1      -2.740  -2.839  -1.546  0.00  0.00    +0.084 C 
ATOM     23  C   UNL     1      -3.495  -2.933  -0.219  0.00  0.00    +0.023 C 
ATOM     24  C   UNL     1      -4.977  -2.632  -0.452  0.00  0.00    +0.002 C 
ATOM     25  C   UNL     1      -5.554  -3.647  -1.441  0.00  0.00    +0.000 C 
ATOM     26  C   UNL     1      -4.799  -3.553  -2.768  0.00  0.00    +0.002 C 
ATOM     27  C   UNL     1      -3.317  -3.854  -2.535  0.00  0.00    +0.023 C 
ENDBRANCH  14  22
BRANCH  10  28
ATOM     28  C   UNL     1       0.044  -5.060   1.597  0.00  0.00    +0.054 C 
BRANCH  28  29
ATOM     29  C   UNL     1       0.545  -5.157   3.014  0.00  0.00    -0.042 A 
ATOM     30  C   UNL     1       1.348  -6.218   3.391  0.00  0.00    +0.007 A 
ATOM     31  C   UNL     1       1.810  -6.312   4.690  0.00  0.00    +0.049 A 
ATOM     32  C   UNL     1       1.469  -5.341   5.619  0.00  0.00    +0.158 A 
ATOM     33  C   UNL     1       0.662  -4.273   5.240  0.00  0.00    +0.158 A 
ATOM     34  C   UNL     1       0.206  -4.183   3.934  0.00  0.00    +0.052 A 
BRANCH  33  35
ATOM     35  O   UNL     1       0.325  -3.318   6.147  0.00  0.00    -0.503 OA
ATOM     36  H   UNL     1       0.946  -2.578   6.188  0.00  0.00    +0.292 HD
ENDBRANCH  33  35
BRANCH  32  37
ATOM     37  O   UNL     1       1.923  -5.433   6.897  0.00  0.00    -0.503 OA
ATOM     38  H   UNL     1       2.772  -4.995   7.046  0.00  0.00    +0.292 HD
ENDBRANCH  32  37
ENDBRANCH  28  29
ENDBRANCH  10  28
TORSDOF 5
