REMARK  Name = ZINC06962214
REMARK  7 active torsions:
REMARK  status: ('A' for Active; 'I' for Inactive)
REMARK    1  A    between atoms: C_1  and  C_2
REMARK    2  A    between atoms: C_2  and  C_3
REMARK    3  A    between atoms: C_5  and  C_12
REMARK    4  A    between atoms: C_6  and  O_11
REMARK    5  A    between atoms: C_8  and  O_9
REMARK    6  A    between atoms: O_9  and  C_10
REMARK    7  A    between atoms: C_13  and  C_18
REMARK                            x       y       z     vdW  Elec       q    Type
REMARK                         _______ _______ _______ _____ _____    ______ ____
ROOT
ATOM      1  C   UNL     1      -0.282  -1.467  -4.699  0.00  0.00    +0.104 A 
ATOM      2  C   UNL     1      -1.284  -2.468  -4.764  0.00  0.00    +0.027 A 
ATOM      3  C   UNL     1      -1.572  -2.674  -6.080  0.00  0.00    +0.114 A 
ATOM      4  N   UNL     1      -0.793  -1.847  -6.808  0.00  0.00    -0.284 N 
ATOM      5  H   UNL     1      -0.787  -1.780  -7.776  0.00  0.00    +0.188 HD
ATOM      6  N   UNL     1       0.000  -1.099  -5.930  0.00  0.00    -0.173 NA
ENDROOT
BRANCH   2   7
ATOM      7  C   UNL     1      -1.904  -3.164  -3.610  0.00  0.00    -0.011 A 
ATOM      8  C   UNL     1      -1.103  -3.818  -2.676  0.00  0.00    +0.012 A 
ATOM      9  C   UNL     1      -1.682  -4.466  -1.603  0.00  0.00    +0.050 A 
ATOM     10  C   UNL     1      -3.060  -4.467  -1.450  0.00  0.00    +0.166 A 
ATOM     11  C   UNL     1      -3.865  -3.814  -2.381  0.00  0.00    +0.167 A 
ATOM     12  C   UNL     1      -3.289  -3.159  -3.454  0.00  0.00    +0.058 A 
ATOM     13  O   UNL     1      -5.170  -3.961  -2.007  0.00  0.00    -0.453 OA
ATOM     14  C   UNL     1      -5.181  -5.053  -1.069  0.00  0.00    +0.466 C 
ATOM     15  O   UNL     1      -3.861  -5.023  -0.494  0.00  0.00    -0.453 OA
ENDBRANCH   2   7
BRANCH   1  18
ATOM     16  C   UNL     1       0.105  -0.044  -1.242  0.00  0.00    -0.005 A 
ATOM     17  C   UNL     1      -0.470  -0.547  -2.391  0.00  0.00    +0.021 A 
ATOM     18  C   UNL     1       0.334  -0.926  -3.464  0.00  0.00    +0.045 A 
ATOM     19  C   UNL     1       1.724  -0.795  -3.372  0.00  0.00    +0.130 A 
ATOM     20  C   UNL     1       2.292  -0.289  -2.216  0.00  0.00    +0.092 A 
ATOM     21  C   UNL     1       1.484   0.090  -1.154  0.00  0.00    +0.127 A 
BRANCH  16  23
ATOM     22  C   UNL     1      -1.054   1.866  -0.166  0.00  0.00    +0.009 C 
ATOM     23  C   UNL     1      -0.766   0.365  -0.083  0.00  0.00    +0.035 C 
ENDBRANCH  16  23
BRANCH  21  24
ATOM     24  O   UNL     1       2.045   0.591  -0.021  0.00  0.00    -0.495 OA
ATOM     25  C   UNL     1       3.469   0.703   0.003  0.00  0.00    +0.277 C 
ENDBRANCH  21  24
BRANCH  19  26
ATOM     26  O   UNL     1       2.513  -1.163  -4.415  0.00  0.00    -0.506 OA
ATOM     27  H   UNL     1       2.749  -0.434  -5.005  0.00  0.00    +0.292 HD
ENDBRANCH  19  26
ENDBRANCH   1  18
TORSDOF 5
