REMARK  Name = ZINC05128354
REMARK  5 active torsions:
REMARK  status: ('A' for Active; 'I' for Inactive)
REMARK    1  A    between atoms: C_1  and  N_2
REMARK    2  A    between atoms: N_2  and  C_3
REMARK    3  A    between atoms: N_2  and  C_4
REMARK    4  A    between atoms: C_7  and  N_21
REMARK    5  A    between atoms: C_9  and  C_10
REMARK                            x       y       z     vdW  Elec       q    Type
REMARK                         _______ _______ _______ _____ _____    ______ ____
ROOT
ATOM      1  C   UNL     1      -0.828   3.195   0.684  0.00  0.00    +0.037 A 
ATOM      2  C   UNL     1       0.257   4.037   0.478  0.00  0.00    +0.026 A 
ATOM      3  C   UNL     1       0.115   5.401   0.638  0.00  0.00    +0.034 A 
ATOM      4  C   UNL     1      -1.108   5.943   1.005  0.00  0.00    +0.127 A 
ATOM      5  C   UNL     1      -2.196   5.127   1.215  0.00  0.00    +0.042 A 
ATOM      6  C   UNL     1      -2.072   3.741   1.052  0.00  0.00    -0.001 A 
ENDROOT
BRANCH   6   7
ATOM      7  C   UNL     1      -3.227   2.866   1.267  0.00  0.00    +0.028 C 
ATOM      8  C   UNL     1      -4.304   3.320   1.966  0.00  0.00    +0.061 C 
ATOM      9  C   UNL     1      -5.605   2.675   2.157  0.00  0.00    +0.201 C 
ATOM     10  O   UNL     1      -5.864   1.587   1.671  0.00  0.00    -0.286 OA
ATOM     11  C   UNL     1      -6.575   3.410   2.971  0.00  0.00    +0.036 A 
ATOM     12  C   UNL     1      -7.891   3.014   3.312  0.00  0.00    +0.013 A 
ATOM     13  C   UNL     1      -8.688   3.818   4.082  0.00  0.00    +0.001 A 
ATOM     14  C   UNL     1      -8.233   5.042   4.552  0.00  0.00    +0.001 A 
ATOM     15  C   UNL     1      -6.954   5.458   4.238  0.00  0.00    +0.016 A 
ATOM     16  C   UNL     1      -6.141   4.655   3.461  0.00  0.00    +0.024 A 
ATOM     17  S   UNL     1      -4.480   4.847   2.865  0.00  0.00    -0.085 S 
ENDBRANCH   6   7
BRANCH   1  19
ATOM     18  C   UNL     1      -0.272   1.493  -0.848  0.00  0.00    +0.129 C 
ATOM     19  N   UNL     1      -0.687   1.823   0.523  0.00  0.00    -0.336 N 
ATOM     20  C   UNL     1       0.255   1.271   1.505  0.00  0.00    +0.129 C 
ENDBRANCH   1  19
BRANCH   4  21
ATOM     21  N   UNL     1      -1.243   7.408   1.171  0.00  0.00    +0.056 N 
ATOM     22  O   UNL     1      -0.282   8.133   0.986  0.00  0.00    -0.126 OA
ATOM     23  O   UNL     1      -2.315   7.888   1.493  0.00  0.00    -0.126 OA
ENDBRANCH   4  21
TORSDOF 3
