REMARK  Name = ZINC35382084
REMARK  3 active torsions:
REMARK  status: ('A' for Active; 'I' for Inactive)
REMARK    1  A    between atoms: C_5  and  C_6
REMARK    2  A    between atoms: C_6  and  C_8
REMARK    3  A    between atoms: C_6  and  N_20
REMARK                            x       y       z     vdW  Elec       q    Type
REMARK                         _______ _______ _______ _____ _____    ______ ____
ROOT
ATOM      1  C   UNL     1      -1.432  -1.427   1.407  0.00  0.00    -0.040 A 
ATOM      2  C   UNL     1      -0.905  -2.646   1.796  0.00  0.00    +0.052 A 
ATOM      3  C   UNL     1      -1.124  -3.110   3.082  0.00  0.00    +0.162 A 
ATOM      4  C   UNL     1      -1.869  -2.354   3.977  0.00  0.00    +0.163 A 
ATOM      5  C   UNL     1      -2.395  -1.135   3.585  0.00  0.00    +0.065 A 
ATOM      6  C   UNL     1      -2.169  -0.671   2.300  0.00  0.00    +0.023 A 
ATOM      7 BR   UNL     1      -2.878   0.998   1.762  0.00  0.00    -0.050 Br
ATOM      8  O   UNL     1      -2.078  -2.820   5.242  0.00  0.00    -0.488 OA
ATOM      9  C   UNL     1      -2.917  -3.971   5.354  0.00  0.00    +0.232 C 
ATOM     10  C   UNL     1      -2.116  -5.245   5.137  0.00  0.00    +0.082 C 
ATOM     11  C   UNL     1      -1.561  -5.347   3.725  0.00  0.00    +0.232 C 
ATOM     12  O   UNL     1      -0.609  -4.310   3.478  0.00  0.00    -0.488 OA
ENDROOT
BRANCH   1  13
ATOM     13  C   UNL     1      -1.196  -0.918   0.009  0.00  0.00    -0.009 C 
BRANCH  13  18
ATOM     14  C   UNL     1      -0.017   1.410   0.010  0.00  0.00    +0.043 A 
ATOM     15  C   UNL     1       1.265   1.817  -0.000  0.00  0.00    +0.195 A 
ATOM     16  O   UNL     1       2.055   0.731  -0.014  0.00  0.00    -0.471 OA
ATOM     17  C   UNL     1       1.295  -0.376  -0.012  0.00  0.00    +0.197 A 
ATOM     18  C   UNL     1       0.002  -0.004   0.002  0.00  0.00    -0.020 A 
ENDBRANCH  13  18
BRANCH  13  19
ATOM     19  N   UNL     1      -0.950  -2.054  -0.890  0.00  0.00    +0.385 N 
ATOM     20  H   UNL     1      -0.137  -2.562  -0.575  0.00  0.00    -0.089 HD
ATOM     21  H   UNL     1      -1.752  -2.666  -0.886  0.00  0.00    -0.089 HD
ATOM     22  H   UNL     1      -0.792  -1.714  -1.827  0.00  0.00    -0.089 HD
ENDBRANCH  13  19
ENDBRANCH   1  13
TORSDOF 3
