REMARK  Name = ZINC16814373
REMARK  6 active torsions:
REMARK  status: ('A' for Active; 'I' for Inactive)
REMARK    1  A    between atoms: C_3  and  N_26
REMARK    2  A    between atoms: C_4  and  C_10
REMARK    3  A    between atoms: C_6  and  N_7
REMARK    4  A    between atoms: C_10  and  O_12
REMARK    5  A    between atoms: O_12  and  C_13
REMARK    6  A    between atoms: C_13  and  C_14
REMARK                            x       y       z     vdW  Elec       q    Type
REMARK                         _______ _______ _______ _____ _____    ______ ____
ROOT
ATOM      1  C   UNL     1      -2.479  -0.017   0.255  0.00  0.00    +0.341 C 
ATOM      2  O   UNL     1      -2.515   1.195   0.171  0.00  0.00    -0.245 OA
ENDROOT
BRANCH   1   6
ATOM      3  C   UNL     1       1.223  -2.066  -0.124  0.00  0.00    +0.034 A 
ATOM      4  C   UNL     1       1.208  -0.686  -0.103  0.00  0.00    +0.026 A 
ATOM      5  C   UNL     1       0.004  -0.004   0.017  0.00  0.00    +0.039 A 
ATOM      6  C   UNL     1      -1.196  -0.727   0.121  0.00  0.00    +0.082 A 
ATOM      7  C   UNL     1      -1.164  -2.124   0.093  0.00  0.00    +0.049 A 
ATOM      8  C   UNL     1       0.040  -2.782  -0.026  0.00  0.00    +0.127 A 
BRANCH   8   9
ATOM      9  N   UNL     1       0.071  -4.261  -0.050  0.00  0.00    +0.056 N 
ATOM     10  O   UNL     1       1.134  -4.846  -0.156  0.00  0.00    -0.126 OA
ATOM     11  O   UNL     1      -0.966  -4.894   0.035  0.00  0.00    -0.126 OA
ENDBRANCH   8   9
BRANCH   5  12
ATOM     12  N   UNL     1      -0.013   1.384   0.039  0.00  0.00    -0.357 N 
ATOM     13  H   UNL     1       0.821   1.879   0.055  0.00  0.00    +0.142 HD
ATOM     14  H   UNL     1      -0.859   1.859   0.034  0.00  0.00    +0.142 HD
ENDBRANCH   5  12
ENDBRANCH   1   6
BRANCH   1  15
ATOM     15  O   UNL     1      -3.614  -0.711   0.470  0.00  0.00    -0.456 OA
BRANCH  15  16
ATOM     16  C   UNL     1      -4.842   0.054   0.591  0.00  0.00    +0.268 C 
BRANCH  16  17
ATOM     17  C   UNL     1      -5.998  -0.884   0.827  0.00  0.00    -0.005 A 
ATOM     18  C   UNL     1      -6.355  -1.226   2.119  0.00  0.00    +0.056 A 
ATOM     19  C   UNL     1      -7.417  -2.088   2.333  0.00  0.00    +0.164 A 
ATOM     20  C   UNL     1      -8.119  -2.607   1.254  0.00  0.00    +0.180 A 
ATOM     21  C   UNL     1      -7.759  -2.263  -0.039  0.00  0.00    +0.087 A 
ATOM     22  C   UNL     1      -6.700  -1.395  -0.248  0.00  0.00    +0.031 A 
ATOM     23 CL   UNL     1      -8.636  -2.910  -1.390  0.00  0.00    -0.080 Cl
ATOM     24  O   UNL     1      -9.164  -3.457   1.475  0.00  0.00    -0.487 OA
ATOM     25  C   UNL     1     -10.320  -2.880   2.085  0.00  0.00    +0.232 C 
ATOM     26  C   UNL     1     -10.172  -2.847   3.598  0.00  0.00    +0.082 C 
ATOM     27  C   UNL     1      -9.041  -1.936   4.049  0.00  0.00    +0.232 C 
ATOM     28  O   UNL     1      -7.779  -2.434   3.602  0.00  0.00    -0.488 OA
ENDBRANCH  16  17
ENDBRANCH  15  16
ENDBRANCH   1  15
TORSDOF 6
