REMARK  Name = ZINC05346168
REMARK  8 active torsions:
REMARK  status: ('A' for Active; 'I' for Inactive)
REMARK    1  A    between atoms: C_1  and  C_2
REMARK    2  A    between atoms: C_4  and  O_27
REMARK    3  A    between atoms: C_6  and  C_26
REMARK    4  A    between atoms: C_7  and  C_13
REMARK    5  A    between atoms: C_13  and  C_14
REMARK    6  A    between atoms: N_16  and  C_17
REMARK    7  A    between atoms: C_17  and  C_18
REMARK    8  A    between atoms: C_18  and  C_19
REMARK                            x       y       z     vdW  Elec       q    Type
REMARK                         _______ _______ _______ _____ _____    ______ ____
ROOT
ATOM      1  C   UNL     1      -1.298  -0.764  -0.127  0.00  0.00    +0.044 C 
ATOM      2  C   UNL     1       0.002  -0.002  -0.100  0.00  0.00    -0.043 A 
ATOM      3  C   UNL     1       1.202  -0.695  -0.117  0.00  0.00    +0.049 A 
ATOM      4  C   UNL     1       2.403  -0.009  -0.091  0.00  0.00    +0.128 A 
ATOM      5  C   UNL     1       2.396   1.394  -0.049  0.00  0.00    +0.062 A 
ATOM      6  C   UNL     1       3.647   2.154  -0.022  0.00  0.00    -0.026 A 
ATOM      7  C   UNL     1       3.573   3.510   0.021  0.00  0.00    +0.049 A 
ATOM      8  C   UNL     1       2.313   4.143   0.035  0.00  0.00    +0.341 A 
ATOM      9  O   UNL     1       2.260   5.359   0.073  0.00  0.00    -0.245 OA
ATOM     10  O   UNL     1       1.170   3.439   0.009  0.00  0.00    -0.422 OA
ATOM     11  C   UNL     1       1.174   2.089  -0.032  0.00  0.00    +0.143 A 
ATOM     12  C   UNL     1      -0.017   1.377  -0.058  0.00  0.00    +0.050 A 
ATOM     13  C   UNL     1       4.980   1.452  -0.038  0.00  0.00    +0.045 C 
ENDROOT
BRANCH   4  14
ATOM     14  O   UNL     1       3.578  -0.688  -0.108  0.00  0.00    -0.506 OA
ATOM     15  H   UNL     1       3.922  -0.857  -0.996  0.00  0.00    +0.292 HD
ENDBRANCH   4  14
BRANCH   7  16
ATOM     16  C   UNL     1       4.833   4.335   0.051  0.00  0.00    +0.138 C 
BRANCH  16  17
ATOM     17  C   UNL     1       5.248   4.567   1.481  0.00  0.00    +0.218 C 
ATOM     18  O   UNL     1       4.585   4.107   2.387  0.00  0.00    -0.275 OA
ATOM     19  N   UNL     1       6.356   5.285   1.754  0.00  0.00    -0.315 N 
ATOM     20  H   UNL     1       6.886   5.653   1.029  0.00  0.00    +0.149 HD
BRANCH  19  21
ATOM     21  C   UNL     1       6.759   5.510   3.144  0.00  0.00    +0.109 C 
BRANCH  21  22
ATOM     22  C   UNL     1       8.039   6.348   3.175  0.00  0.00    +0.054 C 
BRANCH  22  23
ATOM     23  C   UNL     1       8.454   6.579   4.605  0.00  0.00    -0.043 A 
ATOM     24  C   UNL     1       7.992   7.690   5.287  0.00  0.00    +0.004 A 
ATOM     25  C   UNL     1       8.368   7.901   6.600  0.00  0.00    +0.003 A 
ATOM     26  C   UNL     1       9.214   7.007   7.230  0.00  0.00    +0.038 A 
ATOM     27  C   UNL     1       9.681   5.898   6.546  0.00  0.00    +0.124 A 
ATOM     28  C   UNL     1       9.299   5.684   5.232  0.00  0.00    +0.042 A 
ATOM     29  F   UNL     1      10.508   5.024   7.160  0.00  0.00    -0.205 F 
ENDBRANCH  22  23
ENDBRANCH  21  22
ENDBRANCH  19  21
ENDBRANCH  16  17
ENDBRANCH   7  16
TORSDOF 6
