REMARK  Name = ZINC02624769
REMARK  6 active torsions:
REMARK  status: ('A' for Active; 'I' for Inactive)
REMARK    1  A    between atoms: C_4  and  N_7
REMARK    2  A    between atoms: C_20  and  S_21
REMARK    3  A    between atoms: S_21  and  C_22
REMARK    4  A    between atoms: C_22  and  C_23
REMARK    5  A    between atoms: N_25  and  C_26
REMARK    6  A    between atoms: C_27  and  C_36
REMARK                            x       y       z     vdW  Elec       q    Type
REMARK                         _______ _______ _______ _____ _____    ______ ____
ROOT
ATOM      1  N   UNL     1       3.622  -0.651  -0.037  0.00  0.00    -0.245 N 
ATOM      2  C   UNL     1       4.772   0.048  -0.141  0.00  0.00    +0.268 A 
ATOM      3  O   UNL     1       4.752   1.261  -0.221  0.00  0.00    -0.267 OA
ATOM      4  C   UNL     1       6.052  -0.683  -0.156  0.00  0.00    +0.064 A 
ATOM      5  C   UNL     1       7.268  -0.010  -0.262  0.00  0.00    +0.015 A 
ATOM      6  C   UNL     1       8.445  -0.728  -0.272  0.00  0.00    +0.001 A 
ATOM      7  C   UNL     1       8.424  -2.110  -0.178  0.00  0.00    +0.002 A 
ATOM      8  C   UNL     1       7.226  -2.788  -0.073  0.00  0.00    +0.027 A 
ATOM      9  C   UNL     1       6.032  -2.084  -0.061  0.00  0.00    +0.064 A 
ATOM     10  N   UNL     1       4.811  -2.737   0.044  0.00  0.00    -0.255 N 
ATOM     11  C   UNL     1       3.635  -2.034   0.061  0.00  0.00    +0.245 A 
ATOM     12  N   UNL     1       2.667  -2.912   0.174  0.00  0.00    -0.109 NA
ATOM     13  N   UNL     1       3.154  -4.100   0.233  0.00  0.00    -0.120 NA
ATOM     14  C   UNL     1       4.462  -4.057   0.151  0.00  0.00    +0.198 A 
ENDROOT
BRANCH   1  18
ATOM     15  C   UNL     1      -0.017   1.378   0.011  0.00  0.00    +0.000 A 
ATOM     16  C   UNL     1       0.524   0.960  -1.191  0.00  0.00    +0.002 A 
ATOM     17  C   UNL     1       1.731   0.288  -1.210  0.00  0.00    +0.026 A 
ATOM     18  C   UNL     1       2.400   0.031  -0.021  0.00  0.00    +0.053 A 
ATOM     19  C   UNL     1       1.853   0.452   1.185  0.00  0.00    +0.026 A 
ATOM     20  C   UNL     1       0.646   1.124   1.197  0.00  0.00    +0.002 A 
ENDBRANCH   1  18
BRANCH  14  21
ATOM     21  S   UNL     1       5.562  -5.433   0.188  0.00  0.00    -0.076 S 
BRANCH  21  22
ATOM     22  C   UNL     1       4.463  -6.868   0.340  0.00  0.00    +0.173 C 
BRANCH  22  23
ATOM     23  C   UNL     1       5.288  -8.129   0.384  0.00  0.00    +0.228 C 
ATOM     24  O   UNL     1       6.497  -8.065   0.319  0.00  0.00    -0.275 OA
ATOM     25  N   UNL     1       4.681  -9.328   0.495  0.00  0.00    -0.278 N 
ATOM     26  H   UNL     1       3.714  -9.378   0.547  0.00  0.00    +0.155 HD
BRANCH  25  27
ATOM     27  C   UNL     1       5.440 -10.489   0.535  0.00  0.00    +0.090 A 
ATOM     28  C   UNL     1       4.994 -11.794   0.640  0.00  0.00    +0.084 A 
ATOM     29  C   UNL     1       6.000 -12.847   0.662  0.00  0.00    -0.018 A 
ATOM     30  C   UNL     1       7.268 -12.393   0.581  0.00  0.00    -0.004 A 
ATOM     31  S   UNL     1       7.111 -10.633   0.461  0.00  0.00    -0.077 S 
ATOM     32  C   UNL     1       8.530 -13.197   0.596  0.00  0.00    +0.043 C 
ATOM     33  C   UNL     1       8.402 -14.354  -0.405  0.00  0.00    +0.005 C 
ATOM     34  C   UNL     1       7.796 -15.555   0.314  0.00  0.00    +0.001 C 
ATOM     35  C   UNL     1       6.814 -15.088   1.387  0.00  0.00    +0.005 C 
ATOM     36  C   UNL     1       5.654 -14.326   0.754  0.00  0.00    +0.037 C 
BRANCH  28  37
ATOM     37  C   UNL     1       3.597 -12.098   0.724  0.00  0.00    +0.102 C 
ATOM     38  N   UNL     1       2.489 -12.339   0.790  0.00  0.00    -0.191 NA
ENDBRANCH  28  37
ENDBRANCH  25  27
ENDBRANCH  22  23
ENDBRANCH  21  22
ENDBRANCH  14  21
TORSDOF 6
