REMARK  Name = ZINC35927389
REMARK  4 active torsions:
REMARK  status: ('A' for Active; 'I' for Inactive)
REMARK    1  A    between atoms: C_5  and  C_7
REMARK    2  A    between atoms: N_9  and  C_10
REMARK    3  A    between atoms: C_14  and  C_16
REMARK    4  A    between atoms: N_18  and  C_23
REMARK                            x       y       z     vdW  Elec       q    Type
REMARK                         _______ _______ _______ _____ _____    ______ ____
ROOT
ATOM      1  C   UNL     1      -0.006  -4.205  -0.068  0.00  0.00    +0.034 A 
ATOM      2  C   UNL     1       1.192  -4.907  -0.074  0.00  0.00    +0.023 A 
ATOM      3  C   UNL     1       1.184  -6.284  -0.182  0.00  0.00    +0.002 A 
ATOM      4  C   UNL     1      -0.016  -6.964  -0.285  0.00  0.00    +0.006 A 
ATOM      5  C   UNL     1      -1.211  -6.268  -0.280  0.00  0.00    -0.015 A 
ATOM      6  C   UNL     1      -1.210  -4.892  -0.165  0.00  0.00    +0.029 A 
ENDROOT
BRANCH   5   7
ATOM      7  C   UNL     1      -2.516  -7.013  -0.392  0.00  0.00    +0.170 C 
ATOM      8  N   UNL     1      -2.387  -8.389   0.125  0.00  0.00    -0.254 N 
ATOM      9  C   UNL     1      -2.867  -9.398  -0.590  0.00  0.00    +0.231 C 
ATOM     10  O   UNL     1      -2.785 -10.542  -0.197  0.00  0.00    -0.274 OA
ATOM     11  C   UNL     1      -3.523  -9.067  -1.921  0.00  0.00    +0.167 C 
ATOM     12  S   UNL     1      -2.949  -7.328  -2.157  0.00  0.00    -0.124 S 
BRANCH   8  13
ATOM     13  C   UNL     1      -1.766  -8.627   1.358  0.00  0.00    +0.041 A 
ATOM     14  C   UNL     1      -0.587  -9.359   1.411  0.00  0.00    +0.027 A 
ATOM     15  C   UNL     1       0.028  -9.594   2.626  0.00  0.00    +0.051 A 
ATOM     16  C   UNL     1      -0.530  -9.101   3.795  0.00  0.00    +0.166 A 
ATOM     17  C   UNL     1      -1.713  -8.367   3.745  0.00  0.00    +0.168 A 
ATOM     18  C   UNL     1      -2.325  -8.126   2.526  0.00  0.00    +0.073 A 
ATOM     19  O   UNL     1      -2.052  -7.999   5.015  0.00  0.00    -0.453 OA
ATOM     20  C   UNL     1      -1.290  -8.860   5.881  0.00  0.00    +0.466 C 
ATOM     21  O   UNL     1      -0.129  -9.193   5.097  0.00  0.00    -0.453 OA
ENDBRANCH   8  13
ENDBRANCH   5   7
BRANCH   1  24
ATOM     22  C   UNL     1       0.978  -2.093  -0.540  0.00  0.00    +0.251 C 
ATOM     23  O   UNL     1       1.899  -2.659  -1.097  0.00  0.00    -0.270 OA
ATOM     24  N   UNL     1      -0.002  -2.811   0.043  0.00  0.00    -0.281 N 
ATOM     25  H   UNL     1      -0.704  -2.362   0.539  0.00  0.00    +0.155 HD
BRANCH  22  30
ATOM     26  C   UNL     1      -0.157   1.415   0.168  0.00  0.00    +0.001 A 
ATOM     27  C   UNL     1       0.850   2.152  -0.431  0.00  0.00    +0.003 A 
ATOM     28  C   UNL     1       1.899   1.514  -1.065  0.00  0.00    +0.039 A 
ATOM     29  C   UNL     1       1.949   0.132  -1.105  0.00  0.00    +0.135 A 
ATOM     30  C   UNL     1       0.934  -0.617  -0.502  0.00  0.00    +0.072 A 
ATOM     31  C   UNL     1      -0.122   0.037   0.137  0.00  0.00    +0.016 A 
ATOM     32  F   UNL     1       2.974  -0.492  -1.725  0.00  0.00    -0.205 F 
ENDBRANCH  22  30
ENDBRANCH   1  24
TORSDOF 4
