REMARK  Name = ZINC20462723
REMARK  8 active torsions:
REMARK  status: ('A' for Active; 'I' for Inactive)
REMARK    1  A    between atoms: C_1  and  C_2
REMARK    2  A    between atoms: C_2  and  C_3
REMARK    3  A    between atoms: C_12  and  C_14
REMARK    4  A    between atoms: C_14  and  N_15
REMARK    5  A    between atoms: N_15  and  C_16
REMARK    6  A    between atoms: N_15  and  C_22
REMARK    7  A    between atoms: C_16  and  C_17
REMARK    8  A    between atoms: C_22  and  C_23
REMARK                            x       y       z     vdW  Elec       q    Type
REMARK                         _______ _______ _______ _____ _____    ______ ____
ROOT
ATOM      1  N   UNL     1      -3.287  -0.912   3.254  0.00  0.00    +0.385 N 
ATOM      2  H   UNL     1      -2.623  -0.305   3.711  0.00  0.00    -0.081 HD
ENDROOT
BRANCH   1   3
ATOM      3  C   UNL     1      -2.721  -1.389   1.985  0.00  0.00    -0.094 C 
BRANCH   3  11
ATOM      4  C   UNL     1       0.363  -0.272   0.794  0.00  0.00    -0.025 C 
ATOM      5  C   UNL     1      -0.294   0.089   2.128  0.00  0.00    -0.075 C 
ATOM      6  N   UNL     1      -0.485  -1.119   2.935  0.00  0.00    +0.381 N 
ATOM      7  C   UNL     1       0.803  -1.748   3.236  0.00  0.00    -0.078 C 
ATOM      8  C   UNL     1       1.496  -2.169   1.939  0.00  0.00    -0.015 C 
ATOM      9  C   UNL     1       0.604  -1.786   0.750  0.00  0.00    -0.013 C 
ATOM     10  C   UNL     1      -0.747  -2.496   0.916  0.00  0.00    -0.014 C 
ATOM     11  C   UNL     1      -1.372  -2.062   2.250  0.00  0.00    -0.085 C 
ATOM     12  H   UNL     1      -0.915  -0.854   3.809  0.00  0.00    -0.082 HD
BRANCH   4  14
ATOM     13  C   UNL     1      -0.702   1.658  -0.383  0.00  0.00    +0.004 C 
ATOM     14  C   UNL     1      -0.558   0.135  -0.357  0.00  0.00    -0.002 C 
ENDBRANCH   4  14
ENDBRANCH   3  11
ENDBRANCH   1   3
BRANCH   1  15
ATOM     15  C   UNL     1      -4.527  -0.170   2.988  0.00  0.00    -0.035 C 
BRANCH  15  16
ATOM     16  C   UNL     1      -4.205   1.087   2.221  0.00  0.00    -0.027 A 
ATOM     17  C   UNL     1      -4.242   1.304   0.884  0.00  0.00    +0.009 A 
ATOM     18  C   UNL     1      -3.903   2.552   0.397  0.00  0.00    +0.008 A 
ATOM     19  C   UNL     1      -3.543   3.523   1.272  0.00  0.00    +0.045 A 
ATOM     20  S   UNL     1      -3.685   2.679   2.839  0.00  0.00    -0.103 S 
ENDBRANCH  15  16
ENDBRANCH   1  15
BRANCH   1  21
ATOM     21  C   UNL     1      -3.580  -2.060   4.122  0.00  0.00    -0.035 C 
BRANCH  21  22
ATOM     22  C   UNL     1      -4.044  -1.567   5.468  0.00  0.00    -0.027 A 
ATOM     23  C   UNL     1      -5.308  -1.388   5.923  0.00  0.00    +0.009 A 
ATOM     24  C   UNL     1      -5.498  -0.920   7.209  0.00  0.00    +0.008 A 
ATOM     25  C   UNL     1      -4.414  -0.653   7.978  0.00  0.00    +0.045 A 
ATOM     26  S   UNL     1      -3.070  -1.073   6.881  0.00  0.00    -0.103 S 
ENDBRANCH  21  22
ENDBRANCH   1  21
TORSDOF 7
