REMARK  Name = ZINC67247502
REMARK  11 active torsions:
REMARK  status: ('A' for Active; 'I' for Inactive)
REMARK    1  A    between atoms: C_1  and  C_2
REMARK    2  A    between atoms: C_2  and  C_3
REMARK    3  A    between atoms: C_2  and  O_4
REMARK    4  A    between atoms: O_4  and  C_5
REMARK    5  A    between atoms: C_10  and  C_11
REMARK    6  A    between atoms: C_11  and  N_12
REMARK    7  A    between atoms: N_12  and  C_13
REMARK    8  A    between atoms: C_13  and  C_14
REMARK    9  A    between atoms: C_17  and  N_20
REMARK   10  A    between atoms: C_23  and  C_26
REMARK   11  A    between atoms: C_26  and  O_27
REMARK                            x       y       z     vdW  Elec       q    Type
REMARK                         _______ _______ _______ _____ _____    ______ ____
ROOT
ATOM      1  C   UNL     1       0.986  -0.155  -5.459  0.00  0.00    -0.046 C 
ENDROOT
BRANCH   1   2
ATOM      2  C   UNL     1       0.633   1.152  -6.121  0.00  0.00    -0.064 A 
ATOM      3  C   UNL     1      -0.583   1.755  -5.853  0.00  0.00    +0.003 A 
ATOM      4  C   UNL     1      -0.909   2.953  -6.458  0.00  0.00    +0.023 A 
ATOM      5  C   UNL     1      -0.016   3.551  -7.337  0.00  0.00    +0.030 A 
ATOM      6  C   UNL     1       1.204   2.943  -7.604  0.00  0.00    +0.023 A 
ATOM      7  C   UNL     1       1.527   1.748  -6.991  0.00  0.00    +0.003 A 
BRANCH   5   8
ATOM      8  N   UNL     1      -0.343   4.763  -7.950  0.00  0.00    -0.330 N 
ATOM      9  C   UNL     1       0.532   5.341  -8.980  0.00  0.00    +0.105 C 
ATOM     10  C   UNL     1      -0.302   5.623 -10.233  0.00  0.00    +0.024 C 
ATOM     11  C   UNL     1      -1.498   6.502  -9.859  0.00  0.00    +0.017 C 
ATOM     12  C   UNL     1      -2.379   5.764  -8.849  0.00  0.00    +0.024 C 
ATOM     13  C   UNL     1      -1.572   5.479  -7.584  0.00  0.00    +0.105 C 
BRANCH  11  14
ATOM     14  C   UNL     1      -2.314   6.815 -11.114  0.00  0.00    +0.159 C 
BRANCH  14  15
ATOM     15  O   UNL     1      -3.362   7.729 -10.786  0.00  0.00    -0.395 OA
ATOM     16  H   UNL     1      -3.921   7.973 -11.536  0.00  0.00    +0.209 HD
ENDBRANCH  14  15
ENDBRANCH  11  14
ENDBRANCH   5   8
ENDBRANCH   1   2
BRANCH   1  17
ATOM     17  N   UNL     1       1.670   0.110  -4.186  0.00  0.00    +0.384 N 
ATOM     18  H   UNL     1       1.061   0.640  -3.581  0.00  0.00    -0.085 HD
ATOM     19  H   UNL     1       2.512   0.637  -4.361  0.00  0.00    -0.085 HD
BRANCH  17  20
ATOM     20  C   UNL     1       2.014  -1.164  -3.541  0.00  0.00    -0.043 C 
BRANCH  20  26
ATOM     21  C   UNL     1       1.980  -0.560  -1.108  0.00  0.00    +0.122 A 
ATOM     22  C   UNL     1       2.629  -0.316   0.094  0.00  0.00    +0.046 A 
ATOM     23  C   UNL     1       4.005  -0.399   0.164  0.00  0.00    +0.004 A 
ATOM     24  C   UNL     1       4.737  -0.725  -0.963  0.00  0.00    +0.000 A 
ATOM     25  C   UNL     1       4.093  -0.969  -2.162  0.00  0.00    +0.005 A 
ATOM     26  C   UNL     1       2.716  -0.892  -2.235  0.00  0.00    -0.023 A 
BRANCH  21  27
ATOM     27  O   UNL     1       0.625  -0.480  -1.178  0.00  0.00    -0.489 OA
BRANCH  27  29
ATOM     28  C   UNL     1      -0.054   1.465   0.086  0.00  0.00    +0.051 C 
ATOM     29  C   UNL     1      -0.063  -0.063   0.003  0.00  0.00    +0.167 C 
ATOM     30  C   UNL     1      -1.508  -0.562  -0.045  0.00  0.00    +0.051 C 
ENDBRANCH  27  29
ENDBRANCH  21  27
ENDBRANCH  20  26
ENDBRANCH  17  20
ENDBRANCH   1  17
TORSDOF 9
