REMARK  Name = ZINC22111447
REMARK  5 active torsions:
REMARK  status: ('A' for Active; 'I' for Inactive)
REMARK    1  A    between atoms: C_4  and  C_7
REMARK    2  A    between atoms: N_11  and  N_12
REMARK    3  A    between atoms: N_12  and  C_13
REMARK    4  A    between atoms: C_13  and  C_14
REMARK    5  A    between atoms: C_17  and  C_19
REMARK                            x       y       z     vdW  Elec       q    Type
REMARK                         _______ _______ _______ _____ _____    ______ ____
ROOT
ATOM      1  N   UNL     1      -4.468   3.856  -2.574  0.00  0.00    -0.274 N 
ATOM      2  H   UNL     1      -3.518   4.168  -3.033  0.00  0.00    +0.167 HD
ENDROOT
BRANCH   1   7
ATOM      3  C   UNL     1      -6.611   4.949  -3.068  0.00  0.00    +0.180 A 
ATOM      4  N   UNL     1      -7.701   4.558  -3.685  0.00  0.00    -0.152 NA
ATOM      5  N   UNL     1      -7.565   3.346  -4.091  0.00  0.00    -0.253 N 
ATOM      6  C   UNL     1      -6.376   2.892  -3.764  0.00  0.00    +0.193 A 
ATOM      7  N   UNL     1      -5.729   3.893  -3.097  0.00  0.00    -0.222 N 
ATOM      8  S   UNL     1      -5.737   1.288  -4.116  0.00  0.00    -0.010 S 
ATOM      9  H   UNL     1      -8.387   2.850  -4.628  0.00  0.00    +0.191 HD
BRANCH   3  13
ATOM     10  C   UNL     1      -5.929   8.758  -1.316  0.00  0.00    +0.000 A 
ATOM     11  C   UNL     1      -5.119   7.689  -0.976  0.00  0.00    +0.001 A 
ATOM     12  C   UNL     1      -5.335   6.449  -1.542  0.00  0.00    +0.011 A 
ATOM     13  C   UNL     1      -6.373   6.274  -2.458  0.00  0.00    +0.021 A 
ATOM     14  C   UNL     1      -7.184   7.358  -2.800  0.00  0.00    +0.011 A 
ATOM     15  C   UNL     1      -6.960   8.592  -2.224  0.00  0.00    +0.001 A 
ENDBRANCH   3  13
ENDBRANCH   1   7
BRANCH   1  16
ATOM     16  C   UNL     1      -4.480   3.310  -1.210  0.00  0.00    +0.195 C 
BRANCH  16  17
ATOM     17  C   UNL     1      -3.075   3.284  -0.667  0.00  0.00    +0.124 A 
ATOM     18  C   UNL     1      -2.479   4.279   0.019  0.00  0.00    +0.047 A 
ATOM     19  C   UNL     1      -1.179   3.840   0.339  0.00  0.00    +0.050 A 
ATOM     20  C   UNL     1      -1.049   2.590  -0.180  0.00  0.00    +0.137 A 
ATOM     21  O   UNL     1      -2.208   2.265  -0.785  0.00  0.00    -0.458 OA
BRANCH  20  22
ATOM     22  C   UNL     1       0.153   1.735  -0.092  0.00  0.00    +0.036 A 
ATOM     23  C   UNL     1       1.402   2.243  -0.451  0.00  0.00    +0.014 A 
ATOM     24  C   UNL     1       2.520   1.438  -0.372  0.00  0.00    +0.021 A 
ATOM     25  C   UNL     1       2.404   0.128   0.064  0.00  0.00    +0.042 A 
ATOM     26  C   UNL     1       1.168  -0.382   0.422  0.00  0.00    +0.040 A 
ATOM     27  C   UNL     1       0.042   0.413   0.347  0.00  0.00    +0.053 A 
ATOM     28 CL   UNL     1      -1.507  -0.228   0.795  0.00  0.00    -0.083 Cl
ATOM     29 CL   UNL     1       3.816  -0.877   0.161  0.00  0.00    -0.083 Cl
ENDBRANCH  20  22
ENDBRANCH  16  17
ENDBRANCH   1  16
TORSDOF 5
