REMARK  Name = ZINC00380076
REMARK  4 active torsions:
REMARK  status: ('A' for Active; 'I' for Inactive)
REMARK    1  A    between atoms: C_1  and  C_2
REMARK    2  A    between atoms: C_4  and  S_10
REMARK    3  A    between atoms: C_7  and  C_8
REMARK    4  A    between atoms: S_10  and  N_13
REMARK                            x       y       z     vdW  Elec       q    Type
REMARK                         _______ _______ _______ _____ _____    ______ ____
ROOT
ATOM      1  C   UNL     1       6.858  -1.001  -2.420  0.00  0.00    +0.044 C 
ATOM      2  C   UNL     1       5.502  -1.381  -1.882  0.00  0.00    -0.046 A 
ATOM      3  C   UNL     1       5.125  -0.981  -0.613  0.00  0.00    +0.033 A 
ATOM      4  C   UNL     1       3.882  -1.329  -0.120  0.00  0.00    +0.120 A 
ATOM      5  C   UNL     1       3.017  -2.081  -0.893  0.00  0.00    +0.044 A 
ATOM      6  C   UNL     1       3.392  -2.476  -2.165  0.00  0.00    +0.020 A 
ATOM      7  C   UNL     1       4.636  -2.128  -2.657  0.00  0.00    -0.046 A 
ATOM      8  C   UNL     1       5.046  -2.563  -4.040  0.00  0.00    +0.044 C 
ATOM      9 BR   UNL     1       1.318  -2.563  -0.216  0.00  0.00    -0.048 Br
ENDROOT
BRANCH   4  10
ATOM     10  S   UNL     1       3.402  -0.819   1.497  0.00  0.00    +0.062 S 
ATOM     11  O   UNL     1       4.514  -0.130   2.053  0.00  0.00    -0.153 OA
ATOM     12  O   UNL     1       2.819  -1.953   2.124  0.00  0.00    -0.153 OA
BRANCH  10  13
ATOM     13  N   UNL     1       2.193   0.298   1.320  0.00  0.00    -0.177 NA
ATOM     14  C   UNL     1       0.784  -0.096   1.456  0.00  0.00    +0.109 C 
ATOM     15  C   UNL     1       0.023   0.352   0.204  0.00  0.00    +0.017 C 
ATOM     16  C   UNL     1       0.239   1.853  -0.009  0.00  0.00    +0.003 C 
ATOM     17  C   UNL     1       1.728   2.130  -0.223  0.00  0.00    +0.017 C 
ATOM     18  C   UNL     1       2.508   1.702   1.024  0.00  0.00    +0.109 C 
ENDBRANCH  10  13
ENDBRANCH   4  10
TORSDOF 2
