REMARK  Name = ZINC15328596
REMARK  7 active torsions:
REMARK  status: ('A' for Active; 'I' for Inactive)
REMARK    1  A    between atoms: C_4  and  C_7
REMARK    2  A    between atoms: C_7  and  S_8
REMARK    3  A    between atoms: S_8  and  N_11
REMARK    4  A    between atoms: N_11  and  C_12
REMARK    5  A    between atoms: C_12  and  C_13
REMARK    6  A    between atoms: C_13  and  C_15
REMARK    7  A    between atoms: C_13  and  C_21
REMARK                            x       y       z     vdW  Elec       q    Type
REMARK                         _______ _______ _______ _____ _____    ______ ____
ROOT
ATOM      1  C   UNL     1      -1.333   3.373  -3.220  0.00  0.00    +0.066 C 
ENDROOT
BRANCH   1   2
ATOM      2  C   UNL     1      -1.638   4.813  -3.543  0.00  0.00    -0.014 A 
ATOM      3  C   UNL     1      -0.802   5.855  -3.412  0.00  0.00    +0.088 A 
ATOM      4  N   UNL     1      -1.427   7.007  -3.805  0.00  0.00    -0.360 N 
ATOM      5  H   UNL     1      -1.024   7.889  -3.803  0.00  0.00    +0.165 HD
ATOM      6  C   UNL     1      -2.717   6.728  -4.200  0.00  0.00    +0.047 A 
ATOM      7  C   UNL     1      -2.905   5.342  -4.053  0.00  0.00    +0.003 A 
ATOM      8  C   UNL     1      -4.135   4.767  -4.382  0.00  0.00    +0.010 A 
ATOM      9  C   UNL     1      -5.150   5.556  -4.846  0.00  0.00    +0.001 A 
ATOM     10  C   UNL     1      -4.969   6.924  -4.992  0.00  0.00    +0.002 A 
ATOM     11  C   UNL     1      -3.764   7.512  -4.673  0.00  0.00    +0.026 A 
ENDBRANCH   1   2
BRANCH   1  12
ATOM     12  C   UNL     1      -0.182   2.901  -4.071  0.00  0.00    -0.039 A 
ATOM     13  C   UNL     1       1.044   3.534  -3.988  0.00  0.00    +0.004 A 
ATOM     14  C   UNL     1       2.101   3.098  -4.765  0.00  0.00    +0.000 A 
ATOM     15  C   UNL     1       1.929   2.035  -5.632  0.00  0.00    +0.000 A 
ATOM     16  C   UNL     1       0.702   1.405  -5.718  0.00  0.00    +0.000 A 
ATOM     17  C   UNL     1      -0.354   1.838  -4.938  0.00  0.00    +0.004 A 
ENDBRANCH   1  12
BRANCH   1  18
ATOM     18  C   UNL     1      -0.958   3.250  -1.742  0.00  0.00    +0.118 C 
BRANCH  18  19
ATOM     19  N   UNL     1      -0.778   1.837  -1.400  0.00  0.00    -0.193 NA
ATOM     20  H   UNL     1      -1.104   1.147  -1.999  0.00  0.00    +0.148 HD
BRANCH  19  21
ATOM     21  S   UNL     1      -0.017   1.417   0.010  0.00  0.00    +0.034 S 
ATOM     22  O   UNL     1       0.002  -0.004   0.002  0.00  0.00    -0.158 OA
ATOM     23  O   UNL     1       1.195   2.158   0.002  0.00  0.00    -0.158 OA
BRANCH  21  24
ATOM     24  C   UNL     1      -1.110   2.020   1.327  0.00  0.00    +0.220 C 
BRANCH  24  28
ATOM     25  C   UNL     1       0.592   1.080   5.130  0.00  0.00    +0.000 A 
ATOM     26  C   UNL     1       0.895   2.280   4.515  0.00  0.00    +0.000 A 
ATOM     27  C   UNL     1       0.345   2.584   3.284  0.00  0.00    +0.005 A 
ATOM     28  C   UNL     1      -0.509   1.688   2.668  0.00  0.00    -0.025 A 
ATOM     29  C   UNL     1      -0.817   0.490   3.286  0.00  0.00    +0.005 A 
ATOM     30  C   UNL     1      -0.262   0.184   4.515  0.00  0.00    +0.000 A 
ENDBRANCH  24  28
ENDBRANCH  21  24
ENDBRANCH  19  21
ENDBRANCH  18  19
ENDBRANCH   1  18
TORSDOF 7
