REMARK  Name = ZINC12180455
REMARK  5 active torsions:
REMARK  status: ('A' for Active; 'I' for Inactive)
REMARK    1  A    between atoms: C_4  and  N_7
REMARK    2  A    between atoms: C_8  and  C_10
REMARK    3  A    between atoms: C_10  and  S_11
REMARK    4  A    between atoms: S_11  and  C_12
REMARK    5  A    between atoms: C_18  and  C_20
REMARK                            x       y       z     vdW  Elec       q    Type
REMARK                         _______ _______ _______ _____ _____    ______ ____
ROOT
ATOM      1  C   UNL     1       5.683  -4.271   4.796  0.00  0.00    +0.160 A 
ATOM      2  N   UNL     1       5.799  -3.595   5.930  0.00  0.00    -0.133 NA
ATOM      3  N   UNL     1       6.422  -4.061   6.923  0.00  0.00    -0.125 NA
ATOM      4  C   UNL     1       6.998  -5.252   6.893  0.00  0.00    +0.189 A 
ATOM      5  S   UNL     1       6.579  -5.759   5.228  0.00  0.00    -0.024 S 
ATOM      6  N   UNL     1       7.719  -5.922   7.878  0.00  0.00    -0.263 N 
ATOM      7  C   UNL     1       7.912  -5.346   9.082  0.00  0.00    +0.225 C 
ATOM      8  O   UNL     1       7.457  -4.245   9.307  0.00  0.00    -0.275 OA
ATOM      9  H   UNL     1       8.083  -6.803   7.699  0.00  0.00    +0.157 HD
ENDROOT
BRANCH   7  10
ATOM     10  C   UNL     1       8.692  -6.071  10.148  0.00  0.00    +0.048 C 
ATOM     11  C   UNL     1      10.108  -6.351   9.641  0.00  0.00    +0.019 C 
ATOM     12  C   UNL     1      10.901  -7.088  10.723  0.00  0.00    -0.009 C 
ATOM     13  C   UNL     1      10.971  -6.221  11.982  0.00  0.00    +0.007 C 
ATOM     14  C   UNL     1       9.555  -5.940  12.489  0.00  0.00    -0.009 C 
ATOM     15  C   UNL     1       8.763  -5.204  11.406  0.00  0.00    +0.019 C 
ATOM     16  C   UNL     1       8.860  -7.263  12.819  0.00  0.00    +0.007 C 
ATOM     17  C   UNL     1       8.790  -8.130  11.560  0.00  0.00    -0.009 C 
ATOM     18  C   UNL     1      10.206  -8.410  11.054  0.00  0.00    +0.007 C 
ATOM     19  C   UNL     1       7.997  -7.394  10.478  0.00  0.00    +0.019 C 
ENDBRANCH   7  10
BRANCH   1  20
ATOM     20  S   UNL     1       4.872  -3.832   3.294  0.00  0.00    -0.088 S 
BRANCH  20  21
ATOM     21  C   UNL     1       4.200  -2.180   3.624  0.00  0.00    +0.172 C 
BRANCH  21  23
ATOM     22  N   UNL     1       2.886  -0.467   2.418  0.00  0.00    -0.312 N 
ATOM     23  C   UNL     1       3.471  -1.681   2.404  0.00  0.00    +0.224 C 
ATOM     24  O   UNL     1       3.411  -2.372   1.409  0.00  0.00    -0.275 OA
ATOM     25  H   UNL     1       2.934   0.086   3.213  0.00  0.00    +0.149 HD
BRANCH  22  29
ATOM     26  C   UNL     1      -0.019   1.526   0.010  0.00  0.00    +0.000 C 
ATOM     27  C   UNL     1       1.417   2.055  -0.000  0.00  0.00    +0.002 C 
ATOM     28  C   UNL     1       2.157   1.548   1.239  0.00  0.00    +0.022 C 
ATOM     29  C   UNL     1       2.178   0.019   1.231  0.00  0.00    +0.073 C 
ATOM     30  C   UNL     1       0.742  -0.511   1.242  0.00  0.00    +0.022 C 
ATOM     31  C   UNL     1       0.002  -0.004   0.002  0.00  0.00    +0.002 C 
ENDBRANCH  22  29
ENDBRANCH  21  23
ENDBRANCH  20  21
ENDBRANCH   1  20
TORSDOF 5
