REMARK  Name = ZINC45850194
REMARK  8 active torsions:
REMARK  status: ('A' for Active; 'I' for Inactive)
REMARK    1  A    between atoms: C_1  and  C_2
REMARK    2  A    between atoms: C_5  and  N_9
REMARK    3  A    between atoms: C_6  and  C_8
REMARK    4  A    between atoms: C_13  and  C_15
REMARK    5  A    between atoms: C_15  and  C_17
REMARK    6  A    between atoms: C_15  and  S_18
REMARK    7  A    between atoms: S_18  and  C_19
REMARK    8  A    between atoms: C_19  and  N_21
REMARK                            x       y       z     vdW  Elec       q    Type
REMARK                         _______ _______ _______ _____ _____    ______ ____
ROOT
ATOM      1  N   UNL     1       0.059  -4.170  -0.021  0.00  0.00    -0.269 N 
ATOM      2  C   UNL     1      -0.040  -4.839  -1.187  0.00  0.00    +0.310 C 
ATOM      3  O   UNL     1      -0.054  -4.229  -2.238  0.00  0.00    -0.252 OA
ATOM      4  N   UNL     1      -0.124  -6.184  -1.187  0.00  0.00    -0.239 N 
ATOM      5  C   UNL     1      -0.223  -6.853  -2.353  0.00  0.00    +0.233 C 
ATOM      6  O   UNL     1      -0.237  -6.244  -3.401  0.00  0.00    -0.274 OA
ATOM      7  H   UNL     1       0.135  -4.658   0.814  0.00  0.00    +0.156 HD
ATOM      8  H   UNL     1      -0.113  -6.671  -0.348  0.00  0.00    +0.159 HD
ENDROOT
BRANCH   1  13
ATOM      9  C   UNL     1       0.025   1.503   0.005  0.00  0.00    +0.044 C 
ATOM     10  C   UNL     1       0.034  -0.004  -0.002  0.00  0.00    -0.050 A 
ATOM     11  C   UNL     1       0.632  -0.685  -1.046  0.00  0.00    +0.005 A 
ATOM     12  C   UNL     1       0.641  -2.066  -1.055  0.00  0.00    +0.024 A 
ATOM     13  C   UNL     1       0.051  -2.771  -0.014  0.00  0.00    +0.038 A 
ATOM     14  C   UNL     1      -0.548  -2.083   1.033  0.00  0.00    -0.029 A 
ATOM     15  C   UNL     1      -0.551  -0.702   1.039  0.00  0.00    +0.008 A 
ATOM     16  C   UNL     1      -1.191  -2.843   2.165  0.00  0.00    +0.045 C 
ENDBRANCH   1  13
BRANCH   5  17
ATOM     17  C   UNL     1      -0.317  -8.357  -2.353  0.00  0.00    +0.136 C 
ATOM     18  C   UNL     1      -1.775  -8.777  -2.157  0.00  0.00    +0.029 C 
BRANCH  17  19
ATOM     19  S   UNL     1       0.290  -9.000  -3.937  0.00  0.00    -0.090 S 
BRANCH  19  20
ATOM     20  C   UNL     1       0.257 -10.749  -3.727  0.00  0.00    +0.110 C 
ATOM     21  S   UNL     1      -0.278 -11.424  -2.248  0.00  0.00    -0.028 S 
BRANCH  20  22
ATOM     22  N   UNL     1       0.652 -11.556  -4.732  0.00  0.00    -0.319 N 
ATOM     23  C   UNL     1       1.138 -11.112  -6.047  0.00  0.00    +0.106 C 
ATOM     24  C   UNL     1       1.448 -12.379  -6.872  0.00  0.00    +0.020 C 
ATOM     25  C   UNL     1       0.585 -13.465  -6.178  0.00  0.00    +0.020 C 
ATOM     26  C   UNL     1       0.675 -13.030  -4.692  0.00  0.00    +0.106 C 
ENDBRANCH  20  22
ENDBRANCH  19  20
ENDBRANCH  17  19
ENDBRANCH   5  17
TORSDOF 5
