REMARK  Name = ZINC33270954
REMARK  8 active torsions:
REMARK  status: ('A' for Active; 'I' for Inactive)
REMARK    1  A    between atoms: C_3  and  C_8
REMARK    2  A    between atoms: C_11  and  S_14
REMARK    3  A    between atoms: S_14  and  C_15
REMARK    4  A    between atoms: C_15  and  C_16
REMARK    5  A    between atoms: C_18  and  C_21
REMARK    6  A    between atoms: C_21  and  C_22
REMARK    7  A    between atoms: C_22  and  C_23
REMARK    8  A    between atoms: N_25  and  C_26
REMARK                            x       y       z     vdW  Elec       q    Type
REMARK                         _______ _______ _______ _____ _____    ______ ____
ROOT
ATOM      1  C   UNL     1      -8.236  -1.411   0.083  0.00  0.00    +0.182 A 
ATOM      2  N   UNL     1      -9.029  -1.522   1.164  0.00  0.00    -0.195 NA
ATOM      3  C   UNL     1     -10.245  -1.670   0.696  0.00  0.00    +0.228 A 
ATOM      4  O   UNL     1     -10.153  -1.652  -0.637  0.00  0.00    -0.338 OA
ATOM      5  N   UNL     1      -8.995  -1.502  -0.968  0.00  0.00    -0.060 NA
ENDROOT
BRANCH   1   6
ATOM      6  C   UNL     1      -6.741  -1.220   0.089  0.00  0.00    +0.157 C 
BRANCH   6   7
ATOM      7  S   UNL     1      -6.358   0.548   0.100  0.00  0.00    -0.079 S 
BRANCH   7  11
ATOM      8  C   UNL     1      -2.478   1.011   0.116  0.00  0.00    +0.182 A 
ATOM      9  N   UNL     1      -3.745   1.547   0.120  0.00  0.00    -0.201 NA
ATOM     10  H   UNL     1      -4.161  -1.665   0.090  0.00  0.00    +0.191 HD
ATOM     11  C   UNL     1      -4.597   0.480   0.106  0.00  0.00    +0.185 A 
ATOM     12  N   UNL     1      -3.859  -0.608   0.098  0.00  0.00    -0.253 N 
ATOM     13  N   UNL     1      -2.613  -0.295   0.101  0.00  0.00    -0.152 NA
BRANCH   8  16
ATOM     14  C   UNL     1      -0.026   3.856   0.144  0.00  0.00    +0.003 A 
ATOM     15  C   UNL     1      -1.217   3.159   0.139  0.00  0.00    +0.012 A 
ATOM     16  C   UNL     1      -1.206   1.763   0.128  0.00  0.00    +0.024 A 
ATOM     17  C   UNL     1       0.012   1.080   0.131  0.00  0.00    +0.050 A 
ATOM     18  C   UNL     1       1.197   1.790   0.135  0.00  0.00    +0.124 A 
ATOM     19  C   UNL     1       1.178   3.176   0.141  0.00  0.00    +0.038 A 
ATOM     20  F   UNL     1       2.377   1.132   0.133  0.00  0.00    -0.205 F 
ENDBRANCH   8  16
ENDBRANCH   7  11
ENDBRANCH   6   7
ENDBRANCH   1   6
BRANCH   3  21
ATOM     21  C   UNL     1     -11.505  -1.835   1.506  0.00  0.00    +0.108 C 
BRANCH  21  22
ATOM     22  C   UNL     1     -12.114  -0.460   1.787  0.00  0.00    +0.105 C 
BRANCH  22  23
ATOM     23  C   UNL     1     -13.374  -0.625   2.598  0.00  0.00    +0.218 C 
ATOM     24  O   UNL     1     -13.747  -1.733   2.919  0.00  0.00    -0.275 OA
ATOM     25  N   UNL     1     -14.085   0.459   2.966  0.00  0.00    -0.283 N 
ATOM     26  H   UNL     1     -13.709   1.467   2.738  0.00  0.00    +0.155 HD
BRANCH  25  27
ATOM     27  C   UNL     1     -15.304   0.302   3.638  0.00  0.00    +0.069 A 
ATOM     28  C   UNL     1     -15.475  -0.746   4.533  0.00  0.00    +0.027 A 
ATOM     29  C   UNL     1     -16.677  -0.899   5.194  0.00  0.00    +0.022 A 
ATOM     30  C   UNL     1     -17.713  -0.009   4.967  0.00  0.00    +0.044 A 
ATOM     31  C   UNL     1     -17.547   1.036   4.076  0.00  0.00    +0.060 A 
ATOM     32  C   UNL     1     -16.343   1.198   3.415  0.00  0.00    +0.146 A 
ATOM     33  F   UNL     1     -16.179   2.222   2.549  0.00  0.00    -0.203 F 
ATOM     34 CL   UNL     1     -19.223  -0.206   5.801  0.00  0.00    -0.083 Cl
ENDBRANCH  25  27
ENDBRANCH  22  23
ENDBRANCH  21  22
ENDBRANCH   3  21
TORSDOF 8
