REMARK  Name = ZINC39663650
REMARK  10 active torsions:
REMARK  status: ('A' for Active; 'I' for Inactive)
REMARK    1  A    between atoms: C_1  and  N_2
REMARK    2  A    between atoms: N_2  and  C_3
REMARK    3  A    between atoms: N_2  and  C_4
REMARK    4  A    between atoms: C_4  and  C_6
REMARK    5  A    between atoms: C_4  and  C_30
REMARK    6  A    between atoms: C_6  and  N_7
REMARK    7  A    between atoms: C_8  and  C_10
REMARK    8  A    between atoms: C_21  and  C_23
REMARK    9  A    between atoms: C_33  and  O_36
REMARK   10  A    between atoms: O_36  and  C_37
REMARK                            x       y       z     vdW  Elec       q    Type
REMARK                         _______ _______ _______ _____ _____    ______ ____
ROOT
ATOM      1  C   UNL     1       0.029  -4.144   1.498  0.00  0.00    +0.100 C 
ATOM      2  C   UNL     1      -0.498  -3.591   2.841  0.00  0.00    +0.121 C 
ATOM      3  N   UNL     1      -1.164  -4.747   3.486  0.00  0.00    -0.296 N 
ATOM      4  C   UNL     1      -0.285  -5.900   3.174  0.00  0.00    +0.115 C 
ATOM      5  C   UNL     1       0.170  -5.659   1.721  0.00  0.00    -0.004 C 
ATOM      6  C   UNL     1       1.625  -6.085   1.546  0.00  0.00    -0.010 C 
ATOM      7  C   UNL     1       1.731  -7.603   1.716  0.00  0.00    -0.082 C 
ATOM      8  N   UNL     1       0.881  -8.269   0.721  0.00  0.00    +0.379 N 
ATOM      9  C   UNL     1      -0.527  -7.926   0.955  0.00  0.00    -0.082 C 
ATOM     10  C   UNL     1      -0.729  -6.422   0.753  0.00  0.00    -0.010 C 
ATOM     11  C   UNL     1      -2.310  -4.750   4.196  0.00  0.00    +0.249 C 
ATOM     12  O   UNL     1      -2.680  -5.768   4.748  0.00  0.00    -0.270 OA
ATOM     13  H   UNL     1       1.149  -7.968  -0.204  0.00  0.00    -0.086 HD
ATOM     14  H   UNL     1       0.999  -9.268   0.794  0.00  0.00    -0.086 HD
ENDROOT
BRANCH  11  15
ATOM     15  C   UNL     1      -3.116  -3.517   4.301  0.00  0.00    +0.072 A 
ATOM     16  C   UNL     1      -2.487  -2.273   4.385  0.00  0.00    +0.016 A 
ATOM     17  C   UNL     1      -3.245  -1.126   4.483  0.00  0.00    +0.001 A 
ATOM     18  C   UNL     1      -4.628  -1.203   4.500  0.00  0.00    +0.003 A 
ATOM     19  C   UNL     1      -5.259  -2.430   4.418  0.00  0.00    +0.039 A 
ATOM     20  C   UNL     1      -4.512  -3.589   4.313  0.00  0.00    +0.135 A 
ATOM     21  F   UNL     1      -5.130  -4.788   4.228  0.00  0.00    -0.205 F 
ENDBRANCH  11  15
BRANCH   1  23
ATOM     22  N   UNL     1      -0.548  -3.852  -0.890  0.00  0.00    -0.316 N 
ATOM     23  C   UNL     1      -0.959  -3.866   0.393  0.00  0.00    +0.218 C 
ATOM     24  O   UNL     1      -2.123  -3.656   0.660  0.00  0.00    -0.275 OA
ATOM     25  H   UNL     1       0.383  -4.021  -1.103  0.00  0.00    +0.149 HD
BRANCH  22  26
ATOM     26  C   UNL     1      -1.508  -3.583  -1.964  0.00  0.00    +0.093 C 
BRANCH  26  27
ATOM     27  C   UNL     1      -0.770  -3.512  -3.302  0.00  0.00    -0.021 C 
BRANCH  27  28
ATOM     28  C   UNL     1      -0.214  -4.871  -3.641  0.00  0.00    -0.059 A 
ATOM     29  C   UNL     1       0.959  -5.304  -3.050  0.00  0.00    +0.005 A 
ATOM     30  C   UNL     1       1.471  -6.549  -3.360  0.00  0.00    +0.046 A 
ATOM     31  C   UNL     1       0.808  -7.365  -4.265  0.00  0.00    +0.120 A 
ATOM     32  C   UNL     1      -0.369  -6.928  -4.856  0.00  0.00    +0.046 A 
ATOM     33  C   UNL     1      -0.880  -5.685  -4.539  0.00  0.00    +0.005 A 
BRANCH  31  34
ATOM     34  O   UNL     1       1.310  -8.590  -4.571  0.00  0.00    -0.495 OA
ATOM     35  C   UNL     1       0.574  -9.376  -5.511  0.00  0.00    +0.277 C 
ENDBRANCH  31  34
ENDBRANCH  27  28
BRANCH  27  37
ATOM     36  C   UNL     1       0.987  -2.414  -4.511  0.00  0.00    -0.096 C 
ATOM     37  N   UNL     1       0.330  -2.543  -3.204  0.00  0.00    +0.382 N 
ATOM     38  C   UNL     1      -0.203  -1.237  -2.793  0.00  0.00    -0.096 C 
ATOM     39  H   UNL     1       1.000  -2.863  -2.521  0.00  0.00    -0.082 HD
ENDBRANCH  27  37
ENDBRANCH  26  27
ENDBRANCH  22  26
ENDBRANCH   1  23
TORSDOF 7
