REMARK  Name = ZINC01294281
REMARK  9 active torsions:
REMARK  status: ('A' for Active; 'I' for Inactive)
REMARK    1  A    between atoms: C_1  and  C_2
REMARK    2  A    between atoms: C_2  and  O_3
REMARK    3  A    between atoms: O_3  and  C_4
REMARK    4  A    between atoms: C_6  and  C_19
REMARK    5  A    between atoms: C_9  and  O_10
REMARK    6  A    between atoms: O_10  and  C_11
REMARK    7  A    between atoms: C_11  and  C_12
REMARK    8  A    between atoms: C_21  and  C_32
REMARK    9  A    between atoms: C_22  and  N_31
REMARK                            x       y       z     vdW  Elec       q    Type
REMARK                         _______ _______ _______ _____ _____    ______ ____
ROOT
ATOM      1  C   UNL     1      -1.937  -3.107  -2.906  0.00  0.00    +0.162 A 
ATOM      2  C   UNL     1      -1.670  -2.647  -1.627  0.00  0.00    +0.054 A 
ATOM      3  C   UNL     1      -1.573  -1.289  -1.387  0.00  0.00    -0.031 A 
ATOM      4  C   UNL     1      -1.731  -0.388  -2.423  0.00  0.00    +0.008 A 
ATOM      5  C   UNL     1      -1.992  -0.841  -3.703  0.00  0.00    +0.050 A 
ATOM      6  C   UNL     1      -2.096  -2.200  -3.949  0.00  0.00    +0.162 A 
ENDROOT
BRANCH   3   7
ATOM      7  C   UNL     1      -1.287  -0.790   0.006  0.00  0.00    +0.101 C 
ATOM      8  C   UNL     1      -2.422   0.082   0.466  0.00  0.00    +0.098 C 
ATOM      9  C   UNL     1      -2.299   1.432   0.449  0.00  0.00    +0.198 C 
ATOM     10  O   UNL     1      -1.175   2.027   0.018  0.00  0.00    -0.445 OA
ATOM     11  C   UNL     1      -0.016   1.341   0.009  0.00  0.00    +0.115 C 
ATOM     12  C   UNL     1       0.002  -0.004   0.002  0.00  0.00    +0.046 C 
ATOM     13  C   UNL     1       1.215  -0.720  -0.008  0.00  0.00    +0.163 C 
ATOM     14  O   UNL     1       1.190  -1.934  -0.037  0.00  0.00    -0.292 OA
ATOM     15  C   UNL     1       2.540  -0.008   0.018  0.00  0.00    +0.080 C 
ATOM     16  C   UNL     1       2.364   1.340   0.727  0.00  0.00    +0.016 C 
ATOM     17  C   UNL     1       1.273   2.130   0.001  0.00  0.00    +0.075 C 
BRANCH   9  18
ATOM     18  N   UNL     1      -3.347   2.207   0.880  0.00  0.00    -0.328 N 
ATOM     19  H   UNL     1      -4.164   1.788   1.191  0.00  0.00    +0.145 HD
ATOM     20  H   UNL     1      -3.270   3.174   0.873  0.00  0.00    +0.145 HD
ENDBRANCH   9  18
BRANCH   8  21
ATOM     21  C   UNL     1      -3.639  -0.516   0.924  0.00  0.00    +0.101 C 
ATOM     22  N   UNL     1      -4.605  -0.991   1.287  0.00  0.00    -0.191 NA
ENDBRANCH   8  21
ENDBRANCH   3   7
BRANCH   1  23
ATOM     23  O   UNL     1      -2.038  -4.443  -3.142  0.00  0.00    -0.489 OA
BRANCH  23  25
ATOM     24  C   UNL     1      -2.011  -6.767  -2.482  0.00  0.00    +0.048 C 
ATOM     25  C   UNL     1      -1.863  -5.315  -2.024  0.00  0.00    +0.226 C 
ENDBRANCH  23  25
ENDBRANCH   1  23
BRANCH   6  26
ATOM     26  O   UNL     1      -2.354  -2.647  -5.207  0.00  0.00    -0.484 OA
BRANCH  26  27
ATOM     27  C   UNL     1      -2.506  -1.659  -6.229  0.00  0.00    +0.266 C 
BRANCH  27  28
ATOM     28  C   UNL     1      -2.784  -2.337  -7.546  0.00  0.00    +0.008 A 
ATOM     29  C   UNL     1      -2.849  -3.716  -7.614  0.00  0.00    +0.008 A 
ATOM     30  C   UNL     1      -3.108  -4.337  -8.821  0.00  0.00    +0.000 A 
ATOM     31  C   UNL     1      -3.294  -3.580  -9.963  0.00  0.00    +0.001 A 
ATOM     32  C   UNL     1      -3.224  -2.202  -9.897  0.00  0.00    +0.020 A 
ATOM     33  C   UNL     1      -2.969  -1.579  -8.688  0.00  0.00    +0.047 A 
ATOM     34 CL   UNL     1      -2.880   0.153  -8.605  0.00  0.00    -0.083 Cl
ENDBRANCH  27  28
ENDBRANCH  26  27
ENDBRANCH   6  26
TORSDOF 8
