REMARK  Name = ZINC11053314
REMARK  10 active torsions:
REMARK  status: ('A' for Active; 'I' for Inactive)
REMARK    1  A    between atoms: C_1  and  C_2
REMARK    2  A    between atoms: C_8  and  N_10
REMARK    3  A    between atoms: C_14  and  C_16
REMARK    4  A    between atoms: C_16  and  O_17
REMARK    5  A    between atoms: O_17  and  C_18
REMARK    6  A    between atoms: C_18  and  C_20
REMARK    7  A    between atoms: C_20  and  C_21
REMARK    8  A    between atoms: C_21  and  N_22
REMARK    9  A    between atoms: N_22  and  S_23
REMARK   10  A    between atoms: S_23  and  C_26
REMARK                            x       y       z     vdW  Elec       q    Type
REMARK                         _______ _______ _______ _____ _____    ______ ____
ROOT
ATOM      1  C   UNL     1      -0.018   1.503   0.010  0.00  0.00    +0.309 C 
ATOM      2  O   UNL     1       1.020   2.121   0.004  0.00  0.00    -0.251 OA
ENDROOT
BRANCH   1   3
ATOM      3  O   UNL     1      -1.190   2.158   0.019  0.00  0.00    -0.455 OA
BRANCH   3   4
ATOM      4  C   UNL     1      -1.133   3.609   0.027  0.00  0.00    +0.328 C 
BRANCH   4   9
ATOM      5  N   UNL     1      -4.175   7.331   0.062  0.00  0.00    -0.296 N 
ATOM      6  C   UNL     1      -3.981   5.998   0.053  0.00  0.00    +0.306 C 
ATOM      7  O   UNL     1      -4.934   5.244   0.054  0.00  0.00    -0.252 OA
ATOM      8  N   UNL     1      -2.728   5.500   0.045  0.00  0.00    -0.237 N 
ATOM      9  C   UNL     1      -2.534   4.166   0.037  0.00  0.00    +0.258 C 
ATOM     10  O   UNL     1      -3.485   3.414   0.037  0.00  0.00    -0.272 OA
ATOM     11  H   UNL     1      -3.414   7.933   0.061  0.00  0.00    +0.151 HD
ATOM     12  H   UNL     1      -1.967   6.101   0.044  0.00  0.00    +0.159 HD
BRANCH   5  19
ATOM     13  C   UNL     1      -4.997   9.193   2.122  0.00  0.00    +0.009 C 
ATOM     14  C   UNL     1      -5.524   9.273   0.688  0.00  0.00    +0.006 C 
ATOM     15  C   UNL     1      -4.618  10.187  -0.138  0.00  0.00    +0.005 C 
ATOM     16  C   UNL     1      -5.145  10.266  -1.573  0.00  0.00    +0.000 C 
ATOM     17  C   UNL     1      -5.157   8.866  -2.190  0.00  0.00    +0.002 C 
ATOM     18  C   UNL     1      -6.064   7.952  -1.363  0.00  0.00    +0.022 C 
ATOM     19  C   UNL     1      -5.537   7.873   0.071  0.00  0.00    +0.077 C 
ENDBRANCH   5  19
ENDBRANCH   4   9
ENDBRANCH   3   4
ENDBRANCH   1   3
BRANCH   1  20
ATOM     20  C   UNL     1       0.002  -0.004   0.002  0.00  0.00    +0.137 C 
BRANCH  20  21
ATOM     21  C   UNL     1       1.451  -0.494  -0.015  0.00  0.00    +0.117 C 
BRANCH  21  22
ATOM     22  N   UNL     1       1.471  -1.959  -0.022  0.00  0.00    -0.189 NA
ATOM     23  H   UNL     1       0.668  -2.456   0.200  0.00  0.00    +0.148 HD
BRANCH  22  24
ATOM     24  S   UNL     1       2.864  -2.766  -0.411  0.00  0.00    +0.058 S 
ATOM     25  O   UNL     1       2.573  -4.153  -0.305  0.00  0.00    -0.153 OA
ATOM     26  O   UNL     1       3.352  -2.180  -1.611  0.00  0.00    -0.153 OA
BRANCH  24  27
ATOM     27  C   UNL     1       4.045  -2.402   0.844  0.00  0.00    +0.106 A 
ATOM     28  C   UNL     1       4.888  -1.302   0.695  0.00  0.00    +0.029 A 
ATOM     29  C   UNL     1       5.808  -0.989   1.648  0.00  0.00    +0.010 A 
ATOM     30  C   UNL     1       5.920  -1.792   2.796  0.00  0.00    -0.018 A 
ATOM     31  C   UNL     1       6.861  -1.505   3.799  0.00  0.00    +0.008 A 
ATOM     32  C   UNL     1       6.941  -2.304   4.897  0.00  0.00    +0.001 A 
ATOM     33  C   UNL     1       6.101  -3.407   5.044  0.00  0.00    +0.001 A 
ATOM     34  C   UNL     1       5.177  -3.716   4.094  0.00  0.00    +0.008 A 
ATOM     35  C   UNL     1       5.066  -2.913   2.946  0.00  0.00    -0.016 A 
ATOM     36  C   UNL     1       4.124  -3.201   1.943  0.00  0.00    +0.037 A 
ENDBRANCH  24  27
ENDBRANCH  22  24
ENDBRANCH  21  22
ENDBRANCH  20  21
ENDBRANCH   1  20
TORSDOF 9
