REMARK  Name = ZINC33644058
REMARK  9 active torsions:
REMARK  status: ('A' for Active; 'I' for Inactive)
REMARK    1  A    between atoms: C_1  and  C_2
REMARK    2  A    between atoms: C_2  and  C_4
REMARK    3  A    between atoms: C_2  and  N_12
REMARK    4  A    between atoms: C_4  and  C_5
REMARK    5  A    between atoms: C_5  and  C_6
REMARK    6  A    between atoms: C_13  and  C_15
REMARK    7  A    between atoms: C_15  and  C_16
REMARK    8  A    between atoms: C_16  and  C_18
REMARK    9  A    between atoms: C_16  and  C_23
REMARK                            x       y       z     vdW  Elec       q    Type
REMARK                         _______ _______ _______ _____ _____    ______ ____
ROOT
ATOM      1  C   UNL     1       1.902   4.296   0.006  0.00  0.00    +0.060 C 
ENDROOT
BRANCH   1   2
ATOM      2  C   UNL     1       1.799   5.167  -1.220  0.00  0.00    -0.015 A 
ATOM      3  C   UNL     1       0.769   5.963  -1.549  0.00  0.00    +0.087 A 
ATOM      4  N   UNL     1       1.033   6.603  -2.729  0.00  0.00    -0.360 N 
ATOM      5  H   UNL     1       0.299   7.305  -3.151  0.00  0.00    +0.165 HD
ATOM      6  C   UNL     1       2.267   6.218  -3.205  0.00  0.00    +0.047 A 
ATOM      7  C   UNL     1       2.800   5.302  -2.280  0.00  0.00    +0.003 A 
ATOM      8  C   UNL     1       4.057   4.737  -2.505  0.00  0.00    +0.010 A 
ATOM      9  C   UNL     1       4.763   5.077  -3.624  0.00  0.00    +0.001 A 
ATOM     10  C   UNL     1       4.241   5.981  -4.540  0.00  0.00    +0.002 A 
ATOM     11  C   UNL     1       3.003   6.550  -4.337  0.00  0.00    +0.026 A 
ENDBRANCH   1   2
BRANCH   1  12
ATOM     12  C   UNL     1       0.770   3.301   0.012  0.00  0.00    -0.032 A 
ATOM     13  C   UNL     1       1.029   1.944   0.003  0.00  0.00    +0.012 A 
ATOM     14  C   UNL     1      -0.013   1.076   0.008  0.00  0.00    +0.045 A 
ATOM     15  S   UNL     1      -1.415   2.181   0.019  0.00  0.00    -0.105 S 
ATOM     16  C   UNL     1      -0.518   3.725   0.025  0.00  0.00    +0.049 A 
ENDBRANCH   1  12
BRANCH   1  17
ATOM     17  C   UNL     1       1.821   5.168   1.260  0.00  0.00    +0.108 C 
BRANCH  17  19
ATOM     18  N   UNL     1       2.020   4.873   3.708  0.00  0.00    -0.313 N 
ATOM     19  C   UNL     1       2.047   4.315   2.481  0.00  0.00    +0.214 C 
ATOM     20  O   UNL     1       2.252   3.126   2.360  0.00  0.00    -0.276 OA
ATOM     21  H   UNL     1       1.834   5.951   3.817  0.00  0.00    +0.149 HD
BRANCH  18  23
ATOM     22  C   UNL     1       0.918   3.400   5.319  0.00  0.00    +0.028 C 
ATOM     23  C   UNL     1       2.240   4.043   4.895  0.00  0.00    +0.070 C 
BRANCH  23  24
ATOM     24  C   UNL     1       2.773   4.913   6.034  0.00  0.00    +0.026 C 
BRANCH  24  25
ATOM     25  C   UNL     1       4.153   5.456   5.659  0.00  0.00    +0.037 C 
BRANCH  25  26
ATOM     26  C   UNL     1       4.678   6.314   6.782  0.00  0.00    -0.047 A 
ATOM     27  C   UNL     1       4.411   7.670   6.798  0.00  0.00    +0.003 A 
ATOM     28  C   UNL     1       4.888   8.456   7.831  0.00  0.00    +0.000 A 
ATOM     29  C   UNL     1       5.641   7.887   8.841  0.00  0.00    +0.000 A 
ATOM     30  C   UNL     1       5.913   6.532   8.821  0.00  0.00    +0.000 A 
ATOM     31  C   UNL     1       5.431   5.745   7.792  0.00  0.00    +0.003 A 
ENDBRANCH  25  26
ENDBRANCH  24  25
ENDBRANCH  23  24
ENDBRANCH  18  23
ENDBRANCH  17  19
ENDBRANCH   1  17
TORSDOF 8
