REMARK  Name = ZINC45442765
REMARK  9 active torsions:
REMARK  status: ('A' for Active; 'I' for Inactive)
REMARK    1  A    between atoms: C_1  and  C_2
REMARK    2  A    between atoms: C_11  and  N_33
REMARK    3  A    between atoms: C_13  and  S_15
REMARK    4  A    between atoms: S_15  and  C_16
REMARK    5  A    between atoms: C_16  and  C_17
REMARK    6  A    between atoms: C_24  and  O_31
REMARK    7  A    between atoms: C_25  and  O_29
REMARK    8  A    between atoms: O_29  and  C_30
REMARK    9  A    between atoms: O_31  and  C_32
REMARK                            x       y       z     vdW  Elec       q    Type
REMARK                         _______ _______ _______ _____ _____    ______ ____
ROOT
ATOM      1  S   UNL     1       3.146  -8.060   0.631  0.00  0.00    -0.077 S 
ENDROOT
BRANCH   1  13
ATOM      2  C   UNL     1      -1.968   0.756   0.315  0.00  0.00    +0.008 C 
ATOM      3  C   UNL     1      -1.497  -0.696   0.209  0.00  0.00    -0.009 C 
ATOM      4  C   UNL     1      -0.576  -0.850  -1.005  0.00  0.00    +0.008 C 
ATOM      5  C   UNL     1      -0.302  -2.332  -1.262  0.00  0.00    +0.037 C 
ATOM      6  C   UNL     1       0.203  -2.973   0.028  0.00  0.00    -0.025 A 
ATOM      7  C   UNL     1      -0.006  -2.373   1.221  0.00  0.00    -0.004 A 
ATOM      8  S   UNL     1       0.733  -3.450   2.423  0.00  0.00    -0.073 S 
ATOM      9  C   UNL     1       1.322  -4.702   1.329  0.00  0.00    +0.115 A 
ATOM     10  C   UNL     1       0.920  -4.238   0.051  0.00  0.00    +0.051 A 
ATOM     11  C   UNL     1       1.260  -5.053  -1.068  0.00  0.00    +0.129 A 
ATOM     12  N   UNL     1       1.924  -6.173  -0.793  0.00  0.00    -0.207 NA
ATOM     13  C   UNL     1       2.268  -6.546   0.430  0.00  0.00    +0.191 A 
ATOM     14  N   UNL     1       1.980  -5.828   1.519  0.00  0.00    -0.214 NA
ATOM     15  C   UNL     1      -0.716  -1.077   1.474  0.00  0.00    +0.046 C 
BRANCH  11  16
ATOM     16  N   UNL     1       0.919  -4.701  -2.361  0.00  0.00    -0.343 N 
ATOM     17  H   UNL     1       1.360  -5.128  -3.112  0.00  0.00    +0.144 HD
ATOM     18  H   UNL     1       0.239  -4.027  -2.518  0.00  0.00    +0.144 HD
ENDBRANCH  11  16
ENDBRANCH   1  13
BRANCH   1  19
ATOM     19  C   UNL     1       3.321  -8.694  -1.060  0.00  0.00    +0.173 C 
BRANCH  19  20
ATOM     20  C   UNL     1       4.065 -10.004  -1.031  0.00  0.00    +0.226 C 
ATOM     21  O   UNL     1       4.441 -10.465   0.026  0.00  0.00    -0.275 OA
ATOM     22  N   UNL     1       4.313 -10.664  -2.180  0.00  0.00    -0.296 N 
ATOM     23  C   UNL     1       5.032 -11.948  -2.186  0.00  0.00    +0.113 C 
ATOM     24  C   UNL     1       4.071 -13.022  -2.695  0.00  0.00    +0.054 C 
ATOM     25  C   UNL     1       3.368 -12.562  -3.946  0.00  0.00    -0.038 A 
ATOM     26  C   UNL     1       2.806 -13.537  -4.762  0.00  0.00    +0.053 A 
ATOM     27  C   UNL     1       2.138 -13.186  -5.920  0.00  0.00    +0.162 A 
ATOM     28  C   UNL     1       2.026 -11.844  -6.271  0.00  0.00    +0.162 A 
ATOM     29  C   UNL     1       2.589 -10.877  -5.459  0.00  0.00    +0.054 A 
ATOM     30  C   UNL     1       3.264 -11.235  -4.299  0.00  0.00    -0.023 A 
ATOM     31  C   UNL     1       3.872 -10.133  -3.474  0.00  0.00    +0.143 C 
BRANCH  28  32
ATOM     32  O   UNL     1       1.367 -11.486  -7.406  0.00  0.00    -0.491 OA
ATOM     33  C   UNL     1       1.294 -10.089  -7.700  0.00  0.00    +0.277 C 
ENDBRANCH  28  32
BRANCH  27  34
ATOM     34  O   UNL     1       1.594 -14.148  -6.713  0.00  0.00    -0.491 OA
ATOM     35  C   UNL     1       1.750 -15.504  -6.289  0.00  0.00    +0.277 C 
ENDBRANCH  27  34
ENDBRANCH  19  20
ENDBRANCH   1  19
TORSDOF 6
