REMARK  Name = ZINC02885679
REMARK  6 active torsions:
REMARK  status: ('A' for Active; 'I' for Inactive)
REMARK    1  A    between atoms: C_1  and  C_2
REMARK    2  A    between atoms: C_5  and  N_25
REMARK    3  A    between atoms: C_14  and  C_16
REMARK    4  A    between atoms: C_16  and  O_17
REMARK    5  A    between atoms: O_17  and  C_18
REMARK    6  A    between atoms: N_25  and  C_26
REMARK                            x       y       z     vdW  Elec       q    Type
REMARK                         _______ _______ _______ _____ _____    ______ ____
ROOT
ATOM      1  C   UNL     1      -5.595   8.333   1.335  0.00  0.00    +0.028 C 
ATOM      2  C   UNL     1      -5.310   7.686  -0.021  0.00  0.00    +0.081 C 
ATOM      3  C   UNL     1      -5.389   8.745  -1.123  0.00  0.00    +0.049 C 
ATOM      4  C   UNL     1      -4.409   9.873  -0.799  0.00  0.00    +0.104 C 
ATOM      5  C   UNL     1      -3.040   9.315  -0.513  0.00  0.00    -0.006 A 
ATOM      6  C   UNL     1      -1.940  10.151  -0.622  0.00  0.00    +0.007 A 
ATOM      7  C   UNL     1      -0.672   9.671  -0.358  0.00  0.00    +0.000 A 
ATOM      8  C   UNL     1      -0.492   8.352   0.015  0.00  0.00    +0.002 A 
ATOM      9  C   UNL     1      -1.582   7.512   0.124  0.00  0.00    +0.024 A 
ATOM     10  C   UNL     1      -2.859   7.993  -0.142  0.00  0.00    +0.042 A 
ATOM     11  N   UNL     1      -3.953   7.123  -0.029  0.00  0.00    -0.265 N 
ATOM     12  C   UNL     1      -3.763   5.792   0.065  0.00  0.00    +0.258 C 
ATOM     13  O   UNL     1      -2.637   5.342   0.119  0.00  0.00    -0.272 OA
ENDROOT
BRANCH   4  14
ATOM     14  N   UNL     1      -4.330  10.787  -1.941  0.00  0.00    -0.337 N 
ATOM     15  H   UNL     1      -4.527  10.465  -2.835  0.00  0.00    +0.147 HD
BRANCH  14  16
ATOM     16  C   UNL     1      -3.972  12.123  -1.743  0.00  0.00    +0.028 A 
ATOM     17  C   UNL     1      -3.696  12.587  -0.463  0.00  0.00    +0.023 A 
ATOM     18  C   UNL     1      -3.338  13.906  -0.271  0.00  0.00    +0.002 A 
ATOM     19  C   UNL     1      -3.264  14.768  -1.350  0.00  0.00    +0.000 A 
ATOM     20  C   UNL     1      -3.543  14.311  -2.625  0.00  0.00    +0.002 A 
ATOM     21  C   UNL     1      -3.897  12.991  -2.824  0.00  0.00    +0.023 A 
ENDBRANCH  14  16
ENDBRANCH   4  14
BRANCH  12  22
ATOM     22  C   UNL     1      -4.948   4.862   0.103  0.00  0.00    +0.325 C 
BRANCH  22  23
ATOM     23  O   UNL     1      -4.492   3.508   0.087  0.00  0.00    -0.481 OA
BRANCH  23  24
ATOM     24  C   UNL     1      -5.442   2.536   0.117  0.00  0.00    +0.139 A 
ATOM     25  C   UNL     1      -6.785   2.879   0.161  0.00  0.00    +0.047 A 
ATOM     26  C   UNL     1      -7.749   1.890   0.191  0.00  0.00    +0.004 A 
ATOM     27  C   UNL     1      -7.376   0.559   0.179  0.00  0.00    +0.002 A 
ATOM     28  C   UNL     1      -6.038   0.213   0.136  0.00  0.00    +0.023 A 
ATOM     29  C   UNL     1      -5.069   1.199   0.110  0.00  0.00    +0.083 A 
ATOM     30 CL   UNL     1      -3.389   0.765   0.063  0.00  0.00    -0.080 Cl
ENDBRANCH  23  24
ENDBRANCH  22  23
ENDBRANCH  12  22
TORSDOF 5
