REMARK  Name = ZINC00143633
REMARK  8 active torsions:
REMARK  status: ('A' for Active; 'I' for Inactive)
REMARK    1  A    between atoms: C_1  and  C_2
REMARK    2  A    between atoms: C_4  and  C_28
REMARK    3  A    between atoms: C_5  and  C_9
REMARK    4  A    between atoms: C_6  and  C_8
REMARK    5  A    between atoms: C_18  and  C_26
REMARK    6  A    between atoms: C_19  and  N_25
REMARK    7  A    between atoms: C_20  and  C_21
REMARK    8  A    between atoms: C_20  and  C_23
REMARK                            x       y       z     vdW  Elec       q    Type
REMARK                         _______ _______ _______ _____ _____    ______ ____
ROOT
ATOM      1  C   UNL     1       1.103   3.107   3.420  0.00  0.00    +0.067 C 
ATOM      2  C   UNL     1       1.900   2.001   4.114  0.00  0.00    +0.030 C 
ATOM      3  C   UNL     1       2.051   0.780   3.237  0.00  0.00    +0.009 C 
ATOM      4  C   UNL     1       3.381   0.718   2.534  0.00  0.00    +0.005 C 
ATOM      5  C   UNL     1       4.489   0.722   3.596  0.00  0.00    +0.027 C 
ATOM      6  C   UNL     1       4.375   2.006   4.375  0.00  0.00    -0.022 C 
ATOM      7  C   UNL     1       3.204   2.579   4.576  0.00  0.00    -0.029 C 
ATOM      8  C   UNL     1       3.152   3.901   5.255  0.00  0.00    +0.074 C 
ATOM      9  C   UNL     1       2.022   4.648   5.168  0.00  0.00    +0.054 C 
ATOM     10  C   UNL     1       0.791   4.206   4.436  0.00  0.00    +0.188 C 
ENDROOT
BRANCH   1  15
ATOM     11  C   UNL     1      -3.834   0.930   1.351  0.00  0.00    +0.044 C 
ATOM     12  C   UNL     1      -2.546   1.498   1.891  0.00  0.00    -0.050 A 
ATOM     13  C   UNL     1      -1.985   0.969   3.037  0.00  0.00    +0.007 A 
ATOM     14  C   UNL     1      -0.803   1.489   3.532  0.00  0.00    -0.046 A 
ATOM     15  C   UNL     1      -0.184   2.539   2.880  0.00  0.00    -0.035 A 
ATOM     16  C   UNL     1      -0.746   3.067   1.733  0.00  0.00    -0.046 A 
ATOM     17  C   UNL     1      -1.929   2.550   1.241  0.00  0.00    +0.007 A 
ATOM     18  C   UNL     1      -0.070   4.212   1.022  0.00  0.00    +0.044 C 
ATOM     19  C   UNL     1      -0.191   0.913   4.783  0.00  0.00    +0.044 C 
ENDBRANCH   1  15
BRANCH   9  20
ATOM     20  N   UNL     1       2.007   5.869   5.781  0.00  0.00    -0.358 N 
ATOM     21  H   UNL     1       1.107   6.499   5.729  0.00  0.00    +0.142 HD
ATOM     22  H   UNL     1       2.895   6.222   6.326  0.00  0.00    +0.142 HD
ENDBRANCH   9  20
BRANCH  10  23
ATOM     23  C   UNL     1       0.211   5.361   3.732  0.00  0.00    +0.091 C 
ATOM     24  N   UNL     1      -0.237   6.252   3.189  0.00  0.00    -0.194 NA
ENDBRANCH  10  23
BRANCH  10  25
ATOM     25  C   UNL     1      -0.189   3.696   5.409  0.00  0.00    +0.091 C 
ATOM     26  N   UNL     1      -0.946   3.303   6.160  0.00  0.00    -0.194 NA
ENDBRANCH  10  25
BRANCH   8  27
ATOM     27  C   UNL     1       4.282   4.380   5.993  0.00  0.00    +0.101 C 
ATOM     28  N   UNL     1       5.178   4.761   6.578  0.00  0.00    -0.191 NA
ENDBRANCH   8  27
TORSDOF 5
