REMARK  Name = ZINC59935523
REMARK  6 active torsions:
REMARK  status: ('A' for Active; 'I' for Inactive)
REMARK    1  A    between atoms: C_9  and  C_11
REMARK    2  A    between atoms: C_12  and  C_13
REMARK    3  A    between atoms: N_15  and  C_16
REMARK    4  A    between atoms: C_20  and  C_22
REMARK    5  A    between atoms: C_22  and  N_23
REMARK    6  A    between atoms: C_27  and  C_29
REMARK                            x       y       z     vdW  Elec       q    Type
REMARK                         _______ _______ _______ _____ _____    ______ ____
ROOT
ATOM      1  C   UNL     1      -1.101  -6.403  -0.113  0.00  0.00    +0.034 A 
ATOM      2  C   UNL     1       0.082  -7.131  -0.117  0.00  0.00    +0.023 A 
ATOM      3  C   UNL     1       0.044  -8.508  -0.214  0.00  0.00    +0.002 A 
ATOM      4  C   UNL     1      -1.171  -9.163  -0.307  0.00  0.00    +0.002 A 
ATOM      5  C   UNL     1      -2.351  -8.441  -0.303  0.00  0.00    -0.062 A 
ATOM      6  C   UNL     1      -2.320  -7.064  -0.201  0.00  0.00    +0.025 A 
ENDROOT
BRANCH   1   9
ATOM      7  C   UNL     1      -0.071  -4.317  -0.606  0.00  0.00    +0.241 C 
ATOM      8  O   UNL     1       0.841  -4.910  -1.153  0.00  0.00    -0.270 OA
ATOM      9  N   UNL     1      -1.066  -5.009  -0.016  0.00  0.00    -0.282 N 
ATOM     10  H   UNL     1      -1.757  -4.540   0.477  0.00  0.00    +0.155 HD
BRANCH   7  12
ATOM     11  C   UNL     1       0.909  -2.162  -1.183  0.00  0.00    +0.015 C 
ATOM     12  C   UNL     1      -0.088  -2.855  -0.591  0.00  0.00    +0.068 C 
BRANCH  11  21
ATOM     13  C   UNL     1      -0.160   1.384  -0.533  0.00  0.00    +0.001 A 
ATOM     14  C   UNL     1       0.827   2.117  -1.119  0.00  0.00    +0.010 A 
ATOM     15  C   UNL     1       1.902   1.486  -1.763  0.00  0.00    +0.001 A 
ATOM     16  C   UNL     1       2.931   2.228  -2.374  0.00  0.00    +0.011 A 
ATOM     17  C   UNL     1       3.946   1.544  -2.981  0.00  0.00    +0.020 A 
ATOM     18  C   UNL     1       3.942   0.152  -2.984  0.00  0.00    +0.111 A 
ATOM     19  N   UNL     1       2.981  -0.536  -2.413  0.00  0.00    -0.254 NA
ATOM     20  C   UNL     1       1.964   0.072  -1.804  0.00  0.00    +0.078 A 
ATOM     21  C   UNL     1       0.891  -0.695  -1.168  0.00  0.00    +0.001 A 
ATOM     22  C   UNL     1      -0.145  -0.003  -0.547  0.00  0.00    +0.010 A 
ENDBRANCH  11  21
ENDBRANCH   7  12
ENDBRANCH   1   9
BRANCH   5  23
ATOM     23  C   UNL     1      -3.672  -9.159  -0.405  0.00  0.00    -0.042 C 
BRANCH  23  24
ATOM     24  N   UNL     1      -4.156  -9.488   0.943  0.00  0.00    +0.390 N 
ATOM     25  C   UNL     1      -4.533  -8.248   1.668  0.00  0.00    -0.077 C 
ATOM     26  C   UNL     1      -5.504  -8.759   2.762  0.00  0.00    -0.020 C 
ATOM     27  C   UNL     1      -6.291  -9.872   2.033  0.00  0.00    -0.008 C 
ATOM     28  C   UNL     1      -5.391 -10.297   0.858  0.00  0.00    +0.019 C 
ATOM     29  H   UNL     1      -3.446  -9.989   1.455  0.00  0.00    -0.080 HD
BRANCH  28  30
ATOM     30  C   UNL     1      -5.054 -11.761   0.972  0.00  0.00    +0.197 C 
ATOM     31  O   UNL     1      -3.901 -12.109   1.111  0.00  0.00    -0.278 OA
ATOM     32  N   UNL     1      -6.035 -12.684   0.920  0.00  0.00    -0.331 N 
ATOM     33  H   UNL     1      -6.957 -12.406   0.809  0.00  0.00    +0.145 HD
ATOM     34  H   UNL     1      -5.818 -13.627   0.993  0.00  0.00    +0.145 HD
ENDBRANCH  28  30
ENDBRANCH  23  24
ENDBRANCH   5  23
TORSDOF 6
