REMARK  Name = ZINC36743338
REMARK  8 active torsions:
REMARK  status: ('A' for Active; 'I' for Inactive)
REMARK    1  A    between atoms: C_1  and  O_2
REMARK    2  A    between atoms: O_2  and  C_3
REMARK    3  A    between atoms: C_5  and  N_21
REMARK    4  A    between atoms: C_6  and  N_11
REMARK    5  A    between atoms: C_8  and  O_9
REMARK    6  A    between atoms: O_9  and  C_10
REMARK    7  A    between atoms: N_11  and  S_12
REMARK    8  A    between atoms: S_12  and  C_15
REMARK                            x       y       z     vdW  Elec       q    Type
REMARK                         _______ _______ _______ _____ _____    ______ ____
ROOT
ATOM      1  C   UNL     1       0.252  -0.339  -1.470  0.00  0.00    +0.163 A 
ATOM      2  C   UNL     1       0.911   0.339  -2.484  0.00  0.00    +0.074 A 
ATOM      3  C   UNL     1       1.645  -0.365  -3.426  0.00  0.00    +0.051 A 
ATOM      4  C   UNL     1       1.719  -1.755  -3.354  0.00  0.00    +0.072 A 
ATOM      5  C   UNL     1       1.059  -2.431  -2.339  0.00  0.00    +0.075 A 
ATOM      6  C   UNL     1       0.331  -1.725  -1.395  0.00  0.00    +0.163 A 
ENDROOT
BRANCH   3   7
ATOM      7  N   UNL     1       2.311   0.321  -4.452  0.00  0.00    -0.356 N 
ATOM      8  H   UNL     1       2.259   1.289  -4.502  0.00  0.00    +0.142 HD
ATOM      9  H   UNL     1       2.825  -0.172  -5.111  0.00  0.00    +0.142 HD
ENDBRANCH   3   7
BRANCH   1  11
ATOM     10  C   UNL     1      -0.507   1.774  -0.684  0.00  0.00    +0.277 C 
ATOM     11  O   UNL     1      -0.469   0.352  -0.546  0.00  0.00    -0.491 OA
ENDBRANCH   1  11
BRANCH   6  12
ATOM     12  O   UNL     1      -0.312  -2.389  -0.396  0.00  0.00    -0.491 OA
ATOM     13  C   UNL     1      -0.188  -3.813  -0.379  0.00  0.00    +0.277 C 
ENDBRANCH   6  12
BRANCH   4  14
ATOM     14  N   UNL     1       2.461  -2.468  -4.306  0.00  0.00    -0.214 N 
ATOM     15  H   UNL     1       3.281  -2.093  -4.663  0.00  0.00    +0.174 HD
BRANCH  14  16
ATOM     16  S   UNL     1       1.937  -3.952  -4.822  0.00  0.00    +0.079 S 
ATOM     17  O   UNL     1       2.812  -4.351  -5.868  0.00  0.00    -0.149 OA
ATOM     18  O   UNL     1       1.734  -4.739  -3.656  0.00  0.00    -0.149 OA
BRANCH  16  19
ATOM     19  C   UNL     1       0.350  -3.719  -5.554  0.00  0.00    +0.147 A 
ATOM     20  C   UNL     1       0.038  -3.448  -6.844  0.00  0.00    +0.038 A 
ATOM     21  C   UNL     1      -1.292  -3.304  -7.196  0.00  0.00    +0.025 A 
ATOM     22  C   UNL     1      -2.243  -3.439  -6.238  0.00  0.00    +0.057 A 
ATOM     23  S   UNL     1      -1.261  -3.787  -4.789  0.00  0.00    -0.061 S 
ATOM     24 BR   UNL     1      -4.122  -3.301  -6.399  0.00  0.00    -0.043 Br
ENDBRANCH  16  19
ENDBRANCH  14  16
ENDBRANCH   4  14
TORSDOF 6
