REMARK  Name = ZINC14157134
REMARK  8 active torsions:
REMARK  status: ('A' for Active; 'I' for Inactive)
REMARK    1  A    between atoms: C_1  and  C_2
REMARK    2  A    between atoms: C_4  and  C_29
REMARK    3  A    between atoms: N_10  and  C_11
REMARK    4  A    between atoms: C_11  and  N_13
REMARK    5  A    between atoms: N_13  and  C_14
REMARK    6  A    between atoms: N_19  and  C_20
REMARK    7  A    between atoms: C_20  and  C_21
REMARK    8  A    between atoms: C_21  and  C_22
REMARK                            x       y       z     vdW  Elec       q    Type
REMARK                         _______ _______ _______ _____ _____    ______ ____
ROOT
ATOM      1  C   UNL     1      -1.535   2.627   1.383  0.00  0.00    +0.066 C 
ATOM      2  C   UNL     1      -1.473   3.280   2.740  0.00  0.00    +0.044 A 
ATOM      3  C   UNL     1      -1.757   4.629   2.882  0.00  0.00    +0.046 A 
ATOM      4  C   UNL     1      -1.688   5.190   4.148  0.00  0.00    +0.044 A 
ATOM      5  N   UNL     1      -1.355   4.426   5.175  0.00  0.00    -0.217 NA
ATOM      6  C   UNL     1      -1.089   3.140   5.004  0.00  0.00    +0.231 A 
ATOM      7  N   UNL     1      -1.141   2.574   3.808  0.00  0.00    -0.217 NA
ATOM      8  N   UNL     1      -0.742   2.368   6.105  0.00  0.00    -0.297 N 
ATOM      9  C   UNL     1      -0.326   1.076   5.930  0.00  0.00    +0.195 C 
ATOM     10  N   UNL     1       0.911   0.732   6.244  0.00  0.00    -0.160 NA
ATOM     11  N   UNL     1      -1.188   0.142   5.433  0.00  0.00    -0.357 N 
ATOM     12  C   UNL     1      -1.989   6.653   4.351  0.00  0.00    +0.066 C 
ATOM     13  H   UNL     1      -0.802   2.795   7.117  0.00  0.00    +0.171 HD
ATOM     14  H   UNL     1      -0.854  -0.896   5.293  0.00  0.00    +0.162 HD
ENDROOT
BRANCH  10  15
ATOM     15  C   UNL     1       1.827   1.679   6.493  0.00  0.00    +0.157 C 
ATOM     16  S   UNL     1       1.389   3.333   6.429  0.00  0.00    -0.017 S 
BRANCH  15  17
ATOM     17  N   UNL     1       3.094   1.329   6.795  0.00  0.00    -0.322 N 
ATOM     18  H   UNL     1       3.394   0.271   6.762  0.00  0.00    +0.148 HD
BRANCH  17  19
ATOM     19  C   UNL     1       4.069   2.357   7.167  0.00  0.00    +0.072 C 
ATOM     20  C   UNL     1       5.218   1.745   8.005  0.00  0.00    +0.022 C 
ATOM     21  C   UNL     1       6.399   2.716   7.800  0.00  0.00    +0.002 C 
ATOM     22  C   UNL     1       6.141   3.446   6.470  0.00  0.00    +0.002 C 
ATOM     23  C   UNL     1       4.812   2.894   5.914  0.00  0.00    +0.022 C 
ENDBRANCH  17  19
ENDBRANCH  15  17
ENDBRANCH  10  15
BRANCH  11  24
ATOM     24  C   UNL     1      -2.560   0.523   5.086  0.00  0.00    +0.120 C 
BRANCH  24  25
ATOM     25  C   UNL     1      -3.310  -0.700   4.555  0.00  0.00    +0.056 C 
BRANCH  25  26
ATOM     26  C   UNL     1      -4.721  -0.308   4.198  0.00  0.00    -0.046 A 
ATOM     27  C   UNL     1      -5.724  -0.399   5.145  0.00  0.00    +0.005 A 
ATOM     28  C   UNL     1      -7.016  -0.034   4.819  0.00  0.00    +0.020 A 
ATOM     29  C   UNL     1      -7.309   0.410   3.542  0.00  0.00    +0.041 A 
ATOM     30  C   UNL     1      -6.306   0.495   2.593  0.00  0.00    +0.020 A 
ATOM     31  C   UNL     1      -5.012   0.136   2.922  0.00  0.00    +0.005 A 
ATOM     32 CL   UNL     1      -8.934   0.862   3.131  0.00  0.00    -0.084 Cl
ENDBRANCH  25  26
ENDBRANCH  24  25
ENDBRANCH  11  24
TORSDOF 6
