REMARK  Name = ZINC66750844
REMARK  14 active torsions:
REMARK  status: ('A' for Active; 'I' for Inactive)
REMARK    1  A    between atoms: C_1  and  C_2
REMARK    2  A    between atoms: C_2  and  O_3
REMARK    3  A    between atoms: O_3  and  C_4
REMARK    4  A    between atoms: N_6  and  C_7
REMARK    5  A    between atoms: C_7  and  C_9
REMARK    6  A    between atoms: C_7  and  C_12
REMARK    7  A    between atoms: C_9  and  C_10
REMARK    8  A    between atoms: C_9  and  C_11
REMARK    9  A    between atoms: N_14  and  C_15
REMARK   10  A    between atoms: C_15  and  C_17
REMARK   11  A    between atoms: C_15  and  C_18
REMARK   12  A    between atoms: C_22  and  S_24
REMARK   13  A    between atoms: S_24  and  N_27
REMARK   14  A    between atoms: N_27  and  C_28
REMARK                            x       y       z     vdW  Elec       q    Type
REMARK                         _______ _______ _______ _____ _____    ______ ____
ROOT
ATOM      1  C   UNL     1       1.372  -4.154   4.037  0.00  0.00    +0.234 C 
ATOM      2  O   UNL     1       1.285  -3.328   4.919  0.00  0.00    -0.274 OA
ATOM      3  N   UNL     1       1.633  -5.441   4.341  0.00  0.00    -0.307 N 
ATOM      4  H   UNL     1       1.632  -6.115   3.644  0.00  0.00    +0.149 HD
ENDROOT
BRANCH   3   5
ATOM      5  C   UNL     1       1.919  -5.822   5.727  0.00  0.00    +0.100 C 
ATOM      6  C   UNL     1       0.604  -6.066   6.470  0.00  0.00    +0.033 C 
BRANCH   5   7
ATOM      7  C   UNL     1       2.745  -7.082   5.741  0.00  0.00    -0.026 A 
ATOM      8  C   UNL     1       2.473  -8.098   4.844  0.00  0.00    +0.005 A 
ATOM      9  C   UNL     1       3.230  -9.254   4.857  0.00  0.00    +0.002 A 
ATOM     10  C   UNL     1       4.262  -9.394   5.767  0.00  0.00    +0.028 A 
ATOM     11  C   UNL     1       4.535  -8.378   6.664  0.00  0.00    +0.106 A 
ATOM     12  C   UNL     1       3.780  -7.220   6.648  0.00  0.00    +0.034 A 
BRANCH  11  13
ATOM     13  S   UNL     1       5.849  -8.557   7.824  0.00  0.00    +0.058 S 
ATOM     14  O   UNL     1       5.550  -7.693   8.912  0.00  0.00    -0.153 OA
ATOM     15  O   UNL     1       6.053  -9.953   7.994  0.00  0.00    -0.153 OA
BRANCH  13  16
ATOM     16  N   UNL     1       7.218  -7.961   7.109  0.00  0.00    -0.193 NA
ATOM     17  C   UNL     1       7.310  -6.538   6.776  0.00  0.00    +0.127 C 
ATOM     18  H   UNL     1       7.959  -8.555   6.911  0.00  0.00    +0.148 HD
ENDBRANCH  13  16
ENDBRANCH  11  13
ENDBRANCH   5   7
ENDBRANCH   3   5
BRANCH   1  19
ATOM     19  C   UNL     1       1.189  -3.743   2.598  0.00  0.00    +0.165 C 
BRANCH  19  22
ATOM     20  C   UNL     1      -0.219  -2.120   1.450  0.00  0.00    +0.401 C 
ATOM     21  O   UNL     1      -0.285  -2.886   0.509  0.00  0.00    -0.226 OA
ATOM     22  N   UNL     1       0.493  -2.455   2.544  0.00  0.00    -0.270 N 
ATOM     23  H   UNL     1       0.546  -1.843   3.295  0.00  0.00    +0.153 HD
BRANCH  20  24
ATOM     24  O   UNL     1      -0.859  -0.936   1.399  0.00  0.00    -0.451 OA
BRANCH  24  26
ATOM     25  C   UNL     1      -2.248   0.731   0.337  0.00  0.00    +0.048 C 
ATOM     26  C   UNL     1      -1.595  -0.646   0.210  0.00  0.00    +0.230 C 
ENDBRANCH  24  26
ENDBRANCH  20  24
ENDBRANCH  19  22
BRANCH  19  27
ATOM     27  C   UNL     1       2.557  -3.613   1.927  0.00  0.00    +0.012 C 
ATOM     28  C   UNL     1       2.369  -3.309   0.439  0.00  0.00    +0.009 C 
ATOM     29  C   UNL     1       3.342  -2.476   2.584  0.00  0.00    +0.009 C 
ENDBRANCH  19  27
ENDBRANCH   1  19
TORSDOF 9
