REMARK  Name = ZINC02922732
REMARK  13 active torsions:
REMARK  status: ('A' for Active; 'I' for Inactive)
REMARK    1  A    between atoms: C_1  and  C_2
REMARK    2  A    between atoms: C_2  and  C_3
REMARK    3  A    between atoms: C_3  and  C_4
REMARK    4  A    between atoms: C_4  and  C_5
REMARK    5  A    between atoms: C_4  and  C_13
REMARK    6  A    between atoms: C_4  and  O_25
REMARK    7  A    between atoms: C_8  and  O_11
REMARK    8  A    between atoms: O_11  and  C_12
REMARK    9  A    between atoms: C_13  and  C_15
REMARK   10  A    between atoms: C_13  and  C_19
REMARK   11  A    between atoms: C_15  and  N_16
REMARK   12  A    between atoms: N_16  and  C_17
REMARK   13  A    between atoms: N_16  and  C_18
REMARK                            x       y       z     vdW  Elec       q    Type
REMARK                         _______ _______ _______ _____ _____    ______ ____
ROOT
ATOM      1  C   UNL     1      -1.103  -1.826  -0.205  0.00  0.00    +0.096 C 
ENDROOT
BRANCH   1   2
ATOM      2  C   UNL     1      -0.136  -2.424  -1.194  0.00  0.00    -0.015 A 
ATOM      3  C   UNL     1      -0.608  -3.000  -2.359  0.00  0.00    +0.010 A 
ATOM      4  C   UNL     1       0.277  -3.550  -3.267  0.00  0.00    +0.046 A 
ATOM      5  C   UNL     1       1.639  -3.523  -3.009  0.00  0.00    +0.120 A 
ATOM      6  C   UNL     1       2.111  -2.944  -1.839  0.00  0.00    +0.046 A 
ATOM      7  C   UNL     1       1.222  -2.391  -0.937  0.00  0.00    +0.010 A 
BRANCH   5   8
ATOM      8  O   UNL     1       2.511  -4.064  -3.900  0.00  0.00    -0.495 OA
ATOM      9  C   UNL     1       3.900  -4.000  -3.569  0.00  0.00    +0.277 C 
ENDBRANCH   5   8
ENDBRANCH   1   2
BRANCH   1  10
ATOM     10  O   UNL     1      -0.382  -1.324   0.922  0.00  0.00    -0.383 OA
ATOM     11  H   UNL     1       0.214  -1.969   1.327  0.00  0.00    +0.211 HD
ENDBRANCH   1  10
BRANCH   1  12
ATOM     12  C   UNL     1      -1.870  -0.682  -0.871  0.00  0.00    +0.040 C 
BRANCH  12  14
ATOM     13  C   UNL     1      -1.648   1.518  -2.034  0.00  0.00    +0.004 C 
ATOM     14  C   UNL     1      -0.881   0.374  -1.369  0.00  0.00    -0.000 C 
ENDBRANCH  12  14
ENDBRANCH   1  12
BRANCH   1  15
ATOM     15  C   UNL     1      -2.090  -2.900   0.257  0.00  0.00    +0.039 C 
BRANCH  15  16
ATOM     16  C   UNL     1      -1.327  -4.086   0.791  0.00  0.00    -0.043 A 
ATOM     17  C   UNL     1      -0.666  -3.994   2.002  0.00  0.00    +0.004 A 
ATOM     18  C   UNL     1       0.033  -5.082   2.491  0.00  0.00    +0.000 A 
ATOM     19  C   UNL     1       0.070  -6.261   1.770  0.00  0.00    +0.000 A 
ATOM     20  C   UNL     1      -0.592  -6.352   0.560  0.00  0.00    +0.000 A 
ATOM     21  C   UNL     1      -1.294  -5.266   0.073  0.00  0.00    +0.004 A 
ENDBRANCH  15  16
BRANCH  15  22
ATOM     22  C   UNL     1      -2.984  -2.330   1.360  0.00  0.00    -0.068 C 
BRANCH  22  23
ATOM     23  N   UNL     1      -4.005  -3.322   1.724  0.00  0.00    +0.376 N 
ATOM     24  C   UNL     1      -4.764  -2.840   2.885  0.00  0.00    -0.097 C 
ATOM     25  C   UNL     1      -4.918  -3.523   0.591  0.00  0.00    -0.097 C 
ATOM     26  H   UNL     1      -3.557  -4.196   1.954  0.00  0.00    -0.083 HD
ENDBRANCH  22  23
ENDBRANCH  15  22
ENDBRANCH   1  15
TORSDOF 9
