REMARK  Name = ZINC14883543
REMARK  9 active torsions:
REMARK  status: ('A' for Active; 'I' for Inactive)
REMARK    1  A    between atoms: C_1  and  C_2
REMARK    2  A    between atoms: C_2  and  C_3
REMARK    3  A    between atoms: C_3  and  C_4
REMARK    4  A    between atoms: C_4  and  C_18
REMARK    5  A    between atoms: N_7  and  C_11
REMARK    6  A    between atoms: C_11  and  C_12
REMARK    7  A    between atoms: C_23  and  C_24
REMARK    8  A    between atoms: C_23  and  N_63
REMARK    9  A    between atoms: C_27  and  O_31
REMARK                            x       y       z     vdW  Elec       q    Type
REMARK                         _______ _______ _______ _____ _____    ______ ____
ROOT
ATOM      1  C   UNL     1       1.419  -0.406  -0.014  0.00  0.00    +0.115 C 
ATOM      2  C   UNL     1       2.164   0.914  -0.014  0.00  0.00    +0.247 C 
ATOM      3  O   UNL     1       3.365   1.077  -0.024  0.00  0.00    -0.273 OA
ATOM      4  N   UNL     1       1.213   1.869   0.001  0.00  0.00    -0.222 N 
ATOM      5  C   UNL     1      -0.016   1.341   0.009  0.00  0.00    +0.309 C 
ATOM      6  O   UNL     1      -1.036   2.003   0.018  0.00  0.00    -0.252 OA
ATOM      7  N   UNL     1       0.002  -0.004   0.002  0.00  0.00    -0.285 N 
ATOM      8  H   UNL     1      -0.768  -0.594   0.006  0.00  0.00    +0.151 HD
ENDROOT
BRANCH   1   9
ATOM      9  C   UNL     1       1.762  -1.218   1.237  0.00  0.00    +0.018 C 
ATOM     10  C   UNL     1       0.901  -2.483   1.278  0.00  0.00    -0.013 C 
ATOM     11  C   UNL     1       1.204  -3.259   2.562  0.00  0.00    -0.078 C 
ATOM     12  C   UNL     1       1.769  -1.214   3.734  0.00  0.00    -0.078 C 
ATOM     13  C   UNL     1       1.482  -0.377   2.486  0.00  0.00    -0.013 C 
ATOM     14  N   UNL     1       0.890  -2.403   3.727  0.00  0.00    +0.382 N 
ATOM     15  H   UNL     1      -0.086  -2.095   3.660  0.00  0.00    -0.081 HD
BRANCH  14  16
ATOM     16  C   UNL     1       1.067  -3.169   4.978  0.00  0.00    -0.043 C 
BRANCH  16  17
ATOM     17  C   UNL     1       0.380  -4.503   4.841  0.00  0.00    -0.062 A 
ATOM     18  C   UNL     1       1.082  -5.596   4.366  0.00  0.00    +0.005 A 
ATOM     19  C   UNL     1       0.455  -6.820   4.240  0.00  0.00    +0.047 A 
ATOM     20  C   UNL     1      -0.880  -6.954   4.590  0.00  0.00    +0.135 A 
ATOM     21  C   UNL     1      -1.584  -5.856   5.066  0.00  0.00    +0.082 A 
ATOM     22  C   UNL     1      -0.950  -4.634   5.196  0.00  0.00    +0.025 A 
ATOM     23 CL   UNL     1      -3.255  -6.018   5.505  0.00  0.00    -0.080 Cl
BRANCH  20  24
ATOM     24  O   UNL     1      -1.499  -8.158   4.467  0.00  0.00    -0.505 OA
ATOM     25  H   UNL     1      -1.442  -8.712   5.258  0.00  0.00    +0.292 HD
ENDBRANCH  20  24
ENDBRANCH  16  17
ENDBRANCH  14  16
ENDBRANCH   1   9
BRANCH   1  26
ATOM     26  C   UNL     1       1.738  -1.204  -1.279  0.00  0.00    +0.035 C 
BRANCH  26  28
ATOM     27  C   UNL     1       1.756  -1.147  -3.777  0.00  0.00    +0.004 C 
ATOM     28  C   UNL     1       1.437  -0.348  -2.511  0.00  0.00    -0.001 C 
ENDBRANCH  26  28
ENDBRANCH   1  26
BRANCH   4  29
ATOM     29  C   UNL     1       1.491   3.307   0.005  0.00  0.00    +0.149 C 
BRANCH  29  30
ATOM     30  C   UNL     1       1.602   3.801   1.448  0.00  0.00    +0.136 C 
ATOM     31  C   UNL     1       1.780   5.335   1.465  0.00  0.00    +0.035 C 
ATOM     32  C   UNL     1       2.811   5.534   2.610  0.00  0.00    +0.031 C 
ATOM     33  C   UNL     1       3.677   4.259   2.452  0.00  0.00    +0.160 C 
ATOM     34  O   UNL     1       2.755   3.224   2.072  0.00  0.00    -0.375 OA
ENDBRANCH  29  30
ENDBRANCH   4  29
TORSDOF 8
