REMARK  Name = ZINC13596526
REMARK  8 active torsions:
REMARK  status: ('A' for Active; 'I' for Inactive)
REMARK    1  A    between atoms: C_1  and  C_2
REMARK    2  A    between atoms: C_2  and  C_3
REMARK    3  A    between atoms: C_6  and  C_8
REMARK    4  A    between atoms: C_8  and  N_63
REMARK    5  A    between atoms: C_12  and  C_15
REMARK    6  A    between atoms: C_15  and  C_16
REMARK    7  A    between atoms: C_16  and  C_17
REMARK    8  A    between atoms: N_22  and  C_25
REMARK                            x       y       z     vdW  Elec       q    Type
REMARK                         _______ _______ _______ _____ _____    ______ ____
ROOT
ATOM      1  C   UNL     1       7.513  -0.083   2.863  0.00  0.00    +0.011 C 
ENDROOT
BRANCH   1   5
ATOM      2  C   UNL     1       3.784   1.861   2.044  0.00  0.00    -0.078 C 
ATOM      3  C   UNL     1       4.192   1.750   3.514  0.00  0.00    -0.018 C 
ATOM      4  C   UNL     1       5.694   1.464   3.602  0.00  0.00    -0.000 C 
ATOM      5  C   UNL     1       6.006   0.178   2.831  0.00  0.00    -0.027 C 
ATOM      6  C   UNL     1       5.545   0.334   1.380  0.00  0.00    -0.075 C 
ATOM      7  N   UNL     1       4.088   0.584   1.364  0.00  0.00    +0.385 N 
ATOM      8  H   UNL     1       3.614  -0.179   1.861  0.00  0.00    -0.081 HD
BRANCH   7   9
ATOM      9  C   UNL     1       3.599   0.625  -0.030  0.00  0.00    -0.003 C 
BRANCH   9  13
ATOM     10  C   UNL     1       0.002  -0.004   0.002  0.00  0.00    +0.105 A 
ATOM     11  C   UNL     1      -0.016   1.341   0.009  0.00  0.00    +0.045 A 
ATOM     12  C   UNL     1       1.331   1.769  -0.001  0.00  0.00    +0.043 A 
ATOM     13  C   UNL     1       2.092   0.660  -0.014  0.00  0.00    +0.089 A 
ATOM     14  O   UNL     1       1.282  -0.411  -0.012  0.00  0.00    -0.466 OA
BRANCH  10  16
ATOM     15  C   UNL     1      -1.631  -1.198  -1.432  0.00  0.00    +0.012 C 
ATOM     16  C   UNL     1      -1.208  -0.902   0.008  0.00  0.00    +0.071 C 
ENDBRANCH  10  16
ENDBRANCH   9  13
ENDBRANCH   7   9
ENDBRANCH   1   5
BRANCH   1  17
ATOM     17  C   UNL     1       7.952  -0.363   4.302  0.00  0.00    +0.096 C 
BRANCH  17  18
ATOM     18  C   UNL     1       9.436  -0.620   4.334  0.00  0.00    +0.216 C 
ATOM     19  O   UNL     1      10.080  -0.584   3.307  0.00  0.00    -0.276 OA
ATOM     20  N   UNL     1      10.049  -0.891   5.503  0.00  0.00    -0.298 N 
ATOM     21  C   UNL     1       9.288  -0.934   6.761  0.00  0.00    +0.126 C 
ATOM     22  C   UNL     1       9.611  -2.257   7.475  0.00  0.00    +0.125 C 
ATOM     23  N   UNL     1      11.066  -2.383   7.625  0.00  0.00    -0.314 N 
ATOM     24  C   UNL     1      11.733  -2.454   6.318  0.00  0.00    +0.125 C 
ATOM     25  C   UNL     1      11.496  -1.145   5.557  0.00  0.00    +0.126 C 
BRANCH  23  26
ATOM     26  C   UNL     1      11.392  -3.483   8.411  0.00  0.00    +0.099 A 
ATOM     27  C   UNL     1      10.857  -3.600   9.690  0.00  0.00    +0.042 A 
ATOM     28  C   UNL     1      11.190  -4.699  10.460  0.00  0.00    +0.005 A 
ATOM     29  C   UNL     1      12.050  -5.649   9.924  0.00  0.00    +0.018 A 
ATOM     30  C   UNL     1      12.543  -5.470   8.647  0.00  0.00    +0.084 A 
ATOM     31  N   UNL     1      12.233  -4.405   7.859  0.00  0.00    -0.350 N 
ATOM     32  H   UNL     1      12.608  -4.302   6.909  0.00  0.00    +0.166 HD
ENDBRANCH  23  26
ENDBRANCH  17  18
ENDBRANCH   1  17
TORSDOF 7
