REMARK  Name = ZINC35500950
REMARK  4 active torsions:
REMARK  status: ('A' for Active; 'I' for Inactive)
REMARK    1  A    between atoms: C_1  and  N_2
REMARK    2  A    between atoms: N_2  and  C_3
REMARK    3  A    between atoms: C_3  and  C_5
REMARK    4  A    between atoms: C_3  and  C_12
REMARK                            x       y       z     vdW  Elec       q    Type
REMARK                         _______ _______ _______ _____ _____    ______ ____
ROOT
ATOM      1  C   UNL     1      -1.376  -0.512   0.012  0.00  0.00    -0.008 C 
ENDROOT
BRANCH   1   2
ATOM      2  C   UNL     1      -1.285  -2.003   0.212  0.00  0.00    -0.039 A 
ATOM      3  C   UNL     1      -0.075  -2.650   0.042  0.00  0.00    +0.052 A 
ATOM      4  C   UNL     1       0.012  -4.022   0.226  0.00  0.00    +0.162 A 
ATOM      5  C   UNL     1      -1.121  -4.745   0.583  0.00  0.00    +0.163 A 
ATOM      6  C   UNL     1      -2.332  -4.091   0.750  0.00  0.00    +0.065 A 
ATOM      7  C   UNL     1      -2.411  -2.722   0.570  0.00  0.00    +0.023 A 
ATOM      8 BR   UNL     1      -4.063  -1.833   0.806  0.00  0.00    -0.050 Br
ATOM      9  O   UNL     1      -1.056  -6.090   0.775  0.00  0.00    -0.485 OA
ATOM     10  C   UNL     1       0.088  -6.763   0.237  0.00  0.00    +0.270 C 
ATOM     11  C   UNL     1       1.339  -5.957   0.609  0.00  0.00    +0.270 C 
ATOM     12  O   UNL     1       1.209  -4.644   0.051  0.00  0.00    -0.485 OA
ENDBRANCH   1   2
BRANCH   1  13
ATOM     13  C   UNL     1      -1.748  -0.219  -1.418  0.00  0.00    -0.039 A 
ATOM     14  C   UNL     1      -0.890  -0.574  -2.442  0.00  0.00    +0.004 A 
ATOM     15  C   UNL     1      -1.231  -0.304  -3.754  0.00  0.00    +0.000 A 
ATOM     16  C   UNL     1      -2.430   0.321  -4.043  0.00  0.00    +0.001 A 
ATOM     17  C   UNL     1      -3.288   0.676  -3.020  0.00  0.00    +0.020 A 
ATOM     18  C   UNL     1      -2.950   0.402  -1.707  0.00  0.00    +0.043 A 
ATOM     19 CL   UNL     1      -4.031   0.842  -0.422  0.00  0.00    -0.083 Cl
ENDBRANCH   1  13
BRANCH   1  21
ATOM     20  C   UNL     1      -0.197   1.564   0.239  0.00  0.00    -0.099 C 
ATOM     21  N   UNL     1      -0.077   0.102   0.317  0.00  0.00    +0.384 N 
ATOM     22  H   UNL     1       0.610  -0.215  -0.350  0.00  0.00    -0.085 HD
ATOM     23  H   UNL     1       0.210  -0.163   1.247  0.00  0.00    -0.085 HD
ENDBRANCH   1  21
TORSDOF 3
