REMARK  Name = ZINC22775130
REMARK  6 active torsions:
REMARK  status: ('A' for Active; 'I' for Inactive)
REMARK    1  A    between atoms: C_1  and  C_2
REMARK    2  A    between atoms: C_2  and  C_24
REMARK    3  A    between atoms: N_5  and  C_9
REMARK    4  A    between atoms: C_9  and  N_10
REMARK    5  A    between atoms: N_13  and  C_16
REMARK    6  A    between atoms: C_16  and  C_17
REMARK                            x       y       z     vdW  Elec       q    Type
REMARK                         _______ _______ _______ _____ _____    ______ ____
ROOT
ATOM      1  N   UNL     1      -3.565   2.269   3.603  0.00  0.00    -0.290 NA
ATOM      2  C   UNL     1      -3.258   3.537   2.927  0.00  0.00    +0.067 C 
ATOM      3  C   UNL     1      -2.901   3.260   1.465  0.00  0.00    -0.063 C 
ATOM      4  N   UNL     1      -1.753   2.345   1.408  0.00  0.00    +0.384 N 
ATOM      5  C   UNL     1      -2.060   1.077   2.084  0.00  0.00    -0.063 C 
ATOM      6  C   UNL     1      -2.416   1.354   3.546  0.00  0.00    +0.067 C 
ATOM      7  H   UNL     1      -0.914   2.819   1.940  0.00  0.00    -0.081 HD
ENDROOT
BRANCH   1   8
ATOM      8  C   UNL     1      -3.986   2.500   4.991  0.00  0.00    +0.204 C 
BRANCH   8  13
ATOM      9  C   UNL     1      -7.529   0.242   7.097  0.00  0.00    +0.042 C 
ATOM     10  C   UNL     1      -6.595   0.020   5.906  0.00  0.00    +0.113 C 
ATOM     11  C   UNL     1      -6.164   1.347   5.312  0.00  0.00    +0.248 C 
ATOM     12  O   UNL     1      -6.878   2.196   4.823  0.00  0.00    -0.273 OA
ATOM     13  N   UNL     1      -4.823   1.385   5.440  0.00  0.00    -0.211 N 
ATOM     14  C   UNL     1      -4.352   0.282   6.032  0.00  0.00    +0.310 C 
ATOM     15  O   UNL     1      -3.174   0.088   6.260  0.00  0.00    -0.252 OA
ATOM     16  N   UNL     1      -5.328  -0.589   6.347  0.00  0.00    -0.285 N 
ATOM     17  H   UNL     1      -5.331  -1.578   6.829  0.00  0.00    +0.151 HD
BRANCH  10  18
ATOM     18  C   UNL     1      -7.272  -0.854   4.848  0.00  0.00    +0.021 C 
ATOM     19  C   UNL     1      -8.775  -1.100   4.992  0.00  0.00    +0.006 C 
ATOM     20  C   UNL     1      -7.784  -2.227   5.288  0.00  0.00    +0.006 C 
ENDBRANCH  10  18
ENDBRANCH   8  13
ENDBRANCH   1   8
BRANCH   4  21
ATOM     21  C   UNL     1      -1.332   2.114   0.020  0.00  0.00    -0.043 C 
BRANCH  21  22
ATOM     22  C   UNL     1      -0.017   1.378   0.010  0.00  0.00    -0.064 A 
ATOM     23  C   UNL     1       1.171   2.086   0.002  0.00  0.00    +0.003 A 
ATOM     24  C   UNL     1       2.377   1.412  -0.013  0.00  0.00    +0.020 A 
ATOM     25  C   UNL     1       2.397   0.029  -0.021  0.00  0.00    +0.041 A 
ATOM     26  C   UNL     1       1.208  -0.679  -0.013  0.00  0.00    +0.020 A 
ATOM     27  C   UNL     1       0.002  -0.004   0.002  0.00  0.00    +0.003 A 
ATOM     28 CL   UNL     1       3.912  -0.818  -0.039  0.00  0.00    -0.084 Cl
ENDBRANCH  21  22
ENDBRANCH   4  21
TORSDOF 5
