REMARK  Name = ZINC36202683
REMARK  16 active torsions:
REMARK  status: ('A' for Active; 'I' for Inactive)
REMARK    1  A    between atoms: C_1  and  O_2
REMARK    2  A    between atoms: O_2  and  C_3
REMARK    3  A    between atoms: C_3  and  C_4
REMARK    4  A    between atoms: C_4  and  N_5
REMARK    5  A    between atoms: N_5  and  C_6
REMARK    6  A    between atoms: N_5  and  C_12
REMARK    7  A    between atoms: C_6  and  C_7
REMARK    8  A    between atoms: C_12  and  C_13
REMARK    9  A    between atoms: C_16  and  C_18
REMARK   10  A    between atoms: C_18  and  C_19
REMARK   11  A    between atoms: C_18  and  C_27
REMARK   12  A    between atoms: C_18  and  O_35
REMARK   13  A    between atoms: C_22  and  O_25
REMARK   14  A    between atoms: O_25  and  C_26
REMARK   15  A    between atoms: C_30  and  O_33
REMARK   16  A    between atoms: O_33  and  C_34
REMARK                            x       y       z     vdW  Elec       q    Type
REMARK                         _______ _______ _______ _____ _____    ______ ____
ROOT
ATOM      1  C   UNL     1       2.915  -7.738  -5.708  0.00  0.00    +0.174 C 
ENDROOT
BRANCH   1   2
ATOM      2  C   UNL     1       1.471  -7.982  -5.353  0.00  0.00    -0.004 A 
ATOM      3  C   UNL     1       1.016  -9.274  -5.163  0.00  0.00    +0.011 A 
ATOM      4  C   UNL     1      -0.308  -9.500  -4.838  0.00  0.00    +0.046 A 
ATOM      5  C   UNL     1      -1.180  -8.430  -4.702  0.00  0.00    +0.120 A 
ATOM      6  C   UNL     1      -0.721  -7.135  -4.892  0.00  0.00    +0.046 A 
ATOM      7  C   UNL     1       0.605  -6.914  -5.212  0.00  0.00    +0.011 A 
BRANCH   5   8
ATOM      8  O   UNL     1      -2.483  -8.650  -4.382  0.00  0.00    -0.495 OA
ATOM      9  C   UNL     1      -3.324  -7.502  -4.258  0.00  0.00    +0.277 C 
ENDBRANCH   5   8
ENDBRANCH   1   2
BRANCH   1  10
ATOM     10  C   UNL     1       2.990  -6.912  -6.966  0.00  0.00    -0.004 A 
ATOM     11  C   UNL     1       2.872  -5.536  -6.896  0.00  0.00    +0.011 A 
ATOM     12  C   UNL     1       2.940  -4.776  -8.048  0.00  0.00    +0.046 A 
ATOM     13  C   UNL     1       3.127  -5.395  -9.276  0.00  0.00    +0.120 A 
ATOM     14  C   UNL     1       3.246  -6.775  -9.343  0.00  0.00    +0.046 A 
ATOM     15  C   UNL     1       3.183  -7.530  -8.188  0.00  0.00    +0.011 A 
BRANCH  13  16
ATOM     16  O   UNL     1       3.194  -4.649 -10.410  0.00  0.00    -0.495 OA
ATOM     17  C   UNL     1       3.389  -5.354 -11.638  0.00  0.00    +0.277 C 
ENDBRANCH  13  16
ENDBRANCH   1  10
BRANCH   1  21
ATOM     18  C   UNL     1       3.905  -5.673  -2.864  0.00  0.00    +0.089 A 
ATOM     19  C   UNL     1       5.094  -6.237  -3.143  0.00  0.00    +0.043 A 
ATOM     20  C   UNL     1       4.892  -7.093  -4.250  0.00  0.00    +0.048 A 
ATOM     21  C   UNL     1       3.591  -7.000  -4.582  0.00  0.00    +0.146 A 
ATOM     22  O   UNL     1       2.997  -6.144  -3.735  0.00  0.00    -0.463 OA
BRANCH  18  23
ATOM     23  C   UNL     1       3.635  -4.686  -1.758  0.00  0.00    -0.003 C 
BRANCH  23  24
ATOM     24  N   UNL     1       3.835  -3.320  -2.261  0.00  0.00    +0.389 N 
ATOM     25  H   UNL     1       4.759  -3.239  -2.656  0.00  0.00    -0.081 HD
BRANCH  24  26
ATOM     26  C   UNL     1       3.689  -2.365  -1.155  0.00  0.00    -0.049 C 
BRANCH  26  27
ATOM     27  C   UNL     1       4.819  -2.578  -0.145  0.00  0.00    +0.141 C 
BRANCH  27  29
ATOM     28  C   UNL     1       7.208  -2.590   0.052  0.00  0.00    +0.193 C 
ATOM     29  O   UNL     1       6.075  -2.315  -0.774  0.00  0.00    -0.385 OA
ENDBRANCH  27  29
ENDBRANCH  26  27
ENDBRANCH  24  26
BRANCH  24  30
ATOM     30  C   UNL     1       2.833  -3.028  -3.295  0.00  0.00    -0.042 C 
BRANCH  30  31
ATOM     31  C   UNL     1       3.129  -1.688  -3.917  0.00  0.00    -0.057 A 
ATOM     32  C   UNL     1       2.478  -0.551  -3.476  0.00  0.00    +0.009 A 
ATOM     33  C   UNL     1       2.768   0.639  -4.057  0.00  0.00    +0.045 A 
ATOM     34  S   UNL     1       3.993   0.170  -5.268  0.00  0.00    -0.105 S 
ATOM     35  C   UNL     1       4.041  -1.579  -4.914  0.00  0.00    +0.047 A 
ENDBRANCH  30  31
ENDBRANCH  24  30
ENDBRANCH  23  24
ENDBRANCH  18  23
ENDBRANCH   1  21
BRANCH   1  36
ATOM     36  O   UNL     1       3.571  -8.989  -5.921  0.00  0.00    -0.372 OA
ATOM     37  H   UNL     1       3.562  -9.574  -5.151  0.00  0.00    +0.212 HD
ENDBRANCH   1  36
TORSDOF 13
