REMARK  Name = ZINC00652682
REMARK  3 active torsions:
REMARK  status: ('A' for Active; 'I' for Inactive)
REMARK    1  A    between atoms: C_8  and  N_11
REMARK    2  A    between atoms: C_12  and  C_14
REMARK    3  A    between atoms: C_15  and  C_16
REMARK                            x       y       z     vdW  Elec       q    Type
REMARK                         _______ _______ _______ _____ _____    ______ ____
ROOT
ATOM      1  N   UNL     1       6.066   1.761  -0.046  0.00  0.00    -0.281 N 
ATOM      2  C   UNL     1       4.911   1.066  -0.038  0.00  0.00    +0.241 C 
ATOM      3  O   UNL     1       4.933  -0.151  -0.038  0.00  0.00    -0.270 OA
ATOM      4  H   UNL     1       6.050   2.728  -0.115  0.00  0.00    +0.155 HD
ENDROOT
BRANCH   1  12
ATOM      5  C   UNL     1      10.148  -2.632  -0.874  0.00  0.00    +0.001 A 
ATOM      6  C   UNL     1      11.170  -2.000  -0.168  0.00  0.00    +0.002 A 
ATOM      7  C   UNL     1      10.977  -0.781   0.405  0.00  0.00    +0.028 A 
ATOM      8  C   UNL     1       9.730  -0.142   0.287  0.00  0.00    +0.071 A 
ATOM      9  C   UNL     1       8.693  -0.788  -0.432  0.00  0.00    +0.002 A 
ATOM     10  C   UNL     1       8.927  -2.046  -1.010  0.00  0.00    +0.010 A 
ATOM     11  C   UNL     1       7.445  -0.150  -0.552  0.00  0.00    +0.035 A 
ATOM     12  C   UNL     1       7.288   1.087   0.044  0.00  0.00    +0.053 A 
ATOM     13  C   UNL     1       8.361   1.664   0.733  0.00  0.00    +0.134 A 
ATOM     14  N   UNL     1       9.515   1.055   0.841  0.00  0.00    -0.253 NA
ENDBRANCH   1  12
BRANCH   2  15
ATOM     15  C   UNL     1       3.631   1.776  -0.030  0.00  0.00    +0.068 C 
ATOM     16  C   UNL     1       2.475   1.081  -0.022  0.00  0.00    +0.013 C 
BRANCH  16  17
ATOM     17  C   UNL     1       1.188   1.794  -0.014  0.00  0.00    -0.025 A 
ATOM     18  C   UNL     1      -0.013   1.076  -0.005  0.00  0.00    +0.009 A 
ATOM     19  C   UNL     1      -1.215   1.751  -0.003  0.00  0.00    +0.016 A 
ATOM     20  C   UNL     1      -1.236   3.136   0.001  0.00  0.00    +0.018 A 
ATOM     21  C   UNL     1      -0.050   3.853  -0.007  0.00  0.00    +0.016 A 
ATOM     22  C   UNL     1       1.159   3.192  -0.014  0.00  0.00    +0.009 A 
ATOM     23 BR   UNL     1      -2.890   4.052   0.010  0.00  0.00    -0.050 Br
ENDBRANCH  16  17
ENDBRANCH   2  15
TORSDOF 3
