REMARK  Name = ZINC39007109
REMARK  8 active torsions:
REMARK  status: ('A' for Active; 'I' for Inactive)
REMARK    1  A    between atoms: C_1  and  C_2
REMARK    2  A    between atoms: C_4  and  C_36
REMARK    3  A    between atoms: C_6  and  N_8
REMARK    4  A    between atoms: C_9  and  O_35
REMARK    5  A    between atoms: C_12  and  O_34
REMARK    6  A    between atoms: C_13  and  C_17
REMARK    7  A    between atoms: C_24  and  O_29
REMARK    8  A    between atoms: O_29  and  C_30
REMARK                            x       y       z     vdW  Elec       q    Type
REMARK                         _______ _______ _______ _____ _____    ______ ____
ROOT
ATOM      1  N   UNL     1       0.059  -2.619   2.400  0.00  0.00    -0.225 N 
ATOM      2  C   UNL     1       0.012  -4.066   2.252  0.00  0.00    +0.338 C 
ATOM      3  N   UNL     1      -0.418  -4.728   3.473  0.00  0.00    -0.204 NA
ATOM      4  C   UNL     1      -0.367  -4.197   4.633  0.00  0.00    +0.200 C 
ATOM      5  C   UNL     1       0.147  -2.807   4.871  0.00  0.00    +0.183 C 
ATOM      6  C   UNL     1       0.136  -2.017   3.594  0.00  0.00    +0.237 C 
ATOM      7  O   UNL     1       0.192  -0.806   3.645  0.00  0.00    -0.274 OA
ENDROOT
BRANCH   5   8
ATOM      8  C   UNL     1       1.582  -2.882   5.397  0.00  0.00    +0.122 C 
ATOM      9  C   UNL     1       2.066  -1.495   5.750  0.00  0.00    +0.039 A 
ATOM     10  H   UNL     1       0.471  -0.613   6.758  0.00  0.00    +0.166 HD
ATOM     11  C   UNL     1       3.298  -1.040   5.424  0.00  0.00    -0.016 A 
ATOM     12  C   UNL     1       3.398   0.315   5.920  0.00  0.00    +0.007 A 
ATOM     13  C   UNL     1       4.420   1.268   5.877  0.00  0.00    +0.056 A 
ATOM     14  C   UNL     1       4.157   2.494   6.471  0.00  0.00    +0.121 A 
ATOM     15  C   UNL     1       2.938   2.766   7.080  0.00  0.00    +0.047 A 
ATOM     16  C   UNL     1       1.916   1.835   7.132  0.00  0.00    +0.030 A 
ATOM     17  C   UNL     1       2.154   0.595   6.543  0.00  0.00    +0.047 A 
ATOM     18  N   UNL     1       1.376  -0.523   6.420  0.00  0.00    -0.356 N 
ATOM     19  C   UNL     1       4.320  -1.863   4.681  0.00  0.00    +0.052 C 
ATOM     20  C   UNL     1       3.878  -3.332   4.739  0.00  0.00    +0.086 C 
ATOM     21  N   UNL     1       2.462  -3.437   4.356  0.00  0.00    -0.307 NA
ATOM     22  H   UNL     1       2.212  -4.391   4.142  0.00  0.00    +0.123 HD
BRANCH  14  23
ATOM     23  O   UNL     1       5.118   3.456   6.456  0.00  0.00    -0.495 OA
ATOM     24  C   UNL     1       4.799   4.701   7.081  0.00  0.00    +0.277 C 
ENDBRANCH  14  23
ENDBRANCH   5   8
BRANCH   1  30
ATOM     25  C   UNL     1       2.466  -0.234  -1.163  0.00  0.00    +0.044 C 
ATOM     26  C   UNL     1       1.180  -0.654  -0.499  0.00  0.00    -0.048 A 
ATOM     27  C   UNL     1      -0.033  -0.254  -1.029  0.00  0.00    +0.006 A 
ATOM     28  C   UNL     1      -1.216  -0.637  -0.424  0.00  0.00    -0.048 A 
ATOM     29  C   UNL     1      -1.188  -1.422   0.713  0.00  0.00    +0.027 A 
ATOM     30  C   UNL     1       0.028  -1.825   1.248  0.00  0.00    +0.041 A 
ATOM     31  C   UNL     1       1.214  -1.443   0.634  0.00  0.00    +0.027 A 
ATOM     32  C   UNL     1      -2.535  -0.199  -1.004  0.00  0.00    +0.044 C 
ENDBRANCH   1  30
BRANCH   4  33
ATOM     33  O   UNL     1      -0.794  -4.917   5.691  0.00  0.00    -0.495 OA
ATOM     34  H   UNL     1      -1.111  -5.801   5.463  0.00  0.00    +0.293 HD
ENDBRANCH   4  33
BRANCH   2  35
ATOM     35  O   UNL     1       1.315  -4.540   1.904  0.00  0.00    -0.356 OA
ATOM     36  H   UNL     1       1.367  -5.498   1.788  0.00  0.00    +0.214 HD
ENDBRANCH   2  35
TORSDOF 5
