REMARK  Name = ZINC40033271
REMARK  5 active torsions:
REMARK  status: ('A' for Active; 'I' for Inactive)
REMARK    1  A    between atoms: C_1  and  C_2
REMARK    2  A    between atoms: C_2  and  C_31
REMARK    3  A    between atoms: N_14  and  C_25
REMARK    4  A    between atoms: N_17  and  N_18
REMARK    5  A    between atoms: C_19  and  C_20
REMARK                            x       y       z     vdW  Elec       q    Type
REMARK                         _______ _______ _______ _____ _____    ______ ____
ROOT
ATOM      1  C   UNL     1      -0.318   0.526  -0.571  0.00  0.00    +0.016 C 
ATOM      2  C   UNL     1      -0.353  -0.918  -0.067  0.00  0.00    +0.001 C 
ATOM      3  C   UNL     1      -1.797  -1.312   0.232  0.00  0.00    +0.047 C 
ATOM      4  C   UNL     1      -2.311  -0.567   1.435  0.00  0.00    -0.037 A 
ATOM      5  C   UNL     1      -3.628  -0.160   1.495  0.00  0.00    +0.004 A 
ATOM      6  C   UNL     1      -4.093   0.520   2.606  0.00  0.00    +0.000 A 
ATOM      7  C   UNL     1      -3.244   0.798   3.664  0.00  0.00    +0.001 A 
ATOM      8  C   UNL     1      -1.924   0.397   3.615  0.00  0.00    +0.010 A 
ATOM      9  C   UNL     1      -1.452  -0.287   2.498  0.00  0.00    +0.004 A 
ATOM     10  C   UNL     1      -0.039  -0.721   2.413  0.00  0.00    +0.084 A 
ATOM     11  C   UNL     1       0.493  -1.031   1.170  0.00  0.00    +0.049 A 
ATOM     12  C   UNL     1       1.827  -1.450   1.091  0.00  0.00    +0.264 A 
ATOM     13  O   UNL     1       2.329  -1.733   0.016  0.00  0.00    -0.267 OA
ATOM     14  N   UNL     1       2.547  -1.532   2.231  0.00  0.00    -0.248 N 
ATOM     15  C   UNL     1       1.977  -1.210   3.428  0.00  0.00    +0.223 A 
ATOM     16  N   UNL     1       0.722  -0.817   3.508  0.00  0.00    -0.214 NA
ATOM     17  N   UNL     1       2.726  -1.296   4.572  0.00  0.00    -0.206 N 
ATOM     18  C   UNL     1       0.208  -1.843  -1.149  0.00  0.00    +0.016 C 
ATOM     19  H   UNL     1       3.667  -1.527   4.519  0.00  0.00    +0.177 HD
ENDROOT
BRANCH  14  20
ATOM     20  C   UNL     1       3.882  -1.952   2.184  0.00  0.00    +0.053 A 
ATOM     21  C   UNL     1       4.193  -3.299   2.308  0.00  0.00    +0.026 A 
ATOM     22  C   UNL     1       5.511  -3.709   2.262  0.00  0.00    +0.002 A 
ATOM     23  C   UNL     1       6.521  -2.780   2.093  0.00  0.00    +0.000 A 
ATOM     24  C   UNL     1       6.214  -1.437   1.969  0.00  0.00    +0.002 A 
ATOM     25  C   UNL     1       4.898  -1.021   2.008  0.00  0.00    +0.026 A 
ENDBRANCH  14  20
BRANCH  17  26
ATOM     26  N   UNL     1       2.133  -1.053   5.818  0.00  0.00    -0.187 NA
ATOM     27  C   UNL     1       2.845  -1.135   6.904  0.00  0.00    +0.145 C 
BRANCH  27  28
ATOM     28  C   UNL     1       2.224  -0.880   8.208  0.00  0.00    +0.032 A 
ATOM     29  C   UNL     1       2.797  -0.909   9.467  0.00  0.00    +0.017 A 
ATOM     30  C   UNL     1       2.001  -0.630  10.554  0.00  0.00    +0.008 A 
ATOM     31  C   UNL     1       0.689  -0.337  10.359  0.00  0.00    +0.046 A 
ATOM     32  S   UNL     1       0.534  -0.443   8.584  0.00  0.00    -0.096 S 
ENDBRANCH  27  28
ENDBRANCH  17  26
TORSDOF 3
