REMARK  Name = ZINC44167370
REMARK  7 active torsions:
REMARK  status: ('A' for Active; 'I' for Inactive)
REMARK    1  A    between atoms: C_1  and  O_2
REMARK    2  A    between atoms: O_2  and  C_3
REMARK    3  A    between atoms: C_8  and  C_9
REMARK    4  A    between atoms: C_14  and  C_17
REMARK    5  A    between atoms: N_19  and  C_20
REMARK    6  A    between atoms: C_20  and  C_21
REMARK    7  A    between atoms: C_21  and  C_22
REMARK                            x       y       z     vdW  Elec       q    Type
REMARK                         _______ _______ _______ _____ _____    ______ ____
ROOT
ATOM      1  C   UNL     1       0.018  -2.829  -0.013  0.00  0.00    -0.026 C 
ATOM      2  C   UNL     1       0.531  -2.999   1.422  0.00  0.00    +0.058 C 
ATOM      3  S   UNL     1       2.103  -3.916   1.361  0.00  0.00    -0.163 S 
ATOM      4  C   UNL     1       1.691  -5.343   0.308  0.00  0.00    +0.062 C 
ATOM      5  C   UNL     1       1.004  -4.822  -0.960  0.00  0.00    +0.027 C 
ATOM      6  N   UNL     1      -0.244  -4.142  -0.605  0.00  0.00    +0.392 N 
ATOM      7  H   UNL     1      -0.753  -4.708   0.058  0.00  0.00    -0.084 HD
ATOM      8  H   UNL     1      -0.804  -4.025  -1.436  0.00  0.00    -0.084 HD
ENDROOT
BRANCH   1  14
ATOM      9  C   UNL     1      -1.200  -0.637   0.010  0.00  0.00    +0.122 A 
ATOM     10  C   UNL     1      -2.375   0.101   0.019  0.00  0.00    +0.046 A 
ATOM     11  C   UNL     1      -3.596  -0.545   0.027  0.00  0.00    +0.004 A 
ATOM     12  C   UNL     1      -3.648  -1.927   0.026  0.00  0.00    +0.000 A 
ATOM     13  C   UNL     1      -2.479  -2.665   0.017  0.00  0.00    +0.005 A 
ATOM     14  C   UNL     1      -1.255  -2.023   0.003  0.00  0.00    -0.019 A 
BRANCH   9  16
ATOM     15  C   UNL     1      -0.017   1.425   0.010  0.00  0.00    +0.277 C 
ATOM     16  O   UNL     1       0.002  -0.004   0.002  0.00  0.00    -0.495 OA
ENDBRANCH   9  16
ENDBRANCH   1  14
BRANCH   5  17
ATOM     17  C   UNL     1       0.699  -5.979  -1.875  0.00  0.00    +0.200 C 
ATOM     18  O   UNL     1      -0.447  -6.215  -2.194  0.00  0.00    -0.278 OA
ATOM     19  N   UNL     1       1.700  -6.753  -2.340  0.00  0.00    -0.316 N 
ATOM     20  H   UNL     1       2.617  -6.564  -2.085  0.00  0.00    +0.149 HD
BRANCH  19  21
ATOM     21  C   UNL     1       1.404  -7.878  -3.230  0.00  0.00    +0.109 C 
BRANCH  21  22
ATOM     22  C   UNL     1       2.707  -8.585  -3.609  0.00  0.00    +0.055 C 
BRANCH  22  23
ATOM     23  C   UNL     1       2.402  -9.743  -4.524  0.00  0.00    -0.027 A 
ATOM     24  C   UNL     1       2.243 -11.013  -4.003  0.00  0.00    +0.006 A 
ATOM     25  C   UNL     1       1.964 -12.075  -4.842  0.00  0.00    +0.020 A 
ATOM     26  C   UNL     1       1.843 -11.867  -6.205  0.00  0.00    +0.042 A 
ATOM     27  C   UNL     1       2.001 -10.597  -6.727  0.00  0.00    +0.040 A 
ATOM     28  C   UNL     1       2.276  -9.533  -5.886  0.00  0.00    +0.046 A 
ATOM     29 CL   UNL     1       2.469  -7.937  -6.540  0.00  0.00    -0.083 Cl
ATOM     30 CL   UNL     1       1.492 -13.202  -7.258  0.00  0.00    -0.083 Cl
ENDBRANCH  22  23
ENDBRANCH  21  22
ENDBRANCH  19  21
ENDBRANCH   5  17
TORSDOF 6
