REMARK  Name = ZINC33087256
REMARK  9 active torsions:
REMARK  status: ('A' for Active; 'I' for Inactive)
REMARK    1  A    between atoms: C_1  and  O_2
REMARK    2  A    between atoms: O_2  and  C_3
REMARK    3  A    between atoms: C_6  and  C_9
REMARK    4  A    between atoms: N_16  and  C_17
REMARK    5  A    between atoms: C_17  and  C_18
REMARK    6  A    between atoms: C_22  and  O_26
REMARK    7  A    between atoms: C_23  and  O_24
REMARK    8  A    between atoms: O_24  and  C_25
REMARK    9  A    between atoms: O_26  and  C_27
REMARK                            x       y       z     vdW  Elec       q    Type
REMARK                         _______ _______ _______ _____ _____    ______ ____
ROOT
ATOM      1  C   UNL     1       2.334   4.037   0.111  0.00  0.00    -0.037 C 
ATOM      2  C   UNL     1       2.632   4.736   1.450  0.00  0.00    -0.011 C 
ATOM      3  C   UNL     1       4.059   4.948   1.668  0.00  0.00    -0.001 C 
ATOM      4  C   UNL     1       4.673   5.859   0.582  0.00  0.00    -0.002 C 
ATOM      5  C   UNL     1       4.870   5.053  -0.675  0.00  0.00    -0.019 C 
ATOM      6  C   UNL     1       3.665   5.127  -1.629  0.00  0.00    -0.078 C 
ATOM      7  N   UNL     1       2.361   5.030  -0.935  0.00  0.00    +0.387 N 
ATOM      8  H   UNL     1       2.203   5.986  -0.414  0.00  0.00    -0.080 HD
ENDROOT
BRANCH   1  12
ATOM      9  C   UNL     1      -1.527   2.212   0.270  0.00  0.00    +0.120 A 
ATOM     10  C   UNL     1      -1.375   3.549   0.609  0.00  0.00    +0.046 A 
ATOM     11  C   UNL     1      -0.126   4.136   0.559  0.00  0.00    +0.005 A 
ATOM     12  C   UNL     1       0.972   3.394   0.165  0.00  0.00    -0.061 A 
ATOM     13  C   UNL     1       0.823   2.063  -0.179  0.00  0.00    +0.005 A 
ATOM     14  C   UNL     1      -0.424   1.472  -0.130  0.00  0.00    +0.046 A 
BRANCH   9  16
ATOM     15  C   UNL     1      -2.835   0.252  -0.040  0.00  0.00    +0.277 C 
ATOM     16  O   UNL     1      -2.754   1.631   0.324  0.00  0.00    -0.495 OA
ENDBRANCH   9  16
ENDBRANCH   1  12
BRANCH   7  17
ATOM     17  C   UNL     1       1.269   4.815  -1.894  0.00  0.00    -0.038 C 
BRANCH  17  18
ATOM     18  C   UNL     1       1.127   6.031  -2.774  0.00  0.00    -0.019 A 
ATOM     19  C   UNL     1       0.135   6.959  -2.515  0.00  0.00    +0.005 A 
ATOM     20  C   UNL     1       0.005   8.077  -3.317  0.00  0.00    +0.004 A 
ATOM     21  C   UNL     1       0.858   8.267  -4.388  0.00  0.00    +0.049 A 
ATOM     22  C   UNL     1       1.850   7.338  -4.656  0.00  0.00    +0.162 A 
ATOM     23  C   UNL     1       1.985   6.215  -3.845  0.00  0.00    +0.163 A 
BRANCH  23  24
ATOM     24  O   UNL     1       2.957   5.299  -4.105  0.00  0.00    -0.491 OA
ATOM     25  C   UNL     1       2.617   4.223  -4.982  0.00  0.00    +0.277 C 
ENDBRANCH  23  24
BRANCH  22  26
ATOM     26  O   UNL     1       2.691   7.523  -5.709  0.00  0.00    -0.491 OA
ATOM     27  C   UNL     1       2.493   8.698  -6.498  0.00  0.00    +0.277 C 
ENDBRANCH  22  26
ENDBRANCH  17  18
ENDBRANCH   7  17
TORSDOF 6
