REMARK  Name = ZINC19933000
REMARK  8 active torsions:
REMARK  status: ('A' for Active; 'I' for Inactive)
REMARK    1  A    between atoms: C_1  and  C_2
REMARK    2  A    between atoms: C_5  and  C_9
REMARK    3  A    between atoms: C_6  and  C_8
REMARK    4  A    between atoms: C_9  and  C_11
REMARK    5  A    between atoms: C_9  and  N_12
REMARK    6  A    between atoms: C_13  and  C_15
REMARK    7  A    between atoms: C_15  and  O_16
REMARK    8  A    between atoms: O_16  and  C_17
REMARK                            x       y       z     vdW  Elec       q    Type
REMARK                         _______ _______ _______ _____ _____    ______ ____
ROOT
ATOM      1  N   UNL     1      -0.525  -4.764  -1.273  0.00  0.00    -0.306 N 
ATOM      2  C   UNL     1      -1.165  -5.950  -1.299  0.00  0.00    +0.251 C 
ATOM      3  O   UNL     1      -1.257  -6.612  -0.288  0.00  0.00    -0.272 OA
ATOM      4  H   UNL     1      -0.451  -4.235  -2.082  0.00  0.00    +0.149 HD
ENDROOT
BRANCH   1   5
ATOM      5  C   UNL     1       0.059  -4.275  -0.021  0.00  0.00    +0.100 C 
ATOM      6  C   UNL     1       1.498  -4.782   0.102  0.00  0.00    +0.033 C 
BRANCH   5  11
ATOM      7  C   UNL     1       0.041   1.503  -0.018  0.00  0.00    +0.044 C 
ATOM      8  C   UNL     1       0.046  -0.004  -0.019  0.00  0.00    -0.050 A 
ATOM      9  C   UNL     1       0.085  -0.694  -1.216  0.00  0.00    +0.004 A 
ATOM     10  C   UNL     1       0.089  -2.076  -1.217  0.00  0.00    +0.006 A 
ATOM     11  C   UNL     1       0.056  -2.768  -0.021  0.00  0.00    -0.025 A 
ATOM     12  C   UNL     1       0.018  -2.078   1.176  0.00  0.00    -0.045 A 
ATOM     13  C   UNL     1       0.018  -0.696   1.177  0.00  0.00    +0.007 A 
ATOM     14  C   UNL     1      -0.018  -2.833   2.480  0.00  0.00    +0.044 C 
ENDBRANCH   5  11
ENDBRANCH   1   5
BRANCH   2  15
ATOM     15  C   UNL     1      -1.766  -6.453  -2.587  0.00  0.00    +0.324 C 
BRANCH  15  16
ATOM     16  O   UNL     1      -2.384  -7.721  -2.360  0.00  0.00    -0.481 OA
BRANCH  16  17
ATOM     17  C   UNL     1      -2.978  -8.318  -3.427  0.00  0.00    +0.140 A 
ATOM     18  C   UNL     1      -2.961  -7.698  -4.668  0.00  0.00    +0.048 A 
ATOM     19  C   UNL     1      -3.566  -8.306  -5.751  0.00  0.00    +0.023 A 
ATOM     20  C   UNL     1      -4.188  -9.532  -5.600  0.00  0.00    +0.043 A 
ATOM     21  C   UNL     1      -4.207 -10.153  -4.364  0.00  0.00    +0.043 A 
ATOM     22  C   UNL     1      -3.598  -9.551  -3.278  0.00  0.00    +0.084 A 
ATOM     23 CL   UNL     1      -3.615 -10.333  -1.729  0.00  0.00    -0.080 Cl
ATOM     24 CL   UNL     1      -4.947 -10.293  -6.964  0.00  0.00    -0.083 Cl
ENDBRANCH  16  17
ENDBRANCH  15  16
ENDBRANCH   2  15
TORSDOF 5
