REMARK  Name = ZINC50312889
REMARK  5 active torsions:
REMARK  status: ('A' for Active; 'I' for Inactive)
REMARK    1  A    between atoms: C_3  and  N_25
REMARK    2  A    between atoms: C_6  and  C_7
REMARK    3  A    between atoms: C_9  and  C_12
REMARK    4  A    between atoms: N_14  and  C_15
REMARK    5  A    between atoms: C_19  and  C_21
REMARK                            x       y       z     vdW  Elec       q    Type
REMARK                         _______ _______ _______ _____ _____    ______ ____
ROOT
ATOM      1  C   UNL     1      -2.959  -3.980   0.021  0.00  0.00    +0.267 C 
ATOM      2  O   UNL     1      -4.103  -4.393   0.037  0.00  0.00    -0.268 OA
ATOM      3  N   UNL     1      -1.929  -4.850   0.011  0.00  0.00    -0.280 N 
ATOM      4  H   UNL     1      -1.019  -4.524  -0.069  0.00  0.00    +0.155 HD
ENDROOT
BRANCH   3   5
ATOM      5  C   UNL     1      -2.173  -6.224   0.117  0.00  0.00    +0.035 A 
ATOM      6  C   UNL     1      -3.304  -6.777  -0.473  0.00  0.00    +0.026 A 
ATOM      7  C   UNL     1      -3.551  -8.132  -0.373  0.00  0.00    +0.041 A 
ATOM      8  C   UNL     1      -2.673  -8.950   0.316  0.00  0.00    +0.136 A 
ATOM      9  C   UNL     1      -1.533  -8.403   0.913  0.00  0.00    +0.073 A 
ATOM     10  C   UNL     1      -1.284  -7.034   0.805  0.00  0.00    +0.039 A 
ATOM     11  F   UNL     1      -2.918 -10.275   0.413  0.00  0.00    -0.205 F 
BRANCH   9  12
ATOM     12  C   UNL     1      -0.593  -9.272   1.650  0.00  0.00    +0.244 C 
ATOM     13  O   UNL     1      -0.810 -10.465   1.739  0.00  0.00    -0.270 OA
ATOM     14  N   UNL     1       0.505  -8.742   2.225  0.00  0.00    -0.325 N 
ATOM     15  H   UNL     1       0.678  -7.790   2.154  0.00  0.00    +0.145 HD
ATOM     16  H   UNL     1       1.122  -9.313   2.709  0.00  0.00    +0.145 HD
ENDBRANCH   9  12
ENDBRANCH   3   5
BRANCH   1  19
ATOM     17  C   UNL     1      -1.267  -0.764  -0.013  0.00  0.00    +0.109 A 
ATOM     18  N   UNL     1      -1.455  -2.071  -0.005  0.00  0.00    -0.234 NA
ATOM     19  C   UNL     1      -2.698  -2.531   0.013  0.00  0.00    +0.133 A 
ATOM     20  C   UNL     1      -3.738  -1.638   0.023  0.00  0.00    +0.080 A 
ATOM     21  S   UNL     1      -2.943  -0.154   0.015  0.00  0.00    -0.075 S 
BRANCH  17  27
ATOM     22  C   UNL     1      -0.017   1.391  -0.031  0.00  0.00    +0.013 A 
ATOM     23  C   UNL     1       1.171   2.094  -0.049  0.00  0.00    +0.033 A 
ATOM     24  C   UNL     1       2.378   1.418  -0.068  0.00  0.00    +0.126 A 
ATOM     25  C   UNL     1       2.403   0.035  -0.070  0.00  0.00    +0.033 A 
ATOM     26  C   UNL     1       1.223  -0.680  -0.051  0.00  0.00    +0.013 A 
ATOM     27  C   UNL     1       0.002  -0.004  -0.032  0.00  0.00    +0.007 A 
BRANCH  24  28
ATOM     28  N   UNL     1       3.648   2.179  -0.088  0.00  0.00    +0.056 N 
ATOM     29  O   UNL     1       3.628   3.387  -0.088  0.00  0.00    -0.126 OA
ATOM     30  O   UNL     1       4.704   1.591  -0.105  0.00  0.00    -0.126 OA
ENDBRANCH  24  28
ENDBRANCH  17  27
ENDBRANCH   1  19
TORSDOF 5
