REMARK  Name = ZINC58646370
REMARK  8 active torsions:
REMARK  status: ('A' for Active; 'I' for Inactive)
REMARK    1  A    between atoms: C_1  and  C_2
REMARK    2  A    between atoms: C_4  and  C_23
REMARK    3  A    between atoms: C_7  and  O_8
REMARK    4  A    between atoms: O_8  and  S_9
REMARK    5  A    between atoms: S_9  and  C_12
REMARK    6  A    between atoms: C_23  and  C_24
REMARK    7  A    between atoms: C_23  and  C_25
REMARK    8  A    between atoms: C_23  and  C_26
REMARK                            x       y       z     vdW  Elec       q    Type
REMARK                         _______ _______ _______ _____ _____    ______ ____
ROOT
ATOM      1  S   UNL     1      -1.364   0.254   2.932  0.00  0.00    +0.151 S 
ATOM      2  O   UNL     1      -1.188   1.128   4.039  0.00  0.00    -0.131 OA
ATOM      3  O   UNL     1      -2.181   0.589   1.819  0.00  0.00    -0.131 OA
ENDROOT
BRANCH   1   4
ATOM      4  C   UNL     1      -1.990  -1.260   3.580  0.00  0.00    +0.129 A 
ATOM      5  C   UNL     1      -2.711  -2.115   2.758  0.00  0.00    +0.034 A 
ATOM      6  C   UNL     1      -3.210  -3.304   3.245  0.00  0.00    +0.049 A 
ATOM      7  C   UNL     1      -2.991  -3.654   4.571  0.00  0.00    +0.139 A 
ATOM      8  C   UNL     1      -2.260  -2.785   5.401  0.00  0.00    +0.020 A 
ATOM      9  C   UNL     1      -1.759  -1.586   4.887  0.00  0.00    +0.042 A 
ATOM     10  C   UNL     1      -2.034  -3.162   6.800  0.00  0.00    +0.018 A 
ATOM     11  C   UNL     1      -2.543  -4.342   7.236  0.00  0.00    +0.092 A 
ATOM     12  C   UNL     1      -3.267  -5.165   6.347  0.00  0.00    +0.337 A 
ATOM     13  O   UNL     1      -3.719  -6.222   6.751  0.00  0.00    -0.245 OA
ATOM     14  O   UNL     1      -3.471  -4.814   5.068  0.00  0.00    -0.422 OA
ENDBRANCH   1   4
BRANCH   1  15
ATOM     15  O   UNL     1       0.025  -0.033   2.381  0.00  0.00    -0.342 OA
BRANCH  15  22
ATOM     16  C   UNL     1      -0.018   1.503   0.010  0.00  0.00    +0.047 C 
ATOM     17  C   UNL     1       0.002  -0.004   0.002  0.00  0.00    -0.006 A 
ATOM     18  C   UNL     1       0.006  -0.689  -1.198  0.00  0.00    +0.011 A 
ATOM     19  C   UNL     1       0.024  -2.071  -1.206  0.00  0.00    -0.042 A 
ATOM     20  C   UNL     1       0.039  -2.772  -0.014  0.00  0.00    +0.008 A 
ATOM     21  C   UNL     1       0.036  -2.092   1.188  0.00  0.00    +0.049 A 
ATOM     22  C   UNL     1       0.023  -0.705   1.199  0.00  0.00    +0.160 A 
BRANCH  19  23
ATOM     23  C   UNL     1       0.027  -2.816  -2.517  0.00  0.00    -0.013 C 
ATOM     24  C   UNL     1       1.267  -2.424  -3.323  0.00  0.00    +0.015 C 
ATOM     25  C   UNL     1       0.048  -4.322  -2.247  0.00  0.00    +0.015 C 
ATOM     26  C   UNL     1      -1.231  -2.457  -3.310  0.00  0.00    +0.015 C 
ENDBRANCH  19  23
ENDBRANCH  15  22
ENDBRANCH   1  15
TORSDOF 4
