REMARK  Name = ZINC09311571
REMARK  7 active torsions:
REMARK  status: ('A' for Active; 'I' for Inactive)
REMARK    1  A    between atoms: C_1  and  C_2
REMARK    2  A    between atoms: C_2  and  O_3
REMARK    3  A    between atoms: O_3  and  C_4
REMARK    4  A    between atoms: C_7  and  N_10
REMARK    5  A    between atoms: C_16  and  C_17
REMARK    6  A    between atoms: C_20  and  C_22
REMARK    7  A    between atoms: C_25  and  C_29
REMARK                            x       y       z     vdW  Elec       q    Type
REMARK                         _______ _______ _______ _____ _____    ______ ____
ROOT
ATOM      1  N   UNL     1      -2.184   4.065  -0.185  0.00  0.00    -0.226 NA
ATOM      2  C   UNL     1      -1.154   3.256  -0.099  0.00  0.00    +0.166 C 
ATOM      3  N   UNL     1      -1.147   1.900   0.150  0.00  0.00    -0.260 N 
ATOM      4  C   UNL     1      -0.007   1.232   0.209  0.00  0.00    +0.257 C 
ATOM      5  O   UNL     1       0.018   0.035   0.433  0.00  0.00    -0.269 OA
ATOM      6  C   UNL     1       1.231   1.998  -0.013  0.00  0.00    +0.081 C 
ATOM      7  C   UNL     1       2.526   1.570  -0.014  0.00  0.00    +0.066 C 
ATOM      8  S   UNL     1       0.580   3.641  -0.281  0.00  0.00    -0.049 S 
ATOM      9  H   UNL     1      -1.986   1.432   0.286  0.00  0.00    +0.157 HD
ENDROOT
BRANCH   1  13
ATOM     10  C   UNL     1      -6.021   2.597   0.333  0.00  0.00    +0.121 A 
ATOM     11  C   UNL     1      -5.643   3.779   0.955  0.00  0.00    +0.048 A 
ATOM     12  C   UNL     1      -4.366   4.271   0.785  0.00  0.00    +0.031 A 
ATOM     13  C   UNL     1      -3.453   3.579  -0.014  0.00  0.00    +0.067 A 
ATOM     14  C   UNL     1      -3.840   2.393  -0.642  0.00  0.00    +0.031 A 
ATOM     15  C   UNL     1      -5.117   1.905  -0.462  0.00  0.00    +0.048 A 
BRANCH  10  16
ATOM     16  O   UNL     1      -7.282   2.115   0.502  0.00  0.00    -0.492 OA
BRANCH  16  18
ATOM     17  C   UNL     1      -9.054   0.513   0.141  0.00  0.00    +0.048 C 
ATOM     18  C   UNL     1      -7.605   0.894  -0.166  0.00  0.00    +0.225 C 
ENDBRANCH  16  18
ENDBRANCH  10  16
ENDBRANCH   1  13
BRANCH   7  19
ATOM     19  C   UNL     1       2.813   0.190   0.082  0.00  0.00    +0.130 A 
ATOM     20  C   UNL     1       4.074  -0.371   0.176  0.00  0.00    +0.050 A 
ATOM     21  C   UNL     1       3.896  -1.755   0.250  0.00  0.00    +0.050 A 
ATOM     22  C   UNL     1       2.541  -1.990   0.198  0.00  0.00    +0.136 A 
ATOM     23  O   UNL     1       1.905  -0.807   0.103  0.00  0.00    -0.455 OA
BRANCH  22  24
ATOM     24  C   UNL     1       1.894  -3.313   0.246  0.00  0.00    +0.019 A 
ATOM     25  C   UNL     1       2.675  -4.470   0.346  0.00  0.00    +0.012 A 
ATOM     26  C   UNL     1       2.079  -5.697   0.396  0.00  0.00    +0.017 A 
ATOM     27  C   UNL     1       0.686  -5.804   0.335  0.00  0.00    +0.081 A 
ATOM     28  C   UNL     1      -0.101  -4.651   0.228  0.00  0.00    +0.056 A 
ATOM     29  C   UNL     1       0.500  -3.413   0.184  0.00  0.00    +0.032 A 
ATOM     30 CL   UNL     1      -1.830  -4.782   0.153  0.00  0.00    -0.083 Cl
BRANCH  27  31
ATOM     31  C   UNL     1       0.046  -7.132   0.382  0.00  0.00    +0.388 C 
ATOM     32  O   UNL     1      -1.164  -7.225   0.328  0.00  0.00    -0.241 OA
ATOM     33  O   UNL     1       0.804  -8.242   0.484  0.00  0.00    -0.241 OA
ENDBRANCH  27  31
ENDBRANCH  22  24
ENDBRANCH   7  19
TORSDOF 6
