REMARK  Name = ZINC67507421
REMARK  7 active torsions:
REMARK  status: ('A' for Active; 'I' for Inactive)
REMARK    1  A    between atoms: C_1  and  C_2
REMARK    2  A    between atoms: N_5  and  C_8
REMARK    3  A    between atoms: C_8  and  C_10
REMARK    4  A    between atoms: C_8  and  C_11
REMARK    5  A    between atoms: C_11  and  N_12
REMARK    6  A    between atoms: N_15  and  C_16
REMARK    7  A    between atoms: C_16  and  C_17
REMARK                            x       y       z     vdW  Elec       q    Type
REMARK                         _______ _______ _______ _____ _____    ______ ____
ROOT
ATOM      1  N   UNL     1       1.651  -3.736  -2.468  0.00  0.00    -0.301 N 
ATOM      2  C   UNL     1       1.989  -4.060  -3.732  0.00  0.00    +0.300 C 
ATOM      3  O   UNL     1       2.881  -4.860  -3.937  0.00  0.00    -0.253 OA
ATOM      4  N   UNL     1       1.338  -3.496  -4.769  0.00  0.00    -0.296 N 
ATOM      5  H   UNL     1       0.939  -3.098  -2.305  0.00  0.00    +0.150 HD
ATOM      6  H   UNL     1       0.626  -2.857  -4.606  0.00  0.00    +0.150 HD
ENDROOT
BRANCH   1   7
ATOM      7  C   UNL     1       2.358  -4.349  -1.341  0.00  0.00    +0.090 C 
BRANCH   7   8
ATOM      8  C   UNL     1       1.709  -3.904  -0.029  0.00  0.00    -0.054 C 
ATOM      9  C   UNL     1       2.499  -4.475   1.150  0.00  0.00    -0.012 C 
BRANCH   8  14
ATOM     10  C   UNL     1       2.260   1.619   1.282  0.00  0.00    +0.007 C 
ATOM     11  C   UNL     1       2.320   0.091   1.323  0.00  0.00    -0.018 C 
ATOM     12  C   UNL     1       0.899  -0.479   1.276  0.00  0.00    -0.016 C 
ATOM     13  C   UNL     1       0.970  -2.007   1.237  0.00  0.00    -0.078 C 
ATOM     14  N   UNL     1       1.711  -2.437   0.045  0.00  0.00    +0.382 N 
ATOM     15  C   UNL     1       3.095  -1.954   0.119  0.00  0.00    -0.078 C 
ATOM     16  C   UNL     1       3.107  -0.424   0.114  0.00  0.00    -0.016 C 
ATOM     17  H   UNL     1       1.268  -2.060  -0.779  0.00  0.00    -0.081 HD
ENDBRANCH   8  14
ENDBRANCH   7   8
ENDBRANCH   1   7
BRANCH   4  18
ATOM     18  C   UNL     1       1.705  -3.848  -6.143  0.00  0.00    +0.153 C 
BRANCH  18  19
ATOM     19  C   UNL     1       0.820  -3.073  -7.122  0.00  0.00    +0.228 C 
ATOM     20  C   UNL     1       1.191  -3.449  -8.563  0.00  0.00    +0.275 C 
ATOM     21  O   UNL     1       0.337  -2.719  -9.450  0.00  0.00    -0.485 OA
ATOM     22  C   UNL     1      -0.991  -2.706  -9.148  0.00  0.00    +0.162 A 
ATOM     23  C   UNL     1      -1.907  -2.344 -10.124  0.00  0.00    +0.049 A 
ATOM     24  C   UNL     1      -3.258  -2.324  -9.832  0.00  0.00    +0.004 A 
ATOM     25  C   UNL     1      -3.699  -2.664  -8.567  0.00  0.00    +0.004 A 
ATOM     26  C   UNL     1      -2.791  -3.026  -7.590  0.00  0.00    +0.049 A 
ATOM     27  C   UNL     1      -1.434  -3.050  -7.877  0.00  0.00    +0.163 A 
ATOM     28  O   UNL     1      -0.553  -3.417  -6.907  0.00  0.00    -0.480 OA
ENDBRANCH  18  19
ENDBRANCH   4  18
TORSDOF 5
