REMARK  Name = ZINC00888491
REMARK  3 active torsions:
REMARK  status: ('A' for Active; 'I' for Inactive)
REMARK    1  A    between atoms: C_11  and  C_13
REMARK    2  A    between atoms: C_13  and  S_14
REMARK    3  A    between atoms: S_14  and  C_15
REMARK                            x       y       z     vdW  Elec       q    Type
REMARK                         _______ _______ _______ _____ _____    ______ ____
ROOT
ATOM      1  S   UNL     1       5.067   4.373  -1.137  0.00  0.00    -0.096 S 
ENDROOT
BRANCH   1   2
ATOM      2  C   UNL     1       4.669   6.040  -1.547  0.00  0.00    +0.109 A 
ATOM      3  C   UNL     1       5.686   6.941  -1.971  0.00  0.00    +0.043 A 
ATOM      4  C   UNL     1       7.119   6.695  -2.134  0.00  0.00    -0.025 A 
ATOM      5  C   UNL     1       7.874   7.731  -2.554  0.00  0.00    -0.004 A 
ATOM      6  S   UNL     1       6.740   9.079  -2.754  0.00  0.00    -0.073 S 
ATOM      7  C   UNL     1       5.249   8.247  -2.272  0.00  0.00    +0.113 A 
ATOM      8  N   UNL     1       3.981   8.593  -2.163  0.00  0.00    -0.228 NA
ATOM      9  C   UNL     1       3.083   7.713  -1.765  0.00  0.00    +0.223 A 
ATOM     10  N   UNL     1       3.419   6.470  -1.471  0.00  0.00    -0.229 NA
ATOM     11  C   UNL     1       9.353   7.737  -2.796  0.00  0.00    +0.043 C 
ATOM     12  C   UNL     1       9.957   6.486  -2.141  0.00  0.00    +0.005 C 
ATOM     13  C   UNL     1       9.115   5.270  -2.538  0.00  0.00    +0.005 C 
ATOM     14  C   UNL     1       7.751   5.335  -1.849  0.00  0.00    +0.037 C 
ENDBRANCH   1   2
BRANCH   1  15
ATOM     15  C   UNL     1       3.424   3.758  -0.692  0.00  0.00    +0.172 C 
BRANCH  15  26
ATOM     16  C   UNL     1       2.646  -2.492   0.696  0.00  0.00    +0.000 A 
ATOM     17  C   UNL     1       3.726  -1.816   0.156  0.00  0.00    +0.002 A 
ATOM     18  C   UNL     1       3.639  -0.460  -0.084  0.00  0.00    +0.024 A 
ATOM     19  C   UNL     1       2.468   0.227   0.217  0.00  0.00    +0.039 A 
ATOM     20  C   UNL     1       1.386  -0.451   0.755  0.00  0.00    -0.026 A 
ATOM     21  C   UNL     1       1.479  -1.813   0.989  0.00  0.00    +0.005 A 
ATOM     22  C   UNL     1       0.100   0.259   1.089  0.00  0.00    +0.038 C 
ATOM     23  C   UNL     1       0.341   1.760   1.242  0.00  0.00    +0.024 C 
ATOM     24  C   UNL     1       1.093   2.271   0.006  0.00  0.00    +0.114 C 
ATOM     25  N   UNL     1       2.402   1.605  -0.030  0.00  0.00    -0.270 N 
ATOM     26  C   UNL     1       3.522   2.308  -0.295  0.00  0.00    +0.230 C 
ATOM     27  O   UNL     1       4.607   1.773  -0.213  0.00  0.00    -0.274 OA
ENDBRANCH  15  26
ENDBRANCH   1  15
TORSDOF 3
