REMARK  Name = ZINC14100726
REMARK  3 active torsions:
REMARK  status: ('A' for Active; 'I' for Inactive)
REMARK    1  A    between atoms: C_1  and  C_2
REMARK    2  A    between atoms: N_12  and  S_13
REMARK    3  A    between atoms: S_13  and  C_16
REMARK                            x       y       z     vdW  Elec       q    Type
REMARK                         _______ _______ _______ _____ _____    ______ ____
ROOT
ATOM      1  S   UNL     1       3.454   4.259   2.609  0.00  0.00    +0.075 S 
ATOM      2  O   UNL     1       4.541   4.051   1.717  0.00  0.00    -0.150 OA
ATOM      3  O   UNL     1       2.291   3.442   2.595  0.00  0.00    -0.150 OA
ENDROOT
BRANCH   1  14
ATOM      4  C   UNL     1       0.710   4.974   2.953  0.00  0.00    +0.030 C 
ATOM      5  C   UNL     1       1.578   6.217   2.748  0.00  0.00    +0.095 C 
ATOM      6  C   UNL     1       1.010   7.065   1.603  0.00  0.00    +0.029 C 
ATOM      7  C   UNL     1       1.850   8.334   1.464  0.00  0.00    +0.039 C 
ATOM      8  C   UNL     1       3.313   7.989   1.372  0.00  0.00    -0.025 A 
ATOM      9  C   UNL     1       4.187   8.914   0.824  0.00  0.00    +0.005 A 
ATOM     10  C   UNL     1       5.535   8.629   0.729  0.00  0.00    +0.000 A 
ATOM     11  C   UNL     1       6.022   7.415   1.181  0.00  0.00    +0.002 A 
ATOM     12  C   UNL     1       5.158   6.487   1.727  0.00  0.00    +0.025 A 
ATOM     13  C   UNL     1       3.802   6.774   1.828  0.00  0.00    +0.055 A 
ATOM     14  N   UNL     1       2.942   5.816   2.377  0.00  0.00    -0.200 N 
ENDBRANCH   1  14
BRANCH   1  15
ATOM     15  C   UNL     1       4.115   4.165   4.239  0.00  0.00    +0.112 A 
ATOM     16  C   UNL     1       3.291   3.836   5.299  0.00  0.00    +0.032 A 
ATOM     17  C   UNL     1       3.803   3.760   6.582  0.00  0.00    +0.051 A 
ATOM     18  C   UNL     1       5.146   4.015   6.801  0.00  0.00    +0.162 A 
ATOM     19  C   UNL     1       5.973   4.347   5.738  0.00  0.00    +0.164 A 
ATOM     20  C   UNL     1       5.457   4.422   4.455  0.00  0.00    +0.078 A 
ATOM     21  O   UNL     1       7.295   4.598   5.964  0.00  0.00    -0.488 OA
ATOM     22  C   UNL     1       8.084   3.476   6.364  0.00  0.00    +0.232 C 
ATOM     23  C   UNL     1       7.984   3.253   7.865  0.00  0.00    +0.082 C 
ATOM     24  C   UNL     1       6.578   2.871   8.301  0.00  0.00    +0.232 C 
ATOM     25  O   UNL     1       5.664   3.943   8.062  0.00  0.00    -0.488 OA
ENDBRANCH   1  15
TORSDOF 2
