REMARK  Name = ZINC36760998
REMARK  7 active torsions:
REMARK  status: ('A' for Active; 'I' for Inactive)
REMARK    1  A    between atoms: C_1  and  C_2
REMARK    2  A    between atoms: C_2  and  C_3
REMARK    3  A    between atoms: C_3  and  C_5
REMARK    4  A    between atoms: C_3  and  N_15
REMARK    5  A    between atoms: C_16  and  C_18
REMARK    6  A    between atoms: C_18  and  C_19
REMARK    7  A    between atoms: C_19  and  N_20
REMARK                            x       y       z     vdW  Elec       q    Type
REMARK                         _______ _______ _______ _____ _____    ______ ____
ROOT
ATOM      1  N   UNL     1       2.148  -0.104   1.172  0.00  0.00    -0.312 N 
ATOM      2  C   UNL     1       2.518   1.116   1.608  0.00  0.00    +0.215 C 
ATOM      3  O   UNL     1       1.688   1.877   2.059  0.00  0.00    -0.276 OA
ATOM      4  H   UNL     1       2.812  -0.712   0.811  0.00  0.00    +0.149 HD
ENDROOT
BRANCH   1   5
ATOM      5  C   UNL     1       0.742  -0.511   1.242  0.00  0.00    +0.079 C 
BRANCH   5   6
ATOM      6  C   UNL     1       0.655  -2.037   1.299  0.00  0.00    -0.010 C 
ATOM      7  C   UNL     1      -0.812  -2.462   1.372  0.00  0.00    +0.012 C 
ATOM      8  C   UNL     1      -0.899  -3.989   1.429  0.00  0.00    -0.010 C 
ATOM      9  C   UNL     1      -0.159  -4.496   2.668  0.00  0.00    +0.007 C 
ATOM     10  C   UNL     1       1.309  -4.071   2.595  0.00  0.00    -0.010 C 
ATOM     11  C   UNL     1       1.395  -2.544   2.538  0.00  0.00    +0.012 C 
ATOM     12  C   UNL     1       1.950  -4.665   1.340  0.00  0.00    +0.007 C 
ATOM     13  C   UNL     1       1.210  -4.158   0.100  0.00  0.00    -0.010 C 
ATOM     14  C   UNL     1      -0.258  -4.583   0.173  0.00  0.00    +0.007 C 
ATOM     15  C   UNL     1       1.297  -2.632   0.043  0.00  0.00    +0.012 C 
ENDBRANCH   5   6
BRANCH   5  17
ATOM     16  C   UNL     1      -0.019   1.526   0.010  0.00  0.00    +0.006 C 
ATOM     17  C   UNL     1       0.002  -0.004   0.002  0.00  0.00    +0.019 C 
ENDBRANCH   5  17
ENDBRANCH   1   5
BRANCH   2  18
ATOM     18  C   UNL     1       3.964   1.535   1.536  0.00  0.00    +0.115 C 
BRANCH  18  19
ATOM     19  C   UNL     1       4.113   2.953   2.091  0.00  0.00    +0.127 C 
BRANCH  19  20
ATOM     20  N   UNL     1       5.518   3.360   2.021  0.00  0.00    -0.224 N 
ATOM     21  C   UNL     1       6.419   3.149   3.003  0.00  0.00    +0.247 C 
ATOM     22  O   UNL     1       6.227   2.607   4.071  0.00  0.00    -0.273 OA
ATOM     23  C   UNL     1       7.717   3.729   2.492  0.00  0.00    +0.113 C 
ATOM     24  C   UNL     1       8.780   2.642   2.385  0.00  0.00    +0.035 C 
ATOM     25  C   UNL     1      10.077   3.244   1.837  0.00  0.00    +0.003 C 
ATOM     26  C   UNL     1      10.555   4.357   2.772  0.00  0.00    +0.000 C 
ATOM     27  C   UNL     1       9.488   5.452   2.851  0.00  0.00    +0.003 C 
ATOM     28  C   UNL     1       8.190   4.858   3.402  0.00  0.00    +0.035 C 
ATOM     29  N   UNL     1       7.376   4.250   1.162  0.00  0.00    -0.285 N 
ATOM     30  C   UNL     1       6.070   3.983   0.972  0.00  0.00    +0.309 C 
ATOM     31  O   UNL     1       5.460   4.277  -0.037  0.00  0.00    -0.252 OA
ATOM     32  H   UNL     1       7.975   4.694   0.541  0.00  0.00    +0.151 HD
ENDBRANCH  19  20
ENDBRANCH  18  19
ENDBRANCH   2  18
TORSDOF 6
