REMARK  Name = ZINC59490063
REMARK  10 active torsions:
REMARK  status: ('A' for Active; 'I' for Inactive)
REMARK    1  A    between atoms: C_1  and  N_2
REMARK    2  A    between atoms: N_5  and  C_8
REMARK    3  A    between atoms: C_11  and  N_34
REMARK    4  A    between atoms: C_13  and  C_14
REMARK    5  A    between atoms: N_15  and  C_16
REMARK    6  A    between atoms: C_19  and  N_28
REMARK    7  A    between atoms: C_20  and  S_22
REMARK    8  A    between atoms: S_22  and  N_25
REMARK    9  A    between atoms: N_25  and  C_26
REMARK   10  A    between atoms: N_25  and  C_27
REMARK                            x       y       z     vdW  Elec       q    Type
REMARK                         _______ _______ _______ _____ _____    ______ ____
ROOT
ATOM      1  C   UNL     1       0.301  -5.055   0.035  0.00  0.00    +0.121 C 
ATOM      2  N   UNL     1      -0.655  -4.168   0.025  0.00  0.00    -0.255 NA
ENDROOT
BRANCH   1   8
ATOM      3  C   UNL     1       2.023  -3.256  -0.065  0.00  0.00    +0.038 A 
ATOM      4  C   UNL     1       3.353  -2.861  -0.102  0.00  0.00    +0.026 A 
ATOM      5  C   UNL     1       4.357  -3.809  -0.090  0.00  0.00    +0.034 A 
ATOM      6  C   UNL     1       4.047  -5.159  -0.043  0.00  0.00    +0.127 A 
ATOM      7  C   UNL     1       2.733  -5.571  -0.006  0.00  0.00    +0.044 A 
ATOM      8  C   UNL     1       1.705  -4.623  -0.011  0.00  0.00    +0.016 A 
BRANCH   3  13
ATOM      9  C   UNL     1      -0.338   1.657  -0.186  0.00  0.00    -0.096 C 
ATOM     10  N   UNL     1      -0.249   0.191  -0.137  0.00  0.00    +0.380 N 
ATOM     11  C   UNL     1       0.441  -0.296  -1.338  0.00  0.00    -0.060 C 
ATOM     12  C   UNL     1       0.433  -1.828  -1.344  0.00  0.00    +0.086 C 
ATOM     13  N   UNL     1       1.010  -2.303  -0.077  0.00  0.00    -0.333 N 
ATOM     14  C   UNL     1       0.486  -1.741   1.177  0.00  0.00    +0.086 C 
ATOM     15  C   UNL     1       0.492  -0.212   1.065  0.00  0.00    -0.060 C 
ATOM     16  H   UNL     1      -1.179  -0.200  -0.104  0.00  0.00    -0.082 HD
ENDBRANCH   3  13
BRANCH   6  17
ATOM     17  N   UNL     1       5.134  -6.164  -0.032  0.00  0.00    +0.056 N 
ATOM     18  O   UNL     1       6.289  -5.806  -0.065  0.00  0.00    -0.126 OA
ATOM     19  O   UNL     1       4.868  -7.343   0.009  0.00  0.00    -0.126 OA
ENDBRANCH   6  17
ENDBRANCH   1   8
BRANCH   2  20
ATOM     20  C   UNL     1      -1.962  -4.570   0.067  0.00  0.00    +0.066 A 
ATOM     21  C   UNL     1      -2.397  -5.626  -0.739  0.00  0.00    +0.029 A 
ATOM     22  C   UNL     1      -3.714  -6.028  -0.693  0.00  0.00    +0.027 A 
ATOM     23  C   UNL     1      -4.610  -5.384   0.153  0.00  0.00    +0.056 A 
ATOM     24  C   UNL     1      -4.181  -4.333   0.956  0.00  0.00    +0.128 A 
ATOM     25  C   UNL     1      -2.864  -3.929   0.920  0.00  0.00    +0.058 A 
BRANCH  23  26
ATOM     26  N   UNL     1      -5.944  -5.794   0.196  0.00  0.00    -0.328 N 
ATOM     27  C   UNL     1      -6.960  -5.126  -0.629  0.00  0.00    +0.105 C 
ATOM     28  C   UNL     1      -7.699  -6.184  -1.454  0.00  0.00    +0.019 C 
ATOM     29  C   UNL     1      -8.257  -7.258  -0.516  0.00  0.00    +0.003 C 
ATOM     30  C   UNL     1      -7.105  -7.941   0.224  0.00  0.00    +0.019 C 
ATOM     31  C   UNL     1      -6.358  -6.906   1.063  0.00  0.00    +0.105 C 
ENDBRANCH  23  26
BRANCH  24  32
ATOM     32  S   UNL     1      -5.322  -3.521   2.026  0.00  0.00    +0.062 S 
ATOM     33  O   UNL     1      -6.042  -2.595   1.224  0.00  0.00    -0.153 OA
ATOM     34  O   UNL     1      -5.967  -4.539   2.780  0.00  0.00    -0.153 OA
BRANCH  32  35
ATOM     35  N   UNL     1      -4.434  -2.627   3.100  0.00  0.00    -0.183 NA
ATOM     36  C   UNL     1      -4.172  -1.211   2.834  0.00  0.00    +0.131 C 
ATOM     37  C   UNL     1      -3.910  -3.253   4.317  0.00  0.00    +0.131 C 
ENDBRANCH  32  35
ENDBRANCH  24  32
ENDBRANCH   2  20
TORSDOF 7
