REMARK  Name = ZINC18113730
REMARK  11 active torsions:
REMARK  status: ('A' for Active; 'I' for Inactive)
REMARK    1  A    between atoms: C_1  and  C_2
REMARK    2  A    between atoms: C_2  and  N_3
REMARK    3  A    between atoms: N_3  and  C_4
REMARK    4  A    between atoms: N_3  and  C_6
REMARK    5  A    between atoms: C_4  and  C_5
REMARK    6  A    between atoms: C_9  and  N_12
REMARK    7  A    between atoms: C_13  and  C_15
REMARK    8  A    between atoms: C_15  and  S_16
REMARK    9  A    between atoms: S_16  and  C_17
REMARK   10  A    between atoms: C_21  and  C_27
REMARK   11  A    between atoms: C_22  and  C_26
REMARK                            x       y       z     vdW  Elec       q    Type
REMARK                         _______ _______ _______ _____ _____    ______ ____
ROOT
ATOM      1  N   UNL     1      -1.303  -6.060   0.439  0.00  0.00    -0.285 N 
ATOM      2  C   UNL     1      -1.814  -6.658   1.533  0.00  0.00    +0.227 C 
ATOM      3  O   UNL     1      -2.370  -5.995   2.383  0.00  0.00    -0.275 OA
ATOM      4  H   UNL     1      -0.927  -6.596  -0.276  0.00  0.00    +0.155 HD
ENDROOT
BRANCH   1   8
ATOM      5  C   UNL     1      -1.340  -1.905   0.128  0.00  0.00    +0.014 A 
ATOM      6  C   UNL     1      -1.188  -2.503   1.366  0.00  0.00    +0.023 A 
ATOM      7  C   UNL     1      -1.176  -3.880   1.472  0.00  0.00    +0.025 A 
ATOM      8  C   UNL     1      -1.316  -4.665   0.335  0.00  0.00    +0.034 A 
ATOM      9  C   UNL     1      -1.468  -4.061  -0.907  0.00  0.00    +0.025 A 
ATOM     10  C   UNL     1      -1.485  -2.684  -1.006  0.00  0.00    +0.023 A 
BRANCH   5  11
ATOM     11  N   UNL     1      -1.352  -0.511   0.023  0.00  0.00    -0.394 NA
ATOM     12  H   UNL     1      -1.475  -0.248  -0.943  0.00  0.00    +0.126 HD
BRANCH  11  14
ATOM     13  C   UNL     1      -2.550   1.542   0.611  0.00  0.00    +0.022 C 
ATOM     14  C   UNL     1      -2.459   0.030   0.823  0.00  0.00    +0.081 C 
ENDBRANCH  11  14
BRANCH  11  15
ATOM     15  C   UNL     1      -0.079   0.028   0.520  0.00  0.00    +0.081 C 
ATOM     16  C   UNL     1       1.061  -0.436  -0.389  0.00  0.00    +0.022 C 
ENDBRANCH  11  15
ENDBRANCH   5  11
ENDBRANCH   1   8
BRANCH   2  17
ATOM     17  C   UNL     1      -1.694  -8.151   1.701  0.00  0.00    +0.173 C 
BRANCH  17  18
ATOM     18  S   UNL     1      -2.473  -8.649   3.262  0.00  0.00    -0.078 S 
BRANCH  18  19
ATOM     19  C   UNL     1      -2.252 -10.396   3.310  0.00  0.00    +0.171 A 
ATOM     20  N   UNL     1      -1.622 -10.993   2.320  0.00  0.00    -0.185 NA
ATOM     21  C   UNL     1      -1.420 -12.314   2.293  0.00  0.00    +0.282 A 
ATOM     22  C   UNL     1      -1.917 -13.148   3.412  0.00  0.00    +0.075 A 
ATOM     23  C   UNL     1      -1.822 -14.583   3.611  0.00  0.00    -0.026 A 
ATOM     24  C   UNL     1      -2.353 -15.127   4.717  0.00  0.00    -0.008 A 
ATOM     25  S   UNL     1      -3.028 -13.721   5.581  0.00  0.00    -0.075 S 
ATOM     26  C   UNL     1      -2.576 -12.451   4.430  0.00  0.00    +0.092 A 
ATOM     27  N   UNL     1      -2.732 -11.100   4.375  0.00  0.00    -0.328 N 
ATOM     28  C   UNL     1      -2.374 -16.577   5.129  0.00  0.00    +0.052 C 
ATOM     29  C   UNL     1      -1.136 -15.450   2.587  0.00  0.00    +0.045 C 
ATOM     30  O   UNL     1      -0.831 -12.828   1.355  0.00  0.00    -0.265 OA
ATOM     31  H   UNL     1      -3.189 -10.636   5.094  0.00  0.00    +0.168 HD
ENDBRANCH  18  19
ENDBRANCH  17  18
ENDBRANCH   2  17
TORSDOF 7
