REMARK  Name = ZINC43115632
REMARK  6 active torsions:
REMARK  status: ('A' for Active; 'I' for Inactive)
REMARK    1  A    between atoms: C_1  and  C_2
REMARK    2  A    between atoms: C_8  and  O_14
REMARK    3  A    between atoms: O_14  and  C_15
REMARK    4  A    between atoms: C_15  and  C_16
REMARK    5  A    between atoms: N_18  and  C_19
REMARK    6  A    between atoms: C_24  and  O_25
REMARK                            x       y       z     vdW  Elec       q    Type
REMARK                         _______ _______ _______ _____ _____    ______ ____
ROOT
ATOM      1  O   UNL     1       0.193  -6.244  -0.062  0.00  0.00    -0.482 OA
ENDROOT
BRANCH   1   9
ATOM      2  C   UNL     1      -0.023   1.502  -0.078  0.00  0.00    +0.073 C 
ATOM      3  C   UNL     1      -0.002  -0.005  -0.074  0.00  0.00    +0.076 A 
ATOM      4  N   UNL     1      -1.006  -0.839  -0.070  0.00  0.00    -0.243 NA
ATOM      5  C   UNL     1      -0.846  -2.179  -0.068  0.00  0.00    +0.093 A 
ATOM      6  C   UNL     1       0.492  -2.631  -0.070  0.00  0.00    +0.044 A 
ATOM      7  S   UNL     1       1.405  -1.108  -0.082  0.00  0.00    -0.072 S 
ATOM      8  C   UNL     1       0.816  -3.971  -0.067  0.00  0.00    +0.063 A 
ATOM      9  C   UNL     1      -0.154  -4.929  -0.063  0.00  0.00    +0.131 A 
ATOM     10  C   UNL     1      -1.530  -4.557  -0.061  0.00  0.00    +0.033 A 
ATOM     11  C   UNL     1      -1.832  -3.189  -0.063  0.00  0.00    +0.049 A 
ATOM     12  S   UNL     1      -3.606  -3.144  -0.060  0.00  0.00    -0.094 S 
ATOM     13  C   UNL     1      -3.922  -4.899  -0.055  0.00  0.00    +0.046 A 
ATOM     14  C   UNL     1      -2.693  -5.436  -0.056  0.00  0.00    +0.020 A 
ENDBRANCH   1   9
BRANCH   1  15
ATOM     15  C   UNL     1       1.589  -6.547  -0.065  0.00  0.00    +0.324 C 
BRANCH  15  16
ATOM     16  C   UNL     1       1.779  -8.042  -0.062  0.00  0.00    +0.255 C 
ATOM     17  O   UNL     1       0.813  -8.776  -0.059  0.00  0.00    -0.272 OA
ATOM     18  N   UNL     1       3.022  -8.563  -0.065  0.00  0.00    -0.280 N 
ATOM     19  H   UNL     1       3.793  -7.979  -0.133  0.00  0.00    +0.155 HD
BRANCH  18  20
ATOM     20  C   UNL     1       3.200  -9.950   0.032  0.00  0.00    +0.075 A 
ATOM     21  C   UNL     1       2.287 -10.811  -0.560  0.00  0.00    +0.027 A 
ATOM     22  C   UNL     1       2.465 -12.178  -0.464  0.00  0.00    +0.002 A 
ATOM     23  C   UNL     1       3.551 -12.691   0.221  0.00  0.00    +0.004 A 
ATOM     24  C   UNL     1       4.465 -11.839   0.813  0.00  0.00    +0.047 A 
ATOM     25  C   UNL     1       4.297 -10.467   0.717  0.00  0.00    +0.138 A 
BRANCH  25  26
ATOM     26  O   UNL     1       5.198  -9.628   1.293  0.00  0.00    -0.505 OA
ATOM     27  H   UNL     1       4.988  -9.394   2.208  0.00  0.00    +0.292 HD
ENDBRANCH  25  26
ENDBRANCH  18  20
ENDBRANCH  15  16
ENDBRANCH   1  15
TORSDOF 5
