REMARK  Name = ZINC00671889
REMARK  8 active torsions:
REMARK  status: ('A' for Active; 'I' for Inactive)
REMARK    1  A    between atoms: C_1  and  C_2
REMARK    2  A    between atoms: C_2  and  O_3
REMARK    3  A    between atoms: O_3  and  C_4
REMARK    4  A    between atoms: C_7  and  C_11
REMARK    5  A    between atoms: C_9  and  C_10
REMARK    6  A    between atoms: C_23  and  S_26
REMARK    7  A    between atoms: S_26  and  C_27
REMARK    8  A    between atoms: C_27  and  C_28
REMARK                            x       y       z     vdW  Elec       q    Type
REMARK                         _______ _______ _______ _____ _____    ______ ____
ROOT
ATOM      1  C   UNL     1       4.966   4.050  -0.024  0.00  0.00    +0.294 C 
ATOM      2  N   UNL     1       5.906   3.296   0.799  0.00  0.00    -0.305 N 
ATOM      3  C   UNL     1       6.464   2.124   0.279  0.00  0.00    +0.039 A 
ATOM      4  C   UNL     1       6.128   0.881   0.785  0.00  0.00    +0.024 A 
ATOM      5  C   UNL     1       6.679  -0.260   0.230  0.00  0.00    +0.002 A 
ATOM      6  C   UNL     1       7.565  -0.166  -0.829  0.00  0.00    +0.001 A 
ATOM      7  C   UNL     1       7.917   1.068  -1.340  0.00  0.00    +0.012 A 
ATOM      8  C   UNL     1       7.375   2.223  -0.788  0.00  0.00    +0.028 A 
ATOM      9  C   UNL     1       7.735   3.564  -1.292  0.00  0.00    +0.156 A 
ATOM     10  C   UNL     1       6.715   4.506  -1.562  0.00  0.00    +0.248 A 
ATOM     11  N   UNL     1       7.058   5.705  -2.001  0.00  0.00    -0.184 NA
ATOM     12  C   UNL     1       8.345   5.989  -2.181  0.00  0.00    +0.212 A 
ATOM     13  N   UNL     1       9.286   5.089  -1.927  0.00  0.00    -0.122 NA
ATOM     14  N   UNL     1       8.997   3.910  -1.496  0.00  0.00    -0.141 NA
ATOM     15  O   UNL     1       5.418   4.170  -1.368  0.00  0.00    -0.449 OA
ATOM     16  H   UNL     1       6.139   3.602   1.690  0.00  0.00    +0.150 HD
ENDROOT
BRANCH   1  20
ATOM     17  C   UNL     1       1.185   2.058   0.002  0.00  0.00    +0.123 A 
ATOM     18  C   UNL     1       1.639   2.673  -1.157  0.00  0.00    +0.046 A 
ATOM     19  C   UNL     1       2.859   3.321  -1.160  0.00  0.00    +0.012 A 
ATOM     20  C   UNL     1       3.633   3.348  -0.015  0.00  0.00    +0.012 A 
ATOM     21  C   UNL     1       3.185   2.731   1.139  0.00  0.00    +0.016 A 
ATOM     22  C   UNL     1       1.963   2.087   1.150  0.00  0.00    -0.008 A 
ATOM     23  C   UNL     1       1.476   1.415   2.408  0.00  0.00    +0.047 C 
BRANCH  17  24
ATOM     24  O   UNL     1      -0.017   1.425   0.010  0.00  0.00    -0.492 OA
BRANCH  24  26
ATOM     25  C   UNL     1      -2.079   0.679  -1.007  0.00  0.00    +0.048 C 
ATOM     26  C   UNL     1      -0.765   1.436  -1.208  0.00  0.00    +0.225 C 
ENDBRANCH  24  26
ENDBRANCH  17  24
ENDBRANCH   1  20
BRANCH  12  27
ATOM     27  S   UNL     1       8.807   7.585  -2.766  0.00  0.00    -0.085 S 
BRANCH  27  28
ATOM     28  C   UNL     1      10.606   7.394  -2.813  0.00  0.00    +0.074 C 
ATOM     29  C   UNL     1      11.244   8.694  -3.306  0.00  0.00    +0.016 C 
ENDBRANCH  27  28
ENDBRANCH  12  27
TORSDOF 5
