REMARK  Name = ZINC39560887
REMARK  8 active torsions:
REMARK  status: ('A' for Active; 'I' for Inactive)
REMARK    1  A    between atoms: C_1  and  O_2
REMARK    2  A    between atoms: O_2  and  C_3
REMARK    3  A    between atoms: C_7  and  C_9
REMARK    4  A    between atoms: C_12  and  N_34
REMARK    5  A    between atoms: C_18  and  C_30
REMARK    6  A    between atoms: C_30  and  O_32
REMARK    7  A    between atoms: O_32  and  C_33
REMARK    8  A    between atoms: C_37  and  O_40
REMARK                            x       y       z     vdW  Elec       q    Type
REMARK                         _______ _______ _______ _____ _____    ______ ____
ROOT
ATOM      1  C   UNL     1       1.580  -4.707   2.544  0.00  0.00    +0.087 C 
ATOM      2  C   UNL     1       0.807  -5.436   3.645  0.00  0.00    +0.008 C 
ATOM      3  C   UNL     1       1.286  -6.888   3.730  0.00  0.00    -0.065 C 
ATOM      4  C   UNL     1       2.796  -6.909   3.985  0.00  0.00    +0.010 C 
ATOM      5  C   UNL     1       3.502  -6.143   2.864  0.00  0.00    +0.106 C 
ATOM      6  N   UNL     1       3.016  -4.755   2.844  0.00  0.00    -0.274 NA
ATOM      7  C   UNL     1       3.790  -3.913   1.926  0.00  0.00    +0.172 C 
ATOM      8  C   UNL     1       5.179  -3.635   2.517  0.00  0.00    +0.067 C 
ATOM      9  C   UNL     1       5.767  -4.953   2.957  0.00  0.00    -0.017 C 
ATOM     10  C   UNL     1       7.034  -5.274   3.259  0.00  0.00    -0.013 C 
ATOM     11  C   UNL     1       8.286  -4.441   3.265  0.00  0.00    +0.064 C 
ATOM     12  C   UNL     1       9.456  -5.287   3.680  0.00  0.00    -0.022 C 
ATOM     13  C   UNL     1       9.389  -6.577   3.995  0.00  0.00    -0.002 C 
ATOM     14  C   UNL     1       8.192  -7.323   3.979  0.00  0.00    +0.028 C 
ATOM     15  C   UNL     1       7.024  -6.658   3.609  0.00  0.00    +0.068 C 
ATOM     16  N   UNL     1       5.763  -7.103   3.503  0.00  0.00    -0.250 NA
ATOM     17  C   UNL     1       4.990  -6.136   3.110  0.00  0.00    +0.063 C 
ENDROOT
BRANCH   1  22
ATOM     18  C   UNL     1      -0.193  -1.555   1.450  0.00  0.00    +0.120 A 
ATOM     19  C   UNL     1       0.301  -0.632   2.361  0.00  0.00    +0.045 A 
ATOM     20  C   UNL     1       1.204  -1.032   3.326  0.00  0.00    +0.004 A 
ATOM     21  C   UNL     1       1.617  -2.350   3.385  0.00  0.00    +0.005 A 
ATOM     22  C   UNL     1       1.128  -3.272   2.477  0.00  0.00    -0.027 A 
ATOM     23  C   UNL     1       0.219  -2.878   1.514  0.00  0.00    +0.050 A 
BRANCH  18  25
ATOM     24  C   UNL     1      -1.462   0.214   0.493  0.00  0.00    +0.277 C 
ATOM     25  O   UNL     1      -1.082  -1.164   0.499  0.00  0.00    -0.495 OA
ENDBRANCH  18  25
ENDBRANCH   1  22
BRANCH   3  26
ATOM     26  N   UNL     1       0.593  -7.569   4.832  0.00  0.00    +0.383 N 
ATOM     27  C   UNL     1       1.038  -8.978   4.904  0.00  0.00    -0.076 C 
ATOM     28  C   UNL     1      -0.228  -9.772   5.314  0.00  0.00    +0.011 C 
ATOM     29  C   UNL     1      -1.338  -9.015   4.537  0.00  0.00    +0.096 C 
ATOM     30  C   UNL     1      -0.862  -7.548   4.591  0.00  0.00    -0.047 C 
ATOM     31  H   UNL     1       0.799  -7.105   5.703  0.00  0.00    -0.081 HD
BRANCH  29  32
ATOM     32  O   UNL     1      -2.601  -9.165   5.187  0.00  0.00    -0.394 OA
ATOM     33  H   UNL     1      -2.908 -10.080   5.245  0.00  0.00    +0.210 HD
ENDBRANCH  29  32
ENDBRANCH   3  26
BRANCH   7  34
ATOM     34  C   UNL     1       3.943  -4.623   0.605  0.00  0.00    +0.325 C 
ATOM     35  O   UNL     1       4.301  -5.776   0.577  0.00  0.00    -0.249 OA
BRANCH  34  36
ATOM     36  O   UNL     1       3.681  -3.973  -0.540  0.00  0.00    -0.467 OA
ATOM     37  C   UNL     1       3.847  -4.707  -1.755  0.00  0.00    +0.280 C 
ENDBRANCH  34  36
ENDBRANCH   7  34
TORSDOF 6
