REMARK  Name = ZINC03284553
REMARK  6 active torsions:
REMARK  status: ('A' for Active; 'I' for Inactive)
REMARK    1  A    between atoms: C_4  and  S_10
REMARK    2  A    between atoms: C_5  and  N_7
REMARK    3  A    between atoms: S_10  and  N_13
REMARK    4  A    between atoms: C_18  and  C_19
REMARK    5  A    between atoms: C_18  and  N_48
REMARK    6  A    between atoms: N_21  and  C_22
REMARK                            x       y       z     vdW  Elec       q    Type
REMARK                         _______ _______ _______ _____ _____    ______ ____
ROOT
ATOM      1  N   UNL     1      -1.560  -0.364   1.831  0.00  0.00    -0.180 NA
ATOM      2  C   UNL     1      -1.918  -0.691   3.219  0.00  0.00    +0.091 C 
ATOM      3  C   UNL     1      -1.026   0.140   4.156  0.00  0.00    -0.061 C 
ATOM      4  C   UNL     1      -0.653   1.815   2.443  0.00  0.00    -0.061 C 
ATOM      5  C   UNL     1      -1.523   1.053   1.437  0.00  0.00    +0.091 C 
ATOM      6  N   UNL     1      -1.174   1.569   3.805  0.00  0.00    +0.387 N 
ATOM      7  H   UNL     1      -2.171   1.816   3.829  0.00  0.00    -0.081 HD
ENDROOT
BRANCH   1   8
ATOM      8  S   UNL     1      -1.213  -1.559   0.738  0.00  0.00    +0.063 S 
ATOM      9  O   UNL     1      -1.397  -0.994  -0.553  0.00  0.00    -0.153 OA
ATOM     10  O   UNL     1      -1.913  -2.718   1.168  0.00  0.00    -0.153 OA
BRANCH   8  14
ATOM     11  C   UNL     1       3.199  -2.493   1.128  0.00  0.00    +0.002 A 
ATOM     12  C   UNL     1       2.565  -1.733   2.093  0.00  0.00    +0.002 A 
ATOM     13  C   UNL     1       1.218  -1.447   1.974  0.00  0.00    +0.031 A 
ATOM     14  C   UNL     1       0.504  -1.922   0.889  0.00  0.00    +0.136 A 
ATOM     15  C   UNL     1       1.137  -2.682  -0.076  0.00  0.00    +0.152 A 
ATOM     16  C   UNL     1       2.484  -2.972   0.046  0.00  0.00    +0.035 A 
BRANCH  15  17
ATOM     17  N   UNL     1       0.373  -3.190  -1.237  0.00  0.00    +0.058 N 
ATOM     18  O   UNL     1       0.952  -3.760  -2.145  0.00  0.00    -0.126 OA
ATOM     19  O   UNL     1      -0.835  -3.044  -1.282  0.00  0.00    -0.126 OA
ENDBRANCH  15  17
ENDBRANCH   8  14
ENDBRANCH   1   8
BRANCH   6  20
ATOM     20  C   UNL     1      -0.448   2.406   4.782  0.00  0.00    +0.019 C 
BRANCH  20  21
ATOM     21  C   UNL     1      -1.138   2.302   6.117  0.00  0.00    +0.201 C 
ATOM     22  O   UNL     1      -2.114   1.593   6.242  0.00  0.00    -0.278 OA
ATOM     23  N   UNL     1      -0.670   2.996   7.174  0.00  0.00    -0.282 N 
ATOM     24  H   UNL     1       0.140   3.522   7.088  0.00  0.00    +0.155 HD
BRANCH  23  25
ATOM     25  C   UNL     1      -1.355   2.958   8.397  0.00  0.00    +0.111 A 
ATOM     26  C   UNL     1      -2.742   2.865   8.415  0.00  0.00    +0.185 A 
ATOM     27  C   UNL     1      -3.416   2.823   9.624  0.00  0.00    +0.198 A 
ATOM     28  C   UNL     1      -2.710   2.884  10.815  0.00  0.00    +0.199 A 
ATOM     29  C   UNL     1      -1.328   2.982  10.799  0.00  0.00    +0.198 A 
ATOM     30  C   UNL     1      -0.649   3.019   9.592  0.00  0.00    +0.185 A 
ATOM     31  F   UNL     1       0.698   3.116   9.577  0.00  0.00    -0.200 F 
ATOM     32  F   UNL     1      -0.641   3.042  11.961  0.00  0.00    -0.199 F 
ATOM     33  F   UNL     1      -3.370   2.848  11.993  0.00  0.00    -0.199 F 
ATOM     34  F   UNL     1      -4.764   2.728   9.642  0.00  0.00    -0.199 F 
ATOM     35  F   UNL     1      -3.431   2.811   7.254  0.00  0.00    -0.200 F 
ENDBRANCH  23  25
ENDBRANCH  20  21
ENDBRANCH   6  20
TORSDOF 6
