REMARK  Name = ZINC36645622
REMARK  4 active torsions:
REMARK  status: ('A' for Active; 'I' for Inactive)
REMARK    1  A    between atoms: C_1  and  S_2
REMARK    2  A    between atoms: S_2  and  C_3
REMARK    3  A    between atoms: N_12  and  C_13
REMARK    4  A    between atoms: C_14  and  C_22
REMARK                            x       y       z     vdW  Elec       q    Type
REMARK                         _______ _______ _______ _____ _____    ______ ____
ROOT
ATOM      1  C   UNL     1       0.967  -6.489  -1.589  0.00  0.00    +0.081 A 
ATOM      2  C   UNL     1       0.737  -7.789  -1.168  0.00  0.00    +0.039 A 
ATOM      3  C   UNL     1       1.221  -8.872  -2.005  0.00  0.00    -0.026 A 
ATOM      4  C   UNL     1       1.865  -8.509  -3.138  0.00  0.00    -0.005 A 
ATOM      5  S   UNL     1       1.837  -6.737  -3.127  0.00  0.00    -0.077 S 
ATOM      6  C   UNL     1       2.461  -9.414  -4.171  0.00  0.00    +0.043 C 
ATOM      7  C   UNL     1       2.565 -10.826  -3.578  0.00  0.00    +0.005 C 
ATOM      8  C   UNL     1       1.228 -11.182  -2.920  0.00  0.00    +0.005 C 
ATOM      9  C   UNL     1       1.032 -10.345  -1.655  0.00  0.00    +0.037 C 
ENDROOT
BRANCH   1  19
ATOM     10  C   UNL     1       0.848  -0.411  -1.489  0.00  0.00    +0.034 A 
ATOM     11  C   UNL     1       1.308   0.596  -2.310  0.00  0.00    +0.017 A 
ATOM     12  C   UNL     1       1.978   0.317  -3.491  0.00  0.00    +0.002 A 
ATOM     13  C   UNL     1       2.191  -1.001  -3.854  0.00  0.00    +0.017 A 
ATOM     14  C   UNL     1       1.737  -2.013  -3.044  0.00  0.00    +0.042 A 
ATOM     15  C   UNL     1       1.056  -1.773  -1.831  0.00  0.00    +0.094 A 
ATOM     16  N   UNL     1       0.678  -2.873  -1.143  0.00  0.00    -0.224 NA
ATOM     17  C   UNL     1       0.929  -4.090  -1.566  0.00  0.00    +0.164 A 
ATOM     18  S   UNL     1       1.782  -3.788  -3.107  0.00  0.00    -0.052 S 
ATOM     19  N   UNL     1       0.608  -5.298  -0.974  0.00  0.00    -0.288 N 
ATOM     20  H   UNL     1       0.132  -5.312  -0.129  0.00  0.00    +0.155 HD
BRANCH  10  22
ATOM     21  C   UNL     1      -0.022   1.810   0.012  0.00  0.00    +0.090 C 
ATOM     22  S   UNL     1       0.002  -0.004   0.002  0.00  0.00    -0.126 S 
ENDBRANCH  10  22
ENDBRANCH   1  19
BRANCH   2  23
ATOM     23  C   UNL     1       0.022  -8.064   0.090  0.00  0.00    +0.112 A 
ATOM     24  N   UNL     1      -0.273  -9.226   0.636  0.00  0.00    -0.239 NA
ATOM     25  C   UNL     1      -0.939  -9.327   1.805  0.00  0.00    +0.079 A 
ATOM     26  C   UNL     1      -1.317 -10.503   2.495  0.00  0.00    +0.029 A 
ATOM     27  C   UNL     1      -1.996 -10.430   3.683  0.00  0.00    +0.002 A 
ATOM     28  C   UNL     1      -2.337  -9.210   4.249  0.00  0.00    +0.001 A 
ATOM     29  C   UNL     1      -1.983  -8.040   3.602  0.00  0.00    +0.017 A 
ATOM     30  C   UNL     1      -1.303  -8.103   2.412  0.00  0.00    +0.040 A 
ATOM     31  S   UNL     1      -0.658  -6.905   1.269  0.00  0.00    -0.067 S 
ENDBRANCH   2  23
TORSDOF 3
