REMARK  Name = ZINC38984143
REMARK  6 active torsions:
REMARK  status: ('A' for Active; 'I' for Inactive)
REMARK    1  A    between atoms: C_4  and  S_7
REMARK    2  A    between atoms: S_7  and  N_10
REMARK    3  A    between atoms: C_12  and  N_22
REMARK    4  A    between atoms: N_22  and  C_23
REMARK    5  A    between atoms: C_26  and  O_29
REMARK    6  A    between atoms: O_29  and  C_30
REMARK                            x       y       z     vdW  Elec       q    Type
REMARK                         _______ _______ _______ _____ _____    ______ ____
ROOT
ATOM      1  N   UNL     1       4.598  -0.920   1.377  0.00  0.00    -0.110 NA
ATOM      2  C   UNL     1       5.616  -1.637   1.753  0.00  0.00    +0.192 C 
ATOM      3  C   UNL     1       5.857  -1.919   3.219  0.00  0.00    +0.237 C 
ATOM      4  N   UNL     1       7.026  -2.737   3.578  0.00  0.00    -0.359 N 
ATOM      5  C   UNL     1       7.795  -3.178   2.622  0.00  0.00    +0.063 A 
ATOM      6  C   UNL     1       8.975  -3.999   2.928  0.00  0.00    +0.027 A 
ATOM      7  C   UNL     1       9.748  -4.438   1.910  0.00  0.00    +0.002 A 
ATOM      8  C   UNL     1       9.451  -4.130   0.572  0.00  0.00    +0.002 A 
ATOM      9  C   UNL     1       8.385  -3.381   0.213  0.00  0.00    +0.030 A 
ATOM     10  C   UNL     1       7.506  -2.868   1.200  0.00  0.00    +0.089 A 
ATOM     11  N   UNL     1       6.466  -2.143   0.844  0.00  0.00    -0.226 NA
ATOM     12  H   UNL     1       7.220  -2.943   4.506  0.00  0.00    +0.162 HD
ENDROOT
BRANCH   1  13
ATOM     13  S   UNL     1       4.342  -0.625  -0.232  0.00  0.00    +0.100 S 
ATOM     14  O   UNL     1       4.032  -1.876  -0.830  0.00  0.00    -0.146 OA
ATOM     15  O   UNL     1       5.424   0.183  -0.674  0.00  0.00    -0.146 OA
BRANCH  13  19
ATOM     16  C   UNL     1       0.613   1.921  -0.551  0.00  0.00    +0.000 A 
ATOM     17  C   UNL     1       1.851   2.522  -0.426  0.00  0.00    +0.002 A 
ATOM     18  C   UNL     1       2.990   1.744  -0.329  0.00  0.00    +0.029 A 
ATOM     19  C   UNL     1       2.890   0.366  -0.355  0.00  0.00    +0.113 A 
ATOM     20  C   UNL     1       1.652  -0.235  -0.479  0.00  0.00    +0.029 A 
ATOM     21  C   UNL     1       0.513   0.542  -0.578  0.00  0.00    +0.002 A 
ENDBRANCH  13  19
ENDBRANCH   1  13
BRANCH   3  22
ATOM     22  N   UNL     1       5.984  -0.632   3.906  0.00  0.00    -0.318 N 
ATOM     23  H   UNL     1       6.515   0.078   3.512  0.00  0.00    +0.148 HD
BRANCH  22  24
ATOM     24  C   UNL     1       5.341  -0.427   5.132  0.00  0.00    +0.029 A 
ATOM     25  C   UNL     1       5.328   0.838   5.707  0.00  0.00    +0.026 A 
ATOM     26  C   UNL     1       4.692   1.039   6.916  0.00  0.00    +0.048 A 
ATOM     27  C   UNL     1       4.067  -0.020   7.556  0.00  0.00    +0.130 A 
ATOM     28  C   UNL     1       4.080  -1.283   6.984  0.00  0.00    +0.048 A 
ATOM     29  C   UNL     1       4.710  -1.486   5.771  0.00  0.00    +0.026 A 
BRANCH  27  30
ATOM     30  O   UNL     1       3.441   0.179   8.747  0.00  0.00    -0.406 OA
BRANCH  30  31
ATOM     31  C   UNL     1       2.818  -0.956   9.351  0.00  0.00    +0.575 C 
ATOM     32  F   UNL     1       3.780  -1.942   9.593  0.00  0.00    -0.133 F 
ATOM     33  F   UNL     1       2.227  -0.575  10.560  0.00  0.00    -0.133 F 
ATOM     34  F   UNL     1       1.837  -1.462   8.491  0.00  0.00    -0.133 F 
ENDBRANCH  30  31
ENDBRANCH  27  30
ENDBRANCH  22  24
ENDBRANCH   3  22
TORSDOF 6
