REMARK  Name = ZINC04788897
REMARK  12 active torsions:
REMARK  status: ('A' for Active; 'I' for Inactive)
REMARK    1  A    between atoms: C_1  and  C_2
REMARK    2  A    between atoms: C_5  and  C_34
REMARK    3  A    between atoms: C_9  and  C_10
REMARK    4  A    between atoms: C_9  and  N_69
REMARK    5  A    between atoms: C_10  and  C_11
REMARK    6  A    between atoms: C_11  and  N_12
REMARK    7  A    between atoms: C_13  and  C_15
REMARK    8  A    between atoms: N_17  and  C_30
REMARK    9  A    between atoms: N_28  and  C_29
REMARK   10  A    between atoms: C_30  and  C_31
REMARK   11  A    between atoms: C_31  and  O_32
REMARK   12  A    between atoms: O_32  and  C_33
REMARK                            x       y       z     vdW  Elec       q    Type
REMARK                         _______ _______ _______ _____ _____    ______ ____
ROOT
ATOM      1  C   UNL     1       1.967   1.261  -8.465  0.00  0.00    +0.063 A 
ATOM      2  C   UNL     1       0.908   2.097  -8.244  0.00  0.00    +0.103 A 
ATOM      3  N   UNL     1       0.262   2.686  -9.278  0.00  0.00    -0.311 N 
ATOM      4  C   UNL     1       0.618   2.484 -10.558  0.00  0.00    +0.276 A 
ATOM      5  O   UNL     1      -0.001   3.040 -11.450  0.00  0.00    -0.265 OA
ATOM      6  C   UNL     1       1.700   1.637 -10.883  0.00  0.00    +0.116 A 
ATOM      7  C   UNL     1       2.394   1.017  -9.848  0.00  0.00    +0.026 A 
ATOM      8  C   UNL     1       3.446   0.207 -10.467  0.00  0.00    +0.009 A 
ATOM      9  C   UNL     1       4.446  -0.628  -9.964  0.00  0.00    +0.010 A 
ATOM     10  C   UNL     1       5.303  -1.258 -10.822  0.00  0.00    +0.001 A 
ATOM     11  C   UNL     1       5.188  -1.074 -12.193  0.00  0.00    +0.002 A 
ATOM     12  C   UNL     1       4.210  -0.255 -12.711  0.00  0.00    +0.026 A 
ATOM     13  C   UNL     1       3.326   0.397 -11.856  0.00  0.00    +0.050 A 
ATOM     14  N   UNL     1       2.273   1.257 -12.082  0.00  0.00    -0.339 N 
ATOM     15  C   UNL     1       1.825   1.705 -13.404  0.00  0.00    +0.149 C 
ENDROOT
BRANCH   1  17
ATOM     16  N   UNL     1       2.188   0.751  -6.086  0.00  0.00    -0.311 N 
ATOM     17  C   UNL     1       2.668   0.623  -7.339  0.00  0.00    +0.246 C 
ATOM     18  O   UNL     1       3.681  -0.021  -7.538  0.00  0.00    -0.270 OA
ATOM     19  H   UNL     1       1.423   1.324  -5.916  0.00  0.00    +0.149 HD
BRANCH  16  20
ATOM     20  C   UNL     1       2.820   0.027  -4.981  0.00  0.00    +0.102 C 
BRANCH  20  21
ATOM     21  C   UNL     1       2.087   0.345  -3.676  0.00  0.00    +0.000 C 
BRANCH  21  22
ATOM     22  C   UNL     1       2.747  -0.412  -2.522  0.00  0.00    -0.077 C 
BRANCH  22  30
ATOM     23  C   UNL     1      -0.130   1.363  -0.013  0.00  0.00    +0.005 C 
ATOM     24  C   UNL     1      -0.076  -0.166  -0.043  0.00  0.00    -0.031 C 
ATOM     25  C   UNL     1       0.659  -0.676   1.200  0.00  0.00    +0.003 C 
ATOM     26  C   UNL     1       2.100  -0.159   1.179  0.00  0.00    -0.031 C 
ATOM     27  C   UNL     1       2.784  -0.620  -0.111  0.00  0.00    -0.076 C 
ATOM     28  C   UNL     1       0.670  -0.627  -1.296  0.00  0.00    -0.076 C 
ATOM     29  C   UNL     1       2.860  -0.713   2.386  0.00  0.00    +0.005 C 
ATOM     30  N   UNL     1       2.042  -0.076  -1.268  0.00  0.00    +0.380 N 
ATOM     31  H   UNL     1       1.989   0.946  -1.179  0.00  0.00    -0.082 HD
ENDBRANCH  22  30
ENDBRANCH  21  22
ENDBRANCH  20  21
ENDBRANCH  16  20
ENDBRANCH   1  17
BRANCH   3  32
ATOM     32  C   UNL     1      -0.867   3.574  -8.991  0.00  0.00    +0.153 C 
BRANCH  32  33
ATOM     33  C   UNL     1      -0.357   5.006  -8.817  0.00  0.00    +0.181 C 
BRANCH  33  34
ATOM     34  O   UNL     1       0.186   5.472 -10.054  0.00  0.00    -0.381 OA
ATOM     35  C   UNL     1       0.692   6.807 -10.000  0.00  0.00    +0.194 C 
ENDBRANCH  33  34
ENDBRANCH  32  33
ENDBRANCH   3  32
TORSDOF 8
