REMARK  Name = ZINC54581419
REMARK  10 active torsions:
REMARK  status: ('A' for Active; 'I' for Inactive)
REMARK    1  A    between atoms: C_1  and  C_2
REMARK    2  A    between atoms: C_2  and  C_4
REMARK    3  A    between atoms: C_2  and  N_15
REMARK    4  A    between atoms: C_7  and  S_10
REMARK    5  A    between atoms: S_10  and  N_13
REMARK    6  A    between atoms: N_13  and  C_14
REMARK    7  A    between atoms: N_18  and  C_19
REMARK    8  A    between atoms: N_18  and  C_20
REMARK    9  A    between atoms: C_20  and  C_21
REMARK   10  A    between atoms: C_26  and  O_27
REMARK                            x       y       z     vdW  Elec       q    Type
REMARK                         _______ _______ _______ _____ _____    ______ ____
ROOT
ATOM      1  N   UNL     1       0.688  -0.476  -1.203  0.00  0.00    -0.293 N 
ATOM      2  C   UNL     1       2.031  -0.587  -1.215  0.00  0.00    +0.303 C 
ATOM      3  O   UNL     1       2.674  -0.294  -0.225  0.00  0.00    -0.253 OA
ATOM      4  N   UNL     1       2.662  -1.022  -2.324  0.00  0.00    -0.284 N 
ATOM      5  C   UNL     1       1.887  -1.374  -3.517  0.00  0.00    +0.134 C 
ATOM      6  H   UNL     1       0.175  -0.710  -1.993  0.00  0.00    +0.151 HD
ENDROOT
BRANCH   1   8
ATOM      7  C   UNL     1      -0.019   1.526   0.010  0.00  0.00    +0.033 C 
ATOM      8  C   UNL     1       0.002  -0.004   0.002  0.00  0.00    +0.102 C 
BRANCH   8   9
ATOM      9  C   UNL     1      -1.412  -0.526   0.013  0.00  0.00    -0.027 A 
ATOM     10  C   UNL     1      -2.141  -0.569  -1.161  0.00  0.00    +0.007 A 
ATOM     11  C   UNL     1      -3.438  -1.047  -1.151  0.00  0.00    +0.029 A 
ATOM     12  C   UNL     1      -4.005  -1.483   0.032  0.00  0.00    +0.105 A 
ATOM     13  C   UNL     1      -3.275  -1.441   1.205  0.00  0.00    +0.029 A 
ATOM     14  C   UNL     1      -1.977  -0.966   1.195  0.00  0.00    +0.007 A 
BRANCH  12  15
ATOM     15  S   UNL     1      -5.659  -2.092   0.045  0.00  0.00    +0.058 S 
ATOM     16  O   UNL     1      -6.142  -1.928   1.371  0.00  0.00    -0.153 OA
ATOM     17  O   UNL     1      -6.311  -1.518  -1.080  0.00  0.00    -0.153 OA
BRANCH  15  18
ATOM     18  N   UNL     1      -5.582  -3.723  -0.233  0.00  0.00    -0.193 NA
ATOM     19  C   UNL     1      -4.936  -4.603   0.744  0.00  0.00    +0.127 C 
ATOM     20  H   UNL     1      -5.965  -4.095  -1.042  0.00  0.00    +0.148 HD
ENDBRANCH  15  18
ENDBRANCH  12  15
ENDBRANCH   8   9
ENDBRANCH   1   8
BRANCH   4  21
ATOM     21  C   UNL     1       4.122  -1.142  -2.336  0.00  0.00    +0.147 C 
BRANCH  21  22
ATOM     22  C   UNL     1       4.516  -2.521  -1.876  0.00  0.00    +0.011 A 
ATOM     23  C   UNL     1       4.934  -2.723  -0.575  0.00  0.00    +0.009 A 
ATOM     24  C   UNL     1       5.296  -3.989  -0.152  0.00  0.00    +0.001 A 
ATOM     25  C   UNL     1       5.242  -5.056  -1.031  0.00  0.00    +0.004 A 
ATOM     26  C   UNL     1       4.825  -4.859  -2.333  0.00  0.00    +0.046 A 
ATOM     27  C   UNL     1       4.456  -3.591  -2.758  0.00  0.00    +0.122 A 
BRANCH  27  28
ATOM     28  O   UNL     1       4.040  -3.396  -4.037  0.00  0.00    -0.506 OA
ATOM     29  H   UNL     1       4.753  -3.183  -4.654  0.00  0.00    +0.292 HD
ENDBRANCH  27  28
ENDBRANCH  21  22
ENDBRANCH   4  21
TORSDOF 7
