REMARK  Name = ZINC05445049
REMARK  3 active torsions:
REMARK  status: ('A' for Active; 'I' for Inactive)
REMARK    1  A    between atoms: C_4  and  N_24
REMARK    2  A    between atoms: C_6  and  C_7
REMARK    3  A    between atoms: C_12  and  C_14
REMARK                            x       y       z     vdW  Elec       q    Type
REMARK                         _______ _______ _______ _____ _____    ______ ____
ROOT
ATOM      1  C   UNL     1      -7.801   1.413   0.083  0.00  0.00    +0.043 C 
ATOM      2  C   UNL     1      -6.488   0.999   0.089  0.00  0.00    +0.152 C 
ATOM      3  C   UNL     1      -5.987  -0.388   0.084  0.00  0.00    +0.364 C 
ATOM      4  O   UNL     1      -6.643  -1.412   0.075  0.00  0.00    -0.243 OA
ATOM      5  O   UNL     1      -4.641  -0.274   0.092  0.00  0.00    -0.406 OA
ATOM      6  C   UNL     1      -4.318   1.030   0.102  0.00  0.00    +0.207 C 
ATOM      7  N   UNL     1      -5.368   1.786   0.105  0.00  0.00    -0.209 NA
ENDROOT
BRANCH   6   8
ATOM      8  C   UNL     1      -2.904   1.550   0.113  0.00  0.00    +0.048 C 
ATOM      9  C   UNL     1      -2.169   1.056  -1.135  0.00  0.00    +0.020 C 
ATOM     10  C   UNL     1      -0.733   1.584  -1.124  0.00  0.00    -0.009 C 
ATOM     11  C   UNL     1      -0.013   1.075   0.126  0.00  0.00    +0.007 C 
ATOM     12  C   UNL     1      -0.748   1.569   1.375  0.00  0.00    -0.009 C 
ATOM     13  C   UNL     1      -2.184   1.041   1.363  0.00  0.00    +0.020 C 
ATOM     14  C   UNL     1      -0.766   3.099   1.384  0.00  0.00    +0.007 C 
ATOM     15  C   UNL     1      -1.487   3.607   0.134  0.00  0.00    -0.009 C 
ATOM     16  C   UNL     1      -0.752   3.114  -1.115  0.00  0.00    +0.007 C 
ATOM     17  C   UNL     1      -2.923   3.080   0.122  0.00  0.00    +0.020 C 
ENDBRANCH   6   8
BRANCH   1  23
ATOM     18  C   UNL     1      -7.094   3.793   0.205  0.00  0.00    +0.009 A 
ATOM     19  C   UNL     1      -7.403   5.131   0.312  0.00  0.00    +0.023 A 
ATOM     20  C   UNL     1      -8.724   5.534   0.431  0.00  0.00    +0.071 A 
ATOM     21  C   UNL     1      -9.745   4.596   0.436  0.00  0.00    +0.145 A 
ATOM     22  C   UNL     1      -9.453   3.255   0.323  0.00  0.00    +0.042 A 
ATOM     23  C   UNL     1      -8.120   2.839   0.203  0.00  0.00    -0.021 A 
ATOM     24 CL   UNL     1      -9.102   7.222   0.573  0.00  0.00    -0.081 Cl
BRANCH  21  25
ATOM     25  N   UNL     1     -11.152   5.037   0.562  0.00  0.00    +0.058 N 
ATOM     26  O   UNL     1     -12.050   4.215   0.566  0.00  0.00    -0.126 OA
ATOM     27  O   UNL     1     -11.412   6.223   0.662  0.00  0.00    -0.126 OA
ENDBRANCH  21  25
ENDBRANCH   1  23
TORSDOF 3
