REMARK  Name = ZINC45632351
REMARK  8 active torsions:
REMARK  status: ('A' for Active; 'I' for Inactive)
REMARK    1  A    between atoms: C_1  and  N_2
REMARK    2  A    between atoms: C_3  and  C_5
REMARK    3  A    between atoms: C_16  and  C_18
REMARK    4  A    between atoms: C_18  and  O_19
REMARK    5  A    between atoms: O_19  and  C_20
REMARK    6  A    between atoms: C_20  and  C_22
REMARK    7  A    between atoms: C_22  and  N_23
REMARK    8  A    between atoms: C_24  and  C_26
REMARK                            x       y       z     vdW  Elec       q    Type
REMARK                         _______ _______ _______ _____ _____    ______ ____
ROOT
ATOM      1  C   UNL     1       1.290  -6.412   1.051  0.00  0.00    +0.328 C 
ENDROOT
BRANCH   1  12
ATOM      2  C   UNL     1       2.720  -3.938  -2.014  0.00  0.00    +0.276 C 
ATOM      3  C   UNL     1       1.664  -4.761  -1.263  0.00  0.00    +0.168 C 
ATOM      4  N   UNL     1       1.485  -4.151   0.065  0.00  0.00    -0.261 N 
ATOM      5  C   UNL     1       1.438  -2.748   0.138  0.00  0.00    +0.078 A 
ATOM      6  C   UNL     1       0.992  -2.127   1.294  0.00  0.00    +0.027 A 
ATOM      7  C   UNL     1       0.952  -0.747   1.362  0.00  0.00    +0.002 A 
ATOM      8  C   UNL     1       1.356   0.012   0.280  0.00  0.00    +0.004 A 
ATOM      9  C   UNL     1       1.801  -0.602  -0.875  0.00  0.00    +0.047 A 
ATOM     10  C   UNL     1       1.843  -1.986  -0.954  0.00  0.00    +0.143 A 
ATOM     11  O   UNL     1       2.277  -2.581  -2.097  0.00  0.00    -0.476 OA
ATOM     12  C   UNL     1       1.369  -4.911   1.172  0.00  0.00    +0.258 C 
ATOM     13  O   UNL     1       1.328  -4.388   2.265  0.00  0.00    -0.272 OA
BRANCH   2  16
ATOM     14  C   UNL     1       3.587  -6.275  -4.919  0.00  0.00    +0.128 C 
ATOM     15  N   UNL     1       3.409  -5.733  -3.569  0.00  0.00    -0.315 N 
ATOM     16  C   UNL     1       2.904  -4.495  -3.402  0.00  0.00    +0.255 C 
ATOM     17  O   UNL     1       2.596  -3.830  -4.368  0.00  0.00    -0.272 OA
ATOM     18  H   UNL     1       3.656  -6.265  -2.796  0.00  0.00    +0.148 HD
ENDBRANCH   2  16
ENDBRANCH   1  12
BRANCH   1  19
ATOM     19  O   UNL     1       1.050  -6.981   2.339  0.00  0.00    -0.454 OA
BRANCH  19  20
ATOM     20  C   UNL     1       0.953  -8.319   2.405  0.00  0.00    +0.325 C 
ATOM     21  O   UNL     1       1.067  -8.983   1.403  0.00  0.00    -0.249 OA
BRANCH  20  22
ATOM     22  C   UNL     1       0.700  -8.991   3.730  0.00  0.00    +0.224 C 
BRANCH  22  23
ATOM     23  N   UNL     1       0.636 -10.442   3.537  0.00  0.00    -0.304 N 
ATOM     24  C   UNL     1       0.417 -11.253   4.591  0.00  0.00    +0.220 C 
ATOM     25  O   UNL     1       0.274 -10.782   5.699  0.00  0.00    -0.275 OA
ATOM     26  H   UNL     1       0.751 -10.819   2.651  0.00  0.00    +0.149 HD
BRANCH  24  27
ATOM     27  C   UNL     1       0.351 -12.745   4.392  0.00  0.00    +0.048 C 
ATOM     28  C   UNL     1       1.677 -13.242   3.813  0.00  0.00    +0.019 C 
ATOM     29  C   UNL     1       1.610 -14.757   3.611  0.00  0.00    -0.009 C 
ATOM     30  C   UNL     1       1.354 -15.440   4.956  0.00  0.00    +0.007 C 
ATOM     31  C   UNL     1       0.028 -14.943   5.536  0.00  0.00    -0.009 C 
ATOM     32  C   UNL     1       0.095 -13.428   5.737  0.00  0.00    +0.019 C 
ATOM     33  C   UNL     1      -1.109 -15.279   4.569  0.00  0.00    +0.007 C 
ATOM     34  C   UNL     1      -0.853 -14.596   3.224  0.00  0.00    -0.009 C 
ATOM     35  C   UNL     1       0.473 -15.093   2.644  0.00  0.00    +0.007 C 
ATOM     36  C   UNL     1      -0.786 -13.081   3.425  0.00  0.00    +0.019 C 
ENDBRANCH  24  27
ENDBRANCH  22  23
ENDBRANCH  20  22
ENDBRANCH  19  20
ENDBRANCH   1  19
TORSDOF 7
