REMARK  Name = ZINC36156890
REMARK  10 active torsions:
REMARK  status: ('A' for Active; 'I' for Inactive)
REMARK    1  A    between atoms: C_4  and  C_7
REMARK    2  A    between atoms: C_7  and  N_8
REMARK    3  A    between atoms: N_8  and  C_9
REMARK    4  A    between atoms: N_8  and  C_25
REMARK    5  A    between atoms: C_9  and  C_10
REMARK    6  A    between atoms: C_25  and  C_26
REMARK    7  A    between atoms: C_26  and  C_28
REMARK    8  A    between atoms: C_26  and  O_36
REMARK    9  A    between atoms: C_28  and  O_29
REMARK   10  A    between atoms: O_29  and  C_30
REMARK                            x       y       z     vdW  Elec       q    Type
REMARK                         _______ _______ _______ _____ _____    ______ ____
ROOT
ATOM      1  N   UNL     1       4.033  -0.806   1.549  0.00  0.00    +0.389 N 
ATOM      2  H   UNL     1       3.760   0.060   1.988  0.00  0.00    -0.081 HD
ENDROOT
BRANCH   1   3
ATOM      3  C   UNL     1       4.016  -0.643   0.089  0.00  0.00    -0.042 C 
BRANCH   3   7
ATOM      4  C   UNL     1       5.601  -4.153  -1.758  0.00  0.00    +0.000 A 
ATOM      5  C   UNL     1       4.256  -4.083  -1.446  0.00  0.00    +0.000 A 
ATOM      6  C   UNL     1       3.743  -2.947  -0.849  0.00  0.00    +0.002 A 
ATOM      7  C   UNL     1       4.575  -1.881  -0.562  0.00  0.00    -0.064 A 
ATOM      8  C   UNL     1       5.920  -1.952  -0.873  0.00  0.00    +0.002 A 
ATOM      9  C   UNL     1       6.433  -3.087  -1.472  0.00  0.00    +0.000 A 
ENDBRANCH   3   7
ENDBRANCH   1   3
BRANCH   1  10
ATOM     10  C   UNL     1       5.389  -1.169   1.984  0.00  0.00    -0.003 C 
BRANCH  10  11
ATOM     11  C   UNL     1       6.330  -0.027   1.700  0.00  0.00    +0.094 A 
ATOM     12  N   UNL     1       7.644  -0.151   2.020  0.00  0.00    -0.312 N 
ATOM     13  H   UNL     1       7.958  -0.973   2.428  0.00  0.00    +0.170 HD
ATOM     14  C   UNL     1       8.519   0.844   1.782  0.00  0.00    +0.260 A 
ATOM     15  O   UNL     1       9.696   0.717   2.075  0.00  0.00    -0.267 OA
ATOM     16  C   UNL     1       8.045   2.055   1.179  0.00  0.00    +0.075 A 
ATOM     17  C   UNL     1       8.804   3.256   0.834  0.00  0.00    -0.023 A 
ATOM     18  C   UNL     1       8.118   4.272   0.269  0.00  0.00    -0.004 A 
ATOM     19  S   UNL     1       6.445   3.696   0.166  0.00  0.00    -0.073 S 
ATOM     20  C   UNL     1       6.673   2.089   0.885  0.00  0.00    +0.116 A 
ATOM     21  N   UNL     1       5.869   1.061   1.145  0.00  0.00    -0.229 NA
ATOM     22  C   UNL     1       8.660   5.597  -0.173  0.00  0.00    +0.043 C 
ATOM     23  C   UNL     1      10.050   5.784   0.450  0.00  0.00    +0.005 C 
ATOM     24  C   UNL     1      10.864   4.506   0.227  0.00  0.00    +0.005 C 
ATOM     25  C   UNL     1      10.303   3.376   1.092  0.00  0.00    +0.037 C 
ENDBRANCH  10  11
ENDBRANCH   1  10
BRANCH   1  26
ATOM     26  C   UNL     1       3.095  -1.868   1.934  0.00  0.00    -0.043 C 
BRANCH  26  27
ATOM     27  C   UNL     1       1.661  -1.344   1.829  0.00  0.00    +0.135 C 
BRANCH  27  28
ATOM     28  O   UNL     1       1.344  -1.093   0.459  0.00  0.00    -0.390 OA
ATOM     29  H   UNL     1       1.294  -1.890  -0.086  0.00  0.00    +0.210 HD
ENDBRANCH  27  28
BRANCH  27  30
ATOM     30  C   UNL     1       0.694  -2.388   2.393  0.00  0.00    +0.258 C 
BRANCH  30  31
ATOM     31  O   UNL     1      -0.631  -1.853   2.403  0.00  0.00    -0.489 OA
BRANCH  31  32
ATOM     32  C   UNL     1      -1.618  -2.658   2.877  0.00  0.00    +0.121 A 
ATOM     33  C   UNL     1      -1.316  -3.934   3.329  0.00  0.00    +0.045 A 
ATOM     34  C   UNL     1      -2.321  -4.751   3.812  0.00  0.00    +0.004 A 
ATOM     35  C   UNL     1      -3.626  -4.297   3.844  0.00  0.00    +0.000 A 
ATOM     36  C   UNL     1      -3.930  -3.025   3.393  0.00  0.00    +0.004 A 
ATOM     37  C   UNL     1      -2.928  -2.203   2.916  0.00  0.00    +0.045 A 
ENDBRANCH  31  32
ENDBRANCH  30  31
ENDBRANCH  27  30
ENDBRANCH  26  27
ENDBRANCH   1  26
TORSDOF 10
