REMARK  Name = ZINC12146831
REMARK  8 active torsions:
REMARK  status: ('A' for Active; 'I' for Inactive)
REMARK    1  A    between atoms: C_1  and  C_2
REMARK    2  A    between atoms: C_7  and  C_15
REMARK    3  A    between atoms: C_12  and  C_14
REMARK    4  A    between atoms: C_15  and  C_17
REMARK    5  A    between atoms: C_15  and  O_31
REMARK    6  A    between atoms: C_17  and  N_59
REMARK    7  A    between atoms: C_20  and  C_23
REMARK    8  A    between atoms: C_20  and  O_30
REMARK                            x       y       z     vdW  Elec       q    Type
REMARK                         _______ _______ _______ _____ _____    ______ ____
ROOT
ATOM      1  C   UNL     1      -1.185   2.603  -1.407  0.00  0.00    -0.042 C 
ENDROOT
BRANCH   1   7
ATOM      2  C   UNL     1      -3.310   2.874  -2.535  0.00  0.00    -0.076 C 
ATOM      3  C   UNL     1      -4.778   2.443  -2.521  0.00  0.00    +0.021 C 
ATOM      4  C   UNL     1      -4.867   0.941  -2.808  0.00  0.00    +0.088 C 
ATOM      5  C   UNL     1      -4.046   0.181  -1.763  0.00  0.00    +0.021 C 
ATOM      6  C   UNL     1      -2.598   0.677  -1.799  0.00  0.00    -0.076 C 
ATOM      7  N   UNL     1      -2.579   2.123  -1.491  0.00  0.00    +0.382 N 
ATOM      8  H   UNL     1      -3.040   2.277  -0.587  0.00  0.00    -0.082 HD
BRANCH   4   9
ATOM      9  C   UNL     1      -6.306   0.498  -2.737  0.00  0.00    -0.016 A 
ATOM     10  C   UNL     1      -6.837   0.065  -1.536  0.00  0.00    +0.009 A 
ATOM     11  C   UNL     1      -8.157  -0.338  -1.470  0.00  0.00    +0.039 A 
ATOM     12  C   UNL     1      -8.946  -0.316  -2.608  0.00  0.00    +0.123 A 
ATOM     13  C   UNL     1      -8.411   0.114  -3.811  0.00  0.00    +0.039 A 
ATOM     14  C   UNL     1      -7.092   0.520  -3.874  0.00  0.00    +0.009 A 
ATOM     15  F   UNL     1     -10.235  -0.713  -2.545  0.00  0.00    -0.205 F 
ENDBRANCH   4   9
BRANCH   4  16
ATOM     16  O   UNL     1      -4.348   0.673  -4.112  0.00  0.00    -0.384 OA
ATOM     17  H   UNL     1      -4.822   1.123  -4.824  0.00  0.00    +0.211 HD
ENDBRANCH   4  16
ENDBRANCH   1   7
BRANCH   1  18
ATOM     18  C   UNL     1      -0.523   1.981  -0.176  0.00  0.00    +0.128 C 
BRANCH  18  24
ATOM     19  C   UNL     1       6.355   3.122  -1.763  0.00  0.00    +0.029 C 
ATOM     20  C   UNL     1       5.614   2.580  -0.539  0.00  0.00    +0.083 C 
ATOM     21  C   UNL     1       4.535   1.572  -0.969  0.00  0.00    +0.059 C 
ATOM     22  C   UNL     1       3.235   2.179  -0.490  0.00  0.00    -0.024 A 
ATOM     23  C   UNL     1       1.933   1.727  -0.591  0.00  0.00    +0.011 A 
ATOM     24  C   UNL     1       0.896   2.475  -0.065  0.00  0.00    -0.021 A 
ATOM     25  C   UNL     1       1.165   3.680   0.558  0.00  0.00    +0.008 A 
ATOM     26  C   UNL     1       2.462   4.131   0.666  0.00  0.00    +0.024 A 
ATOM     27  C   UNL     1       3.515   3.382   0.137  0.00  0.00    +0.040 A 
ATOM     28  N   UNL     1       4.886   3.659   0.134  0.00  0.00    -0.268 N 
ATOM     29  C   UNL     1       5.454   4.756   0.671  0.00  0.00    +0.217 C 
ATOM     30  O   UNL     1       4.771   5.564   1.264  0.00  0.00    -0.276 OA
ATOM     31  C   UNL     1       6.938   4.979   0.536  0.00  0.00    +0.109 C 
ENDBRANCH  18  24
BRANCH  18  32
ATOM     32  O   UNL     1      -1.250   2.355   0.996  0.00  0.00    -0.389 OA
ATOM     33  H   UNL     1      -1.291   3.309   1.145  0.00  0.00    +0.210 HD
ENDBRANCH  18  32
ENDBRANCH   1  18
TORSDOF 6
