REMARK  Name = ZINC51002086
REMARK  5 active torsions:
REMARK  status: ('A' for Active; 'I' for Inactive)
REMARK    1  A    between atoms: C_1  and  N_2
REMARK    2  A    between atoms: C_4  and  C_12
REMARK    3  A    between atoms: C_6  and  C_7
REMARK    4  A    between atoms: C_17  and  O_18
REMARK    5  A    between atoms: O_18  and  C_19
REMARK                            x       y       z     vdW  Elec       q    Type
REMARK                         _______ _______ _______ _____ _____    ______ ____
ROOT
ATOM      1  C   UNL     1      -0.013   1.086   0.008  0.00  0.00    +0.138 C 
ATOM      2  N   UNL     1      -0.721   1.571  -1.179  0.00  0.00    -0.282 N 
ATOM      3  C   UNL     1      -0.131   1.843  -2.394  0.00  0.00    +0.100 C 
ATOM      4  C   UNL     1      -1.274   2.309  -3.276  0.00  0.00    +0.176 C 
ATOM      5  N   UNL     1      -2.450   2.240  -2.395  0.00  0.00    -0.363 N 
ATOM      6  C   UNL     1      -2.064   1.814  -1.244  0.00  0.00    +0.079 C 
ATOM      7  N   UNL     1       1.116   1.728  -2.712  0.00  0.00    -0.388 N 
ATOM      8  H   UNL     1       1.757   1.417  -2.054  0.00  0.00    +0.157 HD
ATOM      9  H   UNL     1      -3.360   2.471  -2.640  0.00  0.00    +0.162 HD
ATOM     10  H   UNL     1       1.411   1.953  -3.608  0.00  0.00    +0.157 HD
ENDROOT
BRANCH   4  11
ATOM     11  C   UNL     1      -1.043   3.725  -3.738  0.00  0.00    +0.025 A 
ATOM     12  C   UNL     1      -1.597   4.780  -3.039  0.00  0.00    +0.025 A 
ATOM     13  C   UNL     1      -1.385   6.079  -3.463  0.00  0.00    +0.018 A 
ATOM     14  C   UNL     1      -0.618   6.326  -4.588  0.00  0.00    +0.019 A 
ATOM     15  C   UNL     1      -0.062   5.274  -5.289  0.00  0.00    +0.047 A 
ATOM     16  C   UNL     1      -0.269   3.970  -4.863  0.00  0.00    +0.126 A 
ATOM     17 BR   UNL     1      -2.145   7.521  -2.504  0.00  0.00    -0.050 Br
BRANCH  16  18
ATOM     18  O   UNL     1       0.281   2.934  -5.549  0.00  0.00    -0.495 OA
ATOM     19  C   UNL     1       1.067   3.261  -6.698  0.00  0.00    +0.277 C 
ENDBRANCH  16  18
ENDBRANCH   4  11
BRANCH   6  20
ATOM     20  C   UNL     1      -3.000   1.609  -0.081  0.00  0.00    +0.051 C 
ATOM     21  C   UNL     1      -3.212   2.938   0.686  0.00  0.00    +0.011 C 
ATOM     22  C   UNL     1      -4.574   2.715   1.388  0.00  0.00    +0.001 C 
ATOM     23  C   UNL     1      -5.410   1.935   0.352  0.00  0.00    +0.001 C 
ATOM     24  C   UNL     1      -4.410   1.232  -0.582  0.00  0.00    +0.011 C 
ENDBRANCH   6  20
TORSDOF 3
