REMARK  Name = ZINC40322687
REMARK  8 active torsions:
REMARK  status: ('A' for Active; 'I' for Inactive)
REMARK    1  A    between atoms: C_1  and  C_2
REMARK    2  A    between atoms: C_5  and  S_8
REMARK    3  A    between atoms: S_8  and  C_11
REMARK    4  A    between atoms: C_14  and  C_16
REMARK    5  A    between atoms: N_18  and  C_19
REMARK    6  A    between atoms: C_19  and  C_20
REMARK    7  A    between atoms: C_20  and  C_22
REMARK    8  A    between atoms: C_20  and  N_29
REMARK                            x       y       z     vdW  Elec       q    Type
REMARK                         _______ _______ _______ _____ _____    ______ ____
ROOT
ATOM      1  C   UNL     1       5.502  -5.547  -1.693  0.00  0.00    +0.279 C 
ATOM      2  O   UNL     1       6.602  -5.964  -1.383  0.00  0.00    -0.267 OA
ATOM      3  N   UNL     1       5.107  -5.581  -2.981  0.00  0.00    -0.310 N 
ATOM      4  H   UNL     1       4.230  -5.249  -3.229  0.00  0.00    +0.149 HD
ENDROOT
BRANCH   1   8
ATOM      5  C   UNL     1       2.846  -4.112   0.293  0.00  0.00    +0.246 A 
ATOM      6  C   UNL     1       3.748  -4.341   1.273  0.00  0.00    +0.070 A 
ATOM      7  C   UNL     1       4.878  -4.914   0.669  0.00  0.00    +0.056 A 
ATOM      8  C   UNL     1       4.605  -5.007  -0.665  0.00  0.00    +0.192 A 
ATOM      9  O   UNL     1       3.365  -4.519  -0.873  0.00  0.00    -0.433 OA
BRANCH   5  10
ATOM     10  S   UNL     1       1.249  -3.402   0.514  0.00  0.00    +0.058 S 
ATOM     11  O   UNL     1       0.885  -3.635   1.868  0.00  0.00    -0.161 OA
ATOM     12  O   UNL     1       0.453  -3.846  -0.576  0.00  0.00    -0.161 OA
BRANCH  10  17
ATOM     13  C   UNL     1       1.847   2.570  -0.108  0.00  0.00    +0.044 C 
ATOM     14  C   UNL     1       1.698   1.078   0.048  0.00  0.00    -0.050 A 
ATOM     15  C   UNL     1       1.422   0.292  -1.056  0.00  0.00    +0.005 A 
ATOM     16  C   UNL     1       1.286  -1.076  -0.913  0.00  0.00    +0.028 A 
ATOM     17  C   UNL     1       1.425  -1.658   0.333  0.00  0.00    +0.097 A 
ATOM     18  C   UNL     1       1.701  -0.873   1.436  0.00  0.00    +0.028 A 
ATOM     19  C   UNL     1       1.842   0.495   1.293  0.00  0.00    +0.005 A 
ENDBRANCH  10  17
ENDBRANCH   5  10
ENDBRANCH   1   8
BRANCH   3  20
ATOM     20  C   UNL     1       6.003  -6.120  -4.008  0.00  0.00    +0.094 C 
BRANCH  20  21
ATOM     21  C   UNL     1       5.274  -6.156  -5.353  0.00  0.00    -0.019 C 
BRANCH  21  22
ATOM     22  C   UNL     1       4.129  -7.133  -5.277  0.00  0.00    -0.041 A 
ATOM     23  C   UNL     1       2.840  -6.673  -5.082  0.00  0.00    +0.003 A 
ATOM     24  C   UNL     1       1.789  -7.569  -5.013  0.00  0.00    +0.000 A 
ATOM     25  C   UNL     1       2.027  -8.925  -5.138  0.00  0.00    +0.001 A 
ATOM     26  C   UNL     1       3.315  -9.386  -5.333  0.00  0.00    +0.020 A 
ATOM     27  C   UNL     1       4.366  -8.489  -5.409  0.00  0.00    +0.043 A 
ATOM     28 CL   UNL     1       5.984  -9.067  -5.660  0.00  0.00    -0.083 Cl
ENDBRANCH  21  22
BRANCH  21  29
ATOM     29  N   UNL     1       4.756  -4.818  -5.665  0.00  0.00    +0.385 N 
ATOM     30  C   UNL     1       4.160  -4.826  -7.007  0.00  0.00    -0.078 C 
ATOM     31  C   UNL     1       3.547  -3.456  -7.305  0.00  0.00    -0.019 C 
ATOM     32  C   UNL     1       4.642  -2.387  -7.237  0.00  0.00    -0.004 C 
ATOM     33  C   UNL     1       5.306  -2.438  -5.858  0.00  0.00    -0.019 C 
ATOM     34  C   UNL     1       5.854  -3.845  -5.614  0.00  0.00    -0.078 C 
ATOM     35  H   UNL     1       4.051  -4.564  -4.988  0.00  0.00    -0.081 HD
ENDBRANCH  21  29
ENDBRANCH  20  21
ENDBRANCH   3  20
TORSDOF 7
