REMARK  Name = ZINC41113422
REMARK  10 active torsions:
REMARK  status: ('A' for Active; 'I' for Inactive)
REMARK    1  A    between atoms: C_1  and  C_2
REMARK    2  A    between atoms: C_2  and  C_3
REMARK    3  A    between atoms: C_3  and  N_4
REMARK    4  A    between atoms: N_4  and  C_5
REMARK    5  A    between atoms: C_5  and  C_7
REMARK    6  A    between atoms: C_5  and  C_16
REMARK    7  A    between atoms: C_10  and  O_14
REMARK    8  A    between atoms: O_14  and  C_15
REMARK    9  A    between atoms: N_20  and  C_21
REMARK   10  A    between atoms: C_21  and  C_22
REMARK                            x       y       z     vdW  Elec       q    Type
REMARK                         _______ _______ _______ _____ _____    ______ ____
ROOT
ATOM      1  C   UNL     1       1.622  -2.269   2.346  0.00  0.00    +0.025 C 
ENDROOT
BRANCH   1   2
ATOM      2  C   UNL     1       1.901  -3.712   2.014  0.00  0.00    -0.053 A 
ATOM      3  C   UNL     1       0.946  -4.466   1.357  0.00  0.00    +0.006 A 
ATOM      4  C   UNL     1       1.199  -5.790   1.052  0.00  0.00    +0.047 A 
ATOM      5  C   UNL     1       2.412  -6.362   1.405  0.00  0.00    +0.134 A 
ATOM      6  C   UNL     1       3.369  -5.604   2.064  0.00  0.00    +0.060 A 
ATOM      7  C   UNL     1       3.113  -4.279   2.362  0.00  0.00    +0.021 A 
ATOM      8 BR   UNL     1       5.024  -6.380   2.548  0.00  0.00    -0.047 Br
BRANCH   5   9
ATOM      9  O   UNL     1       2.663  -7.665   1.106  0.00  0.00    -0.494 OA
ATOM     10  C   UNL     1       1.632  -8.384   0.427  0.00  0.00    +0.277 C 
ENDBRANCH   5   9
ENDBRANCH   1   2
BRANCH   1  11
ATOM     11  C   UNL     1       0.647  -2.197   3.494  0.00  0.00    +0.077 A 
ATOM     12  N   UNL     1      -0.653  -2.252   3.392  0.00  0.00    -0.351 N 
ATOM     13  C   UNL     1      -1.196  -2.158   4.615  0.00  0.00    +0.101 A 
ATOM     14  C   UNL     1      -0.195  -2.041   5.508  0.00  0.00    +0.104 A 
ATOM     15  N   UNL     1       0.975  -2.071   4.798  0.00  0.00    -0.337 N 
ATOM     16  H   UNL     1      -1.148  -2.345   2.563  0.00  0.00    +0.166 HD
BRANCH  15  17
ATOM     17  C   UNL     1       2.329  -1.980   5.349  0.00  0.00    +0.119 C 
ATOM     18  C   UNL     1       2.797  -0.524   5.314  0.00  0.00    +0.027 C 
ENDBRANCH  15  17
ENDBRANCH   1  11
BRANCH   1  19
ATOM     19  N   UNL     1       1.046  -1.599   1.173  0.00  0.00    +0.388 N 
ATOM     20  H   UNL     1       0.145  -2.001   0.964  0.00  0.00    -0.084 HD
ATOM     21  H   UNL     1       1.660  -1.721   0.381  0.00  0.00    -0.084 HD
BRANCH  19  22
ATOM     22  C   UNL     1       0.890  -0.166   1.455  0.00  0.00    -0.081 C 
BRANCH  22  24
ATOM     23  C   UNL     1       0.250   2.046   0.485  0.00  0.00    +0.002 C 
ATOM     24  C   UNL     1       0.413   0.553   0.191  0.00  0.00    -0.022 C 
ENDBRANCH  22  24
ENDBRANCH  19  22
ENDBRANCH   1  19
TORSDOF 7
