REMARK  Name = ZINC12595149
REMARK  7 active torsions:
REMARK  status: ('A' for Active; 'I' for Inactive)
REMARK    1  A    between atoms: C_1  and  N_2
REMARK    2  A    between atoms: N_2  and  C_3
REMARK    3  A    between atoms: C_9  and  C_11
REMARK    4  A    between atoms: C_11  and  C_12
REMARK    5  A    between atoms: N_19  and  C_20
REMARK    6  A    between atoms: C_20  and  C_21
REMARK    7  A    between atoms: C_26  and  C_27
REMARK                            x       y       z     vdW  Elec       q    Type
REMARK                         _______ _______ _______ _____ _____    ______ ____
ROOT
ATOM      1  C   UNL     1      -0.604  -1.348  -3.269  0.00  0.00    +0.028 C 
ATOM      2  C   UNL     1      -1.032  -0.738  -4.573  0.00  0.00    +0.200 C 
ATOM      3  O   UNL     1      -1.891   0.118  -4.561  0.00  0.00    -0.278 OA
ATOM      4  N   UNL     1      -0.504  -1.101  -5.748  0.00  0.00    -0.318 N 
ATOM      5  C   UNL     1       0.554  -2.102  -5.859  0.00  0.00    +0.085 C 
ATOM      6  C   UNL     1       0.625  -2.930  -4.575  0.00  0.00    -0.058 C 
ATOM      7  N   UNL     1       0.695  -2.014  -3.427  0.00  0.00    +0.391 N 
ATOM      8  H   UNL     1      -0.836  -0.682  -6.557  0.00  0.00    +0.149 HD
ATOM      9  H   UNL     1       1.412  -1.322  -3.588  0.00  0.00    -0.080 HD
ENDROOT
BRANCH   1  10
ATOM     10  C   UNL     1      -0.486  -0.250  -2.210  0.00  0.00    +0.090 C 
BRANCH  10  13
ATOM     11  C   UNL     1       0.195   1.948  -0.557  0.00  0.00    +0.132 C 
ATOM     12  N   UNL     1       0.749   1.872  -1.911  0.00  0.00    -0.301 N 
ATOM     13  C   UNL     1       0.435   0.833  -2.710  0.00  0.00    +0.214 C 
ATOM     14  O   UNL     1       0.893   0.769  -3.831  0.00  0.00    -0.276 OA
BRANCH  12  15
ATOM     15  C   UNL     1       1.644   2.925  -2.397  0.00  0.00    +0.080 C 
ATOM     16  C   UNL     1       2.876   3.010  -1.490  0.00  0.00    +0.050 C 
ATOM     17  C   UNL     1       3.766   4.163  -1.959  0.00  0.00    +0.161 C 
ATOM     18  O   UNL     1       3.016   5.379  -1.942  0.00  0.00    -0.380 OA
ATOM     19  C   UNL     1       1.879   5.376  -2.807  0.00  0.00    +0.161 C 
ATOM     20  C   UNL     1       0.913   4.271  -2.373  0.00  0.00    +0.050 C 
ENDBRANCH  12  15
ENDBRANCH  10  13
ENDBRANCH   1  10
BRANCH   7  21
ATOM     21  C   UNL     1       1.008  -2.776  -2.211  0.00  0.00    -0.041 C 
BRANCH  21  22
ATOM     22  C   UNL     1       2.375  -3.397  -2.345  0.00  0.00    -0.052 A 
ATOM     23  C   UNL     1       2.502  -4.702  -2.784  0.00  0.00    +0.002 A 
ATOM     24  C   UNL     1       3.756  -5.271  -2.907  0.00  0.00    +0.000 A 
ATOM     25  C   UNL     1       4.883  -4.535  -2.593  0.00  0.00    +0.001 A 
ATOM     26  C   UNL     1       4.756  -3.229  -2.155  0.00  0.00    +0.012 A 
ATOM     27  C   UNL     1       3.502  -2.659  -2.036  0.00  0.00    +0.056 A 
BRANCH  27  28
ATOM     28  C   UNL     1       3.365  -1.234  -1.564  0.00  0.00    +0.418 C 
ATOM     29  F   UNL     1       4.622  -0.741  -1.197  0.00  0.00    -0.166 F 
ATOM     30  F   UNL     1       2.839  -0.450  -2.597  0.00  0.00    -0.166 F 
ATOM     31  F   UNL     1       2.506  -1.190  -0.461  0.00  0.00    -0.166 F 
ENDBRANCH  27  28
ENDBRANCH  21  22
ENDBRANCH   7  21
TORSDOF 6
