REMARK  Name = ZINC40687899
REMARK  5 active torsions:
REMARK  status: ('A' for Active; 'I' for Inactive)
REMARK    1  A    between atoms: C_6  and  O_11
REMARK    2  A    between atoms: O_11  and  C_12
REMARK    3  A    between atoms: C_13  and  N_27
REMARK    4  A    between atoms: C_14  and  N_18
REMARK    5  A    between atoms: N_18  and  C_19
REMARK                            x       y       z     vdW  Elec       q    Type
REMARK                         _______ _______ _______ _____ _____    ______ ____
ROOT
ATOM      1  C   UNL     1       4.842  -3.987   0.330  0.00  0.00    +0.246 A 
ATOM      2  C   UNL     1       6.038  -4.702   0.283  0.00  0.00    +0.128 A 
ATOM      3  C   UNL     1       5.979  -6.095   0.384  0.00  0.00    +0.151 A 
ATOM      4  N   UNL     1       4.792  -6.681   0.521  0.00  0.00    -0.218 NA
ATOM      5  C   UNL     1       3.685  -5.966   0.561  0.00  0.00    +0.227 A 
ATOM      6  N   UNL     1       3.699  -4.652   0.474  0.00  0.00    -0.199 NA
ENDROOT
BRANCH   2   7
ATOM      7  N   UNL     1       7.267  -4.042   0.137  0.00  0.00    -0.351 N 
ATOM      8  H   UNL     1       7.293  -3.075   0.067  0.00  0.00    +0.143 HD
ATOM      9  H   UNL     1       8.091  -4.553   0.105  0.00  0.00    +0.143 HD
ENDBRANCH   2   7
BRANCH   3  10
ATOM     10  N   UNL     1       7.141  -6.856   0.342  0.00  0.00    -0.298 N 
ATOM     11  H   UNL     1       8.007  -6.418   0.318  0.00  0.00    +0.154 HD
BRANCH  10  12
ATOM     12  C   UNL     1       7.063  -8.252   0.334  0.00  0.00    +0.035 A 
ATOM     13  C   UNL     1       8.060  -9.008   0.938  0.00  0.00    +0.026 A 
ATOM     14  C   UNL     1       7.982 -10.387   0.929  0.00  0.00    +0.043 A 
ATOM     15  C   UNL     1       6.911 -11.017   0.320  0.00  0.00    +0.159 A 
ATOM     16  C   UNL     1       5.914 -10.266  -0.283  0.00  0.00    +0.160 A 
ATOM     17  C   UNL     1       5.986  -8.885  -0.272  0.00  0.00    +0.064 A 
ATOM     18  F   UNL     1       4.869 -10.883  -0.878  0.00  0.00    -0.202 F 
ATOM     19  F   UNL     1       6.837 -12.366   0.312  0.00  0.00    -0.202 F 
ENDBRANCH  10  12
ENDBRANCH   3  10
BRANCH   1  20
ATOM     20  O   UNL     1       4.844  -2.634   0.236  0.00  0.00    -0.436 OA
BRANCH  20  26
ATOM     21  C   UNL     1      -0.582   0.578  -0.104  0.00  0.00    +0.001 A 
ATOM     22  C   UNL     1      -0.028   0.485  -1.379  0.00  0.00    +0.001 A 
ATOM     23  C   UNL     1       1.151  -0.162  -1.586  0.00  0.00    +0.008 A 
ATOM     24  C   UNL     1       1.822  -0.748  -0.498  0.00  0.00    -0.014 A 
ATOM     25  C   UNL     1       3.041  -1.424  -0.673  0.00  0.00    +0.054 A 
ATOM     26  C   UNL     1       3.665  -1.980   0.407  0.00  0.00    +0.131 A 
ATOM     27  C   UNL     1       3.107  -1.887   1.685  0.00  0.00    +0.047 A 
ATOM     28  C   UNL     1       1.928  -1.240   1.887  0.00  0.00    +0.012 A 
ATOM     29  C   UNL     1       1.258  -0.654   0.799  0.00  0.00    -0.018 A 
ATOM     30  C   UNL     1       0.039   0.023   0.972  0.00  0.00    +0.008 A 
ENDBRANCH  20  26
ENDBRANCH   1  20
TORSDOF 5
