REMARK  Name = ZINC50950472
REMARK  5 active torsions:
REMARK  status: ('A' for Active; 'I' for Inactive)
REMARK    1  A    between atoms: C_5  and  C_8
REMARK    2  A    between atoms: C_8  and  C_9
REMARK    3  A    between atoms: C_9  and  C_10
REMARK    4  A    between atoms: N_12  and  C_13
REMARK    5  A    between atoms: C_14  and  C_21
REMARK                            x       y       z     vdW  Elec       q    Type
REMARK                         _______ _______ _______ _____ _____    ______ ____
ROOT
ATOM      1  C   UNL     1       1.550  -4.045   2.459  0.00  0.00    +0.218 C 
ATOM      2  O   UNL     1       1.059  -4.656   1.534  0.00  0.00    -0.275 OA
ATOM      3  N   UNL     1       2.117  -4.713   3.483  0.00  0.00    -0.279 N 
ATOM      4  H   UNL     1       2.510  -4.224   4.223  0.00  0.00    +0.155 HD
ENDROOT
BRANCH   3   5
ATOM      5  C   UNL     1       2.138  -6.101   3.479  0.00  0.00    +0.090 A 
ATOM      6  C   UNL     1       2.665  -6.945   4.437  0.00  0.00    +0.084 A 
ATOM      7  C   UNL     1       2.560  -8.383   4.194  0.00  0.00    -0.018 A 
ATOM      8  C   UNL     1       1.948  -8.701   3.039  0.00  0.00    -0.004 A 
ATOM      9  S   UNL     1       1.523  -7.138   2.313  0.00  0.00    -0.077 S 
ATOM     10  C   UNL     1       1.870 -10.190   2.837  0.00  0.00    +0.043 C 
ATOM     11  C   UNL     1       2.903 -10.773   3.827  0.00  0.00    +0.010 C 
ATOM     12  C   UNL     1       2.959  -9.673   4.907  0.00  0.00    +0.037 C 
BRANCH   6  13
ATOM     13  C   UNL     1       3.291  -6.433   5.619  0.00  0.00    +0.102 C 
ATOM     14  N   UNL     1       3.786  -6.027   6.557  0.00  0.00    -0.191 NA
ENDBRANCH   6  13
ENDBRANCH   3   5
BRANCH   1  15
ATOM     15  C   UNL     1       1.527  -2.538   2.464  0.00  0.00    +0.094 C 
BRANCH  15  16
ATOM     16  C   UNL     1       0.832  -2.034   1.198  0.00  0.00    -0.007 C 
BRANCH  16  21
ATOM     17  C   UNL     1      -0.019   1.527   0.010  0.00  0.00    -0.003 C 
ATOM     18  C   UNL     1       1.422   2.047  -0.001  0.00  0.00    -0.019 C 
ATOM     19  C   UNL     1       2.175   1.471   1.200  0.00  0.00    -0.082 C 
ATOM     20  N   UNL     1       2.183   0.005   1.120  0.00  0.00    +0.381 N 
ATOM     21  C   UNL     1       0.809  -0.504   1.202  0.00  0.00    -0.071 C 
ATOM     22  C   UNL     1       0.002  -0.004   0.002  0.00  0.00    -0.016 C 
ATOM     23  H   UNL     1       2.595  -0.281   0.245  0.00  0.00    -0.086 HD
ATOM     24  H   UNL     1       2.725  -0.369   1.883  0.00  0.00    -0.086 HD
ENDBRANCH  16  21
ENDBRANCH  15  16
ENDBRANCH   1  15
TORSDOF 5
