REMARK  Name = ZINC66650505
REMARK  9 active torsions:
REMARK  status: ('A' for Active; 'I' for Inactive)
REMARK    1  A    between atoms: C_1  and  C_2
REMARK    2  A    between atoms: C_7  and  N_10
REMARK    3  A    between atoms: C_11  and  C_13
REMARK    4  A    between atoms: C_13  and  N_14
REMARK    5  A    between atoms: C_20  and  C_22
REMARK    6  A    between atoms: C_22  and  C_24
REMARK    7  A    between atoms: C_22  and  N_27
REMARK    8  A    between atoms: C_24  and  C_25
REMARK    9  A    between atoms: C_24  and  C_26
REMARK                            x       y       z     vdW  Elec       q    Type
REMARK                         _______ _______ _______ _____ _____    ______ ____
ROOT
ATOM      1  N   UNL     1       2.897  -5.576  -1.303  0.00  0.00    -0.291 NA
ATOM      2  C   UNL     1       1.918  -6.638  -1.035  0.00  0.00    +0.104 C 
ATOM      3  C   UNL     1       2.647  -7.882  -0.517  0.00  0.00    +0.123 C 
ATOM      4  N   UNL     1       3.703  -8.237  -1.478  0.00  0.00    -0.298 N 
ATOM      5  C   UNL     1       4.641  -7.187  -1.901  0.00  0.00    +0.123 C 
ATOM      6  C   UNL     1       3.833  -5.970  -2.364  0.00  0.00    +0.104 C 
ATOM      7  C   UNL     1       3.808  -9.493  -1.957  0.00  0.00    +0.236 C 
ATOM      8  O   UNL     1       3.087 -10.368  -1.528  0.00  0.00    -0.274 OA
ENDROOT
BRANCH   1   9
ATOM      9  C   UNL     1       2.225  -4.312  -1.636  0.00  0.00    +0.180 C 
BRANCH   9  11
ATOM     10  N   UNL     1       0.768  -2.664  -0.505  0.00  0.00    -0.311 N 
ATOM     11  C   UNL     1       1.466  -3.815  -0.433  0.00  0.00    +0.227 C 
ATOM     12  O   UNL     1       1.482  -4.450   0.600  0.00  0.00    -0.274 OA
ATOM     13  H   UNL     1       0.755  -2.156  -1.331  0.00  0.00    +0.149 HD
BRANCH  10  19
ATOM     14  C   UNL     1      -1.074   1.207  -0.796  0.00  0.00    +0.007 C 
ATOM     15  C   UNL     1      -0.909  -0.311  -0.702  0.00  0.00    -0.012 C 
ATOM     16  C   UNL     1      -2.288  -0.973  -0.660  0.00  0.00    +0.003 C 
ATOM     17  C   UNL     1      -2.122  -2.491  -0.566  0.00  0.00    +0.002 C 
ATOM     18  C   UNL     1      -1.349  -2.842   0.706  0.00  0.00    +0.022 C 
ATOM     19  C   UNL     1       0.030  -2.180   0.664  0.00  0.00    +0.073 C 
ATOM     20  C   UNL     1      -0.135  -0.662   0.571  0.00  0.00    +0.025 C 
ENDBRANCH  10  19
ENDBRANCH   9  11
ENDBRANCH   1   9
BRANCH   7  21
ATOM     21  C   UNL     1       4.822  -9.809  -3.026  0.00  0.00    +0.163 C 
BRANCH  21  22
ATOM     22  N   UNL     1       4.297 -10.859  -3.902  0.00  0.00    -0.288 N 
ATOM     23  C   UNL     1       4.744 -10.966  -5.169  0.00  0.00    +0.298 C 
ATOM     24  O   UNL     1       5.583 -10.190  -5.585  0.00  0.00    -0.253 OA
ATOM     25  N   UNL     1       4.261 -11.932  -5.975  0.00  0.00    -0.313 N 
ATOM     26  H   UNL     1       3.628 -11.478  -3.570  0.00  0.00    +0.151 HD
ATOM     27  H   UNL     1       3.592 -12.551  -5.643  0.00  0.00    +0.146 HD
ATOM     28  H   UNL     1       4.582 -12.009  -6.887  0.00  0.00    +0.146 HD
ENDBRANCH  21  22
BRANCH  21  29
ATOM     29  C   UNL     1       6.119 -10.290  -2.373  0.00  0.00    +0.012 C 
ATOM     30  C   UNL     1       7.170 -10.546  -3.454  0.00  0.00    +0.009 C 
ATOM     31  C   UNL     1       6.631  -9.220  -1.407  0.00  0.00    +0.009 C 
ENDBRANCH  21  29
ENDBRANCH   7  21
TORSDOF 6
