REMARK  Name = ZINC38898866
REMARK  10 active torsions:
REMARK  status: ('A' for Active; 'I' for Inactive)
REMARK    1  A    between atoms: C_1  and  C_2
REMARK    2  A    between atoms: C_3  and  C_19
REMARK    3  A    between atoms: C_7  and  S_9
REMARK    4  A    between atoms: S_9  and  C_10
REMARK    5  A    between atoms: C_10  and  C_12
REMARK    6  A    between atoms: C_10  and  C_13
REMARK    7  A    between atoms: C_19  and  C_20
REMARK    8  A    between atoms: C_25  and  C_28
REMARK    9  A    between atoms: C_28  and  C_29
REMARK   10  A    between atoms: N_31  and  C_32
REMARK                            x       y       z     vdW  Elec       q    Type
REMARK                         _______ _______ _______ _____ _____    ______ ____
ROOT
ATOM      1  C   UNL     1      -0.013   1.086   0.008  0.00  0.00    +0.066 C 
ATOM      2  C   UNL     1      -0.742   1.585  -1.213  0.00  0.00    +0.050 A 
ATOM      3  C   UNL     1      -2.106   1.799  -1.173  0.00  0.00    +0.049 A 
ATOM      4  C   UNL     1      -2.742   2.262  -2.325  0.00  0.00    +0.278 A 
ATOM      5  O   UNL     1      -4.078   2.486  -2.329  0.00  0.00    -0.265 OA
ATOM      6  N   UNL     1      -2.019   2.481  -3.416  0.00  0.00    -0.183 NA
ATOM      7  C   UNL     1      -0.712   2.263  -3.415  0.00  0.00    +0.192 A 
ATOM      8  N   UNL     1      -0.080   1.829  -2.334  0.00  0.00    -0.227 NA
ENDROOT
BRANCH   7   9
ATOM      9  S   UNL     1       0.211   2.566  -4.886  0.00  0.00    -0.078 S 
BRANCH   9  10
ATOM     10  C   UNL     1      -1.034   3.142  -6.074  0.00  0.00    +0.081 C 
ATOM     11  C   UNL     1      -1.612   4.477  -5.601  0.00  0.00    +0.024 C 
BRANCH  10  12
ATOM     12  C   UNL     1      -0.392   3.323  -7.425  0.00  0.00    -0.034 A 
ATOM     13  C   UNL     1       0.658   4.209  -7.579  0.00  0.00    +0.005 A 
ATOM     14  C   UNL     1       1.246   4.376  -8.818  0.00  0.00    +0.000 A 
ATOM     15  C   UNL     1       0.786   3.655  -9.904  0.00  0.00    +0.000 A 
ATOM     16  C   UNL     1      -0.263   2.768  -9.751  0.00  0.00    +0.000 A 
ATOM     17  C   UNL     1      -0.849   2.599  -8.510  0.00  0.00    +0.005 A 
ENDBRANCH  10  12
ENDBRANCH   9  10
ENDBRANCH   7   9
BRANCH   3  18
ATOM     18  C   UNL     1      -2.890   1.538   0.087  0.00  0.00    +0.138 C 
BRANCH  18  19
ATOM     19  C   UNL     1      -2.929   2.791   0.924  0.00  0.00    +0.223 C 
ATOM     20  O   UNL     1      -2.375   3.797   0.535  0.00  0.00    -0.275 OA
ATOM     21  N   UNL     1      -3.580   2.793   2.104  0.00  0.00    -0.264 N 
ATOM     22  C   UNL     1      -3.616   3.949   2.875  0.00  0.00    +0.165 A 
ATOM     23  N   UNL     1      -4.192   4.135   4.043  0.00  0.00    -0.229 NA
ATOM     24  C   UNL     1      -4.136   5.304   4.654  0.00  0.00    +0.059 A 
ATOM     25  C   UNL     1      -3.460   6.296   4.023  0.00  0.00    +0.072 A 
ATOM     26  S   UNL     1      -2.927   5.449   2.545  0.00  0.00    -0.060 S 
ATOM     27  H   UNL     1      -4.024   1.989   2.415  0.00  0.00    +0.157 HD
BRANCH  24  28
ATOM     28  C   UNL     1      -4.793   5.526   5.992  0.00  0.00    +0.151 C 
BRANCH  28  29
ATOM     29  C   UNL     1      -6.250   5.154   5.903  0.00  0.00    +0.219 C 
ATOM     30  O   UNL     1      -6.710   4.748   4.857  0.00  0.00    -0.275 OA
ATOM     31  N   UNL     1      -7.043   5.271   6.987  0.00  0.00    -0.318 N 
ATOM     32  C   UNL     1      -8.460   4.909   6.901  0.00  0.00    +0.128 C 
ATOM     33  H   UNL     1      -6.675   5.596   7.824  0.00  0.00    +0.148 HD
ENDBRANCH  28  29
ENDBRANCH  24  28
ENDBRANCH  18  19
ENDBRANCH   3  18
TORSDOF 7
