REMARK  Name = ZINC12946094
REMARK  10 active torsions:
REMARK  status: ('A' for Active; 'I' for Inactive)
REMARK    1  A    between atoms: C_1  and  N_2
REMARK    2  A    between atoms: C_6  and  C_7
REMARK    3  A    between atoms: C_12  and  C_13
REMARK    4  A    between atoms: C_12  and  N_66
REMARK    5  A    between atoms: N_15  and  C_16
REMARK    6  A    between atoms: C_16  and  C_17
REMARK    7  A    between atoms: C_17  and  C_19
REMARK    8  A    between atoms: C_17  and  C_27
REMARK    9  A    between atoms: C_22  and  O_25
REMARK   10  A    between atoms: O_25  and  C_26
REMARK                            x       y       z     vdW  Elec       q    Type
REMARK                         _______ _______ _______ _____ _____    ______ ____
ROOT
ATOM      1  C   UNL     1      -0.741   6.409   0.042  0.00  0.00    +0.068 C 
ENDROOT
BRANCH   1   2
ATOM      2  C   UNL     1       0.245   5.269   0.027  0.00  0.00    -0.013 A 
ATOM      3  C   UNL     1       1.583   5.371   0.015  0.00  0.00    +0.088 A 
ATOM      4  N   UNL     1       2.147   4.124   0.003  0.00  0.00    -0.360 N 
ATOM      5  H   UNL     1       3.099   3.943  -0.007  0.00  0.00    +0.165 HD
ATOM      6  C   UNL     1       1.159   3.165   0.007  0.00  0.00    +0.047 A 
ATOM      7  C   UNL     1      -0.075   3.840   0.022  0.00  0.00    +0.003 A 
ATOM      8  C   UNL     1      -1.267   3.112   0.030  0.00  0.00    +0.010 A 
ATOM      9  C   UNL     1      -1.228   1.746   0.017  0.00  0.00    +0.001 A 
ATOM     10  C   UNL     1      -0.013   1.076   0.008  0.00  0.00    +0.002 A 
ATOM     11  C   UNL     1       1.175   1.774   0.000  0.00  0.00    +0.026 A 
ENDBRANCH   1   2
BRANCH   1  12
ATOM     12  C   UNL     1      -0.544   7.260  -1.186  0.00  0.00    -0.038 A 
ATOM     13  C   UNL     1       0.672   7.878  -1.409  0.00  0.00    +0.008 A 
ATOM     14  C   UNL     1       0.857   8.655  -2.537  0.00  0.00    +0.046 A 
ATOM     15  C   UNL     1      -0.183   8.822  -3.440  0.00  0.00    +0.120 A 
ATOM     16  C   UNL     1      -1.405   8.205  -3.211  0.00  0.00    +0.046 A 
ATOM     17  C   UNL     1      -1.582   7.425  -2.084  0.00  0.00    +0.008 A 
BRANCH  15  18
ATOM     18  O   UNL     1      -0.006   9.591  -4.547  0.00  0.00    -0.495 OA
ATOM     19  C   UNL     1       1.277  10.195  -4.719  0.00  0.00    +0.277 C 
ENDBRANCH  15  18
ENDBRANCH   1  12
BRANCH   1  20
ATOM     20  C   UNL     1      -0.517   7.260   1.294  0.00  0.00    +0.117 C 
BRANCH  20  23
ATOM     21  C   UNL     1      -0.698   7.013   3.711  0.00  0.00    +0.197 C 
ATOM     22  O   UNL     1      -0.330   8.163   3.827  0.00  0.00    -0.278 OA
ATOM     23  N   UNL     1      -0.824   6.466   2.486  0.00  0.00    -0.316 N 
ATOM     24  H   UNL     1      -1.118   5.546   2.393  0.00  0.00    +0.149 HD
BRANCH  21  25
ATOM     25  C   UNL     1      -1.013   6.196   4.937  0.00  0.00    +0.019 C 
BRANCH  25  30
ATOM     26  C   UNL     1      -0.849   6.182   7.361  0.00  0.00    -0.020 C 
ATOM     27  C   UNL     1      -1.467   7.104   8.441  0.00  0.00    -0.011 C 
ATOM     28  C   UNL     1      -2.515   7.896   7.615  0.00  0.00    -0.020 C 
ATOM     29  C   UNL     1      -1.820   8.071   6.248  0.00  0.00    -0.077 C 
ATOM     30  N   UNL     1      -0.789   7.025   6.150  0.00  0.00    +0.391 N 
ATOM     31  H   UNL     1       0.137   7.465   6.088  0.00  0.00    -0.080 HD
BRANCH  26  37
ATOM     32  C   UNL     1      -0.072   4.614   9.920  0.00  0.00    +0.148 C 
ATOM     33  N   UNL     1       0.869   5.069   8.894  0.00  0.00    -0.355 N 
ATOM     34  C   UNL     1       2.218   4.873   8.910  0.00  0.00    +0.085 A 
ATOM     35  C   UNL     1       2.739   5.434   7.800  0.00  0.00    +0.019 A 
ATOM     36  C   UNL     1       1.672   5.993   7.069  0.00  0.00    +0.021 A 
ATOM     37  C   UNL     1       0.540   5.759   7.765  0.00  0.00    +0.005 A 
ENDBRANCH  26  37
ENDBRANCH  25  30
ENDBRANCH  21  25
ENDBRANCH  20  23
ENDBRANCH   1  20
TORSDOF 8
