REMARK  Name = ZINC38141961
REMARK  16 active torsions:
REMARK  status: ('A' for Active; 'I' for Inactive)
REMARK    1  A    between atoms: C_1  and  C_2
REMARK    2  A    between atoms: C_4  and  C_26
REMARK    3  A    between atoms: C_7  and  C_14
REMARK    4  A    between atoms: C_9  and  C_13
REMARK    5  A    between atoms: C_17  and  O_24
REMARK    6  A    between atoms: C_18  and  O_22
REMARK    7  A    between atoms: C_19  and  O_20
REMARK    8  A    between atoms: O_20  and  C_21
REMARK    9  A    between atoms: O_22  and  C_23
REMARK   10  A    between atoms: O_24  and  C_25
REMARK   11  A    between atoms: C_29  and  O_36
REMARK   12  A    between atoms: C_30  and  O_34
REMARK   13  A    between atoms: C_31  and  O_32
REMARK   14  A    between atoms: O_32  and  C_33
REMARK   15  A    between atoms: O_34  and  C_35
REMARK   16  A    between atoms: O_36  and  C_37
REMARK                            x       y       z     vdW  Elec       q    Type
REMARK                         _______ _______ _______ _____ _____    ______ ____
ROOT
ATOM      1  C   UNL     1       0.197   1.639  -0.072  0.00  0.00    +0.014 C 
ATOM      2  C   UNL     1       0.105   0.114  -0.001  0.00  0.00    +0.043 C 
ATOM      3  C   UNL     1       0.628  -0.497  -1.306  0.00  0.00    -0.026 C 
ATOM      4  N   UNL     1       2.060  -0.205  -1.444  0.00  0.00    +0.389 N 
ATOM      5  C   UNL     1       2.822  -0.908  -0.404  0.00  0.00    -0.026 C 
ATOM      6  C   UNL     1       2.468  -0.328   0.970  0.00  0.00    +0.043 C 
ATOM      7  C   UNL     1       0.963  -0.396   1.139  0.00  0.00    +0.136 C 
ATOM      8  O   UNL     1       0.465  -0.842   2.144  0.00  0.00    -0.297 OA
ATOM      9  C   UNL     1       3.149  -1.147   2.067  0.00  0.00    +0.014 C 
ATOM     10  H   UNL     1       2.377  -0.508  -2.353  0.00  0.00    -0.084 HD
ATOM     11  H   UNL     1       2.209   0.788  -1.353  0.00  0.00    -0.084 HD
ENDROOT
BRANCH   5  12
ATOM     12  C   UNL     1       4.298  -0.732  -0.658  0.00  0.00    -0.015 A 
ATOM     13  C   UNL     1       4.750   0.367  -1.365  0.00  0.00    +0.009 A 
ATOM     14  C   UNL     1       6.102   0.533  -1.601  0.00  0.00    +0.050 A 
ATOM     15  C   UNL     1       7.010  -0.403  -1.128  0.00  0.00    +0.165 A 
ATOM     16  C   UNL     1       6.559  -1.508  -0.416  0.00  0.00    +0.204 A 
ATOM     17  C   UNL     1       5.199  -1.668  -0.177  0.00  0.00    +0.167 A 
BRANCH  17  18
ATOM     18  O   UNL     1       4.754  -2.745   0.523  0.00  0.00    -0.491 OA
ATOM     19  C   UNL     1       4.434  -3.919  -0.226  0.00  0.00    +0.277 C 
ENDBRANCH  17  18
BRANCH  16  20
ATOM     20  O   UNL     1       7.447  -2.428   0.050  0.00  0.00    -0.488 OA
ATOM     21  C   UNL     1       7.980  -2.211   1.358  0.00  0.00    +0.277 C 
ENDBRANCH  16  20
BRANCH  15  22
ATOM     22  O   UNL     1       8.340  -0.239  -1.361  0.00  0.00    -0.491 OA
ATOM     23  C   UNL     1       8.731   0.920  -2.099  0.00  0.00    +0.277 C 
ENDBRANCH  15  22
ENDBRANCH   5  12
BRANCH   3  24
ATOM     24  C   UNL     1      -0.119   0.095  -2.473  0.00  0.00    -0.015 A 
ATOM     25  C   UNL     1      -1.301   0.780  -2.260  0.00  0.00    +0.009 A 
ATOM     26  C   UNL     1      -1.990   1.325  -3.326  0.00  0.00    +0.050 A 
ATOM     27  C   UNL     1      -1.499   1.185  -4.616  0.00  0.00    +0.165 A 
ATOM     28  C   UNL     1      -0.312   0.497  -4.834  0.00  0.00    +0.204 A 
ATOM     29  C   UNL     1       0.382  -0.044  -3.758  0.00  0.00    +0.167 A 
BRANCH  29  30
ATOM     30  O   UNL     1       1.547  -0.714  -3.966  0.00  0.00    -0.491 OA
ATOM     31  C   UNL     1       1.447  -2.096  -4.314  0.00  0.00    +0.277 C 
ENDBRANCH  29  30
BRANCH  28  32
ATOM     32  O   UNL     1       0.174   0.358  -6.098  0.00  0.00    -0.488 OA
ATOM     33  C   UNL     1       1.058   1.377  -6.569  0.00  0.00    +0.277 C 
ENDBRANCH  28  32
BRANCH  27  34
ATOM     34  O   UNL     1      -2.179   1.721  -5.665  0.00  0.00    -0.491 OA
ATOM     35  C   UNL     1      -3.392   2.414  -5.366  0.00  0.00    +0.277 C 
ENDBRANCH  27  34
ENDBRANCH   3  24
TORSDOF 8
