REMARK  Name = ZINC12872914
REMARK  7 active torsions:
REMARK  status: ('A' for Active; 'I' for Inactive)
REMARK    1  A    between atoms: C_1  and  S_2
REMARK    2  A    between atoms: S_2  and  C_3
REMARK    3  A    between atoms: C_3  and  C_4
REMARK    4  A    between atoms: C_4  and  C_5
REMARK    5  A    between atoms: C_5  and  C_7
REMARK    6  A    between atoms: C_5  and  N_23
REMARK    7  A    between atoms: N_9  and  C_10
REMARK                            x       y       z     vdW  Elec       q    Type
REMARK                         _______ _______ _______ _____ _____    ______ ____
ROOT
ATOM      1  C   UNL     1      -3.022  -2.019   0.215  0.00  0.00    +0.238 C 
ATOM      2  O   UNL     1      -3.810  -1.881  -0.697  0.00  0.00    -0.273 OA
ATOM      3  N   UNL     1      -3.408  -2.634   1.351  0.00  0.00    -0.284 N 
ATOM      4  H   UNL     1      -2.761  -2.805   2.053  0.00  0.00    +0.155 HD
ENDROOT
BRANCH   3   5
ATOM      5  C   UNL     1      -4.742  -3.026   1.517  0.00  0.00    +0.037 A 
ATOM      6  C   UNL     1      -5.475  -3.475   0.427  0.00  0.00    +0.027 A 
ATOM      7  C   UNL     1      -6.792  -3.862   0.588  0.00  0.00    +0.051 A 
ATOM      8  C   UNL     1      -7.383  -3.803   1.838  0.00  0.00    +0.167 A 
ATOM      9  C   UNL     1      -6.650  -3.352   2.935  0.00  0.00    +0.169 A 
ATOM     10  C   UNL     1      -5.331  -2.970   2.774  0.00  0.00    +0.073 A 
ATOM     11  O   UNL     1      -7.460  -3.391   4.040  0.00  0.00    -0.447 OA
ATOM     12  C   UNL     1      -8.787  -3.392   3.494  0.00  0.00    +0.254 C 
ATOM     13  O   UNL     1      -8.646  -4.122   2.267  0.00  0.00    -0.448 OA
ATOM     14  C   UNL     1      -9.777  -4.079   4.440  0.00  0.00    +0.093 C 
ATOM     15  C   UNL     1     -10.476  -2.902   5.168  0.00  0.00    +0.008 C 
ATOM     16  C   UNL     1     -10.602  -1.832   4.055  0.00  0.00    +0.008 C 
ATOM     17  C   UNL     1      -9.292  -1.971   3.246  0.00  0.00    +0.093 C 
ENDBRANCH   3   5
BRANCH   1  18
ATOM     18  C   UNL     1      -1.613  -1.505   0.077  0.00  0.00    +0.161 C 
BRANCH  18  19
ATOM     19  N   UNL     1      -1.294  -1.327  -1.342  0.00  0.00    -0.288 N 
ATOM     20  C   UNL     1      -2.024  -0.481  -2.095  0.00  0.00    +0.298 C 
ATOM     21  O   UNL     1      -2.948   0.134  -1.598  0.00  0.00    -0.253 OA
ATOM     22  N   UNL     1      -1.731  -0.317  -3.401  0.00  0.00    -0.313 N 
ATOM     23  H   UNL     1      -0.558  -1.818  -1.739  0.00  0.00    +0.151 HD
ATOM     24  H   UNL     1      -0.995  -0.808  -3.798  0.00  0.00    +0.146 HD
ATOM     25  H   UNL     1      -2.257   0.291  -3.943  0.00  0.00    +0.146 HD
ENDBRANCH  18  19
BRANCH  18  26
ATOM     26  C   UNL     1      -1.487  -0.163   0.800  0.00  0.00    +0.042 C 
BRANCH  26  27
ATOM     27  C   UNL     1      -0.029   0.299   0.768  0.00  0.00    +0.071 C 
BRANCH  27  29
ATOM     28  C   UNL     1       1.885   2.294   1.499  0.00  0.00    +0.084 C 
ATOM     29  S   UNL     1       0.121   1.891   1.626  0.00  0.00    -0.164 S 
ENDBRANCH  27  29
ENDBRANCH  26  27
ENDBRANCH  18  26
ENDBRANCH   1  18
TORSDOF 6
