REMARK  Name = ZINC26998129
REMARK  6 active torsions:
REMARK  status: ('A' for Active; 'I' for Inactive)
REMARK    1  A    between atoms: C_1  and  C_2
REMARK    2  A    between atoms: C_2  and  C_4
REMARK    3  A    between atoms: C_2  and  N_19
REMARK    4  A    between atoms: N_6  and  C_7
REMARK    5  A    between atoms: C_8  and  C_17
REMARK    6  A    between atoms: N_19  and  C_20
REMARK                            x       y       z     vdW  Elec       q    Type
REMARK                         _______ _______ _______ _____ _____    ______ ____
ROOT
ATOM      1  C   UNL     1       0.707  -0.490  -1.238  0.00  0.00    +0.238 C 
ATOM      2  O   UNL     1       0.120  -1.191  -2.034  0.00  0.00    -0.273 OA
ATOM      3  N   UNL     1       1.991  -0.146  -1.462  0.00  0.00    -0.277 N 
ATOM      4  H   UNL     1       2.461   0.415  -0.825  0.00  0.00    +0.155 HD
ENDROOT
BRANCH   3   5
ATOM      5  C   UNL     1       2.641  -0.593  -2.603  0.00  0.00    +0.090 A 
ATOM      6  C   UNL     1       3.946  -0.348  -2.992  0.00  0.00    +0.084 A 
ATOM      7  C   UNL     1       4.394  -0.936  -4.245  0.00  0.00    -0.018 A 
ATOM      8  C   UNL     1       3.447  -1.658  -4.881  0.00  0.00    -0.004 A 
ATOM      9  S   UNL     1       2.026  -1.564  -3.828  0.00  0.00    -0.077 S 
ATOM     10  C   UNL     1       3.567  -2.374  -6.189  0.00  0.00    +0.043 C 
ATOM     11  C   UNL     1       4.848  -3.220  -6.184  0.00  0.00    +0.005 C 
ATOM     12  C   UNL     1       5.998  -2.365  -6.709  0.00  0.00    +0.001 C 
ATOM     13  C   UNL     1       5.798  -0.906  -6.306  0.00  0.00    +0.005 C 
ATOM     14  C   UNL     1       5.806  -0.766  -4.787  0.00  0.00    +0.037 C 
BRANCH   6  15
ATOM     15  C   UNL     1       4.821   0.455  -2.191  0.00  0.00    +0.102 C 
ATOM     16  N   UNL     1       5.515   1.091  -1.556  0.00  0.00    -0.191 NA
ENDBRANCH   6  15
ENDBRANCH   3   5
BRANCH   1  18
ATOM     17  C   UNL     1      -0.019   1.526   0.010  0.00  0.00    +0.038 C 
ATOM     18  C   UNL     1       0.002  -0.004   0.002  0.00  0.00    +0.154 C 
BRANCH  18  19
ATOM     19  N   UNL     1      -1.372  -0.511   0.012  0.00  0.00    -0.333 N 
ATOM     20  H   UNL     1      -1.810  -0.743  -0.822  0.00  0.00    +0.147 HD
BRANCH  19  21
ATOM     21  C   UNL     1      -2.053  -0.661   1.224  0.00  0.00    +0.031 A 
ATOM     22  C   UNL     1      -1.429  -0.323   2.419  0.00  0.00    +0.026 A 
ATOM     23  C   UNL     1      -2.103  -0.471   3.615  0.00  0.00    +0.043 A 
ATOM     24  C   UNL     1      -3.399  -0.956   3.627  0.00  0.00    +0.159 A 
ATOM     25  C   UNL     1      -4.025  -1.294   2.436  0.00  0.00    +0.160 A 
ATOM     26  C   UNL     1      -3.356  -1.141   1.235  0.00  0.00    +0.064 A 
ATOM     27  F   UNL     1      -5.290  -1.768   2.449  0.00  0.00    -0.202 F 
ATOM     28  F   UNL     1      -4.056  -1.100   4.798  0.00  0.00    -0.202 F 
ENDBRANCH  19  21
ENDBRANCH  18  19
ENDBRANCH   1  18
TORSDOF 5
