REMARK  Name = ZINC16755698
REMARK  7 active torsions:
REMARK  status: ('A' for Active; 'I' for Inactive)
REMARK    1  A    between atoms: C_1  and  C_2
REMARK    2  A    between atoms: C_3  and  C_24
REMARK    3  A    between atoms: N_9  and  C_23
REMARK    4  A    between atoms: C_10  and  S_12
REMARK    5  A    between atoms: S_12  and  C_13
REMARK    6  A    between atoms: C_13  and  C_14
REMARK    7  A    between atoms: C_14  and  C_16
REMARK                            x       y       z     vdW  Elec       q    Type
REMARK                         _______ _______ _______ _____ _____    ______ ____
ROOT
ATOM      1  C   UNL     1      -7.013  -5.950   0.040  0.00  0.00    +0.045 C 
ATOM      2  C   UNL     1      -6.559  -4.513   0.042  0.00  0.00    -0.026 A 
ATOM      3  C   UNL     1      -7.459  -3.518   0.056  0.00  0.00    -0.008 A 
ATOM      4  S   UNL     1      -6.450  -2.048   0.054  0.00  0.00    -0.073 S 
ATOM      5  C   UNL     1      -4.849  -2.812   0.034  0.00  0.00    +0.117 A 
ATOM      6  C   UNL     1      -5.143  -4.189   0.030  0.00  0.00    +0.075 A 
ATOM      7  C   UNL     1      -4.014  -5.067   0.014  0.00  0.00    +0.263 A 
ATOM      8  O   UNL     1      -4.171  -6.276   0.009  0.00  0.00    -0.267 OA
ATOM      9  N   UNL     1      -2.775  -4.541   0.004  0.00  0.00    -0.290 N 
ATOM     10  C   UNL     1      -2.579  -3.190   0.010  0.00  0.00    +0.173 A 
ATOM     11  N   UNL     1      -3.601  -2.359   0.029  0.00  0.00    -0.216 NA
ATOM     12  C   UNL     1      -1.615  -5.435  -0.012  0.00  0.00    +0.154 C 
ATOM     13  C   UNL     1      -8.962  -3.618   0.070  0.00  0.00    +0.052 C 
ENDROOT
BRANCH  10  14
ATOM     14  S   UNL     1      -0.938  -2.550  -0.003  0.00  0.00    -0.080 S 
BRANCH  14  15
ATOM     15  C   UNL     1      -1.293  -0.775   0.010  0.00  0.00    +0.157 C 
BRANCH  15  16
ATOM     16  C   UNL     1       0.002  -0.004   0.002  0.00  0.00    +0.174 C 
ATOM     17  O   UNL     1       1.060  -0.596  -0.011  0.00  0.00    -0.291 OA
BRANCH  16  18
ATOM     18  C   UNL     1      -0.018   1.467   0.010  0.00  0.00    +0.032 A 
ATOM     19  C   UNL     1      -1.237   2.154   0.020  0.00  0.00    +0.012 A 
ATOM     20  C   UNL     1      -1.247   3.532   0.032  0.00  0.00    +0.001 A 
ATOM     21  C   UNL     1      -0.056   4.237   0.024  0.00  0.00    +0.001 A 
ATOM     22  C   UNL     1       1.154   3.567   0.010  0.00  0.00    +0.016 A 
ATOM     23  C   UNL     1       1.182   2.187   0.003  0.00  0.00    +0.028 A 
ATOM     24 BR   UNL     1       2.837   1.272  -0.018  0.00  0.00    -0.050 Br
ENDBRANCH  16  18
ENDBRANCH  15  16
ENDBRANCH  14  15
ENDBRANCH  10  14
TORSDOF 4
