REMARK  Name = ZINC33028439
REMARK  9 active torsions:
REMARK  status: ('A' for Active; 'I' for Inactive)
REMARK    1  A    between atoms: C_1  and  C_2
REMARK    2  A    between atoms: N_4  and  C_5
REMARK    3  A    between atoms: C_5  and  C_7
REMARK    4  A    between atoms: C_5  and  C_18
REMARK    5  A    between atoms: C_7  and  C_8
REMARK    6  A    between atoms: N_20  and  C_21
REMARK    7  A    between atoms: C_21  and  C_22
REMARK    8  A    between atoms: C_22  and  C_24
REMARK    9  A    between atoms: C_22  and  N_31
REMARK                            x       y       z     vdW  Elec       q    Type
REMARK                         _______ _______ _______ _____ _____    ______ ____
ROOT
ATOM      1  C   UNL     1      -0.222   1.491   3.679  0.00  0.00    +0.234 C 
ATOM      2  O   UNL     1      -1.326   1.956   3.870  0.00  0.00    -0.274 OA
ATOM      3  N   UNL     1       0.200   1.254   2.421  0.00  0.00    -0.315 N 
ATOM      4  H   UNL     1       1.201   0.832   2.247  0.00  0.00    +0.149 HD
ENDROOT
BRANCH   1   5
ATOM      5  C   UNL     1       0.677   1.178   4.847  0.00  0.00    +0.163 C 
BRANCH   5   9
ATOM      6  C   UNL     1      -1.470   2.523   7.717  0.00  0.00    +0.109 C 
ATOM      7  C   UNL     1      -1.012   1.748   6.509  0.00  0.00    +0.211 C 
ATOM      8  O   UNL     1      -1.762   0.958   5.975  0.00  0.00    -0.276 OA
ATOM      9  N   UNL     1       0.231   1.932   6.022  0.00  0.00    -0.304 N 
ATOM     10  H   UNL     1       0.912   2.648   6.506  0.00  0.00    +0.149 HD
ENDBRANCH   5   9
BRANCH   5  11
ATOM     11  C   UNL     1       0.616  -0.321   5.150  0.00  0.00    +0.069 C 
BRANCH  11  12
ATOM     12  C   UNL     1       1.606  -0.654   6.236  0.00  0.00    -0.020 A 
ATOM     13  C   UNL     1       2.860  -1.101   6.064  0.00  0.00    +0.087 A 
ATOM     14  N   UNL     1       3.458  -1.293   7.279  0.00  0.00    -0.360 N 
ATOM     15  H   UNL     1       4.494  -1.659   7.331  0.00  0.00    +0.165 HD
ATOM     16  C   UNL     1       2.581  -0.966   8.289  0.00  0.00    +0.047 A 
ATOM     17  C   UNL     1       1.385  -0.545   7.680  0.00  0.00    +0.003 A 
ATOM     18  C   UNL     1       0.305  -0.143   8.468  0.00  0.00    +0.010 A 
ATOM     19  C   UNL     1       0.418  -0.156   9.830  0.00  0.00    +0.001 A 
ATOM     20  C   UNL     1       1.597  -0.566  10.436  0.00  0.00    +0.002 A 
ATOM     21  C   UNL     1       2.672  -0.975   9.677  0.00  0.00    +0.026 A 
ENDBRANCH  11  12
ENDBRANCH   5  11
ENDBRANCH   1   5
BRANCH   3  22
ATOM     22  C   UNL     1      -0.674   1.559   1.285  0.00  0.00    +0.093 C 
BRANCH  22  23
ATOM     23  C   UNL     1      -0.009   1.089  -0.010  0.00  0.00    -0.019 C 
BRANCH  23  24
ATOM     24  C   UNL     1       1.239   1.898  -0.255  0.00  0.00    -0.041 A 
ATOM     25  C   UNL     1       2.477   1.375   0.072  0.00  0.00    +0.003 A 
ATOM     26  C   UNL     1       3.622   2.114  -0.157  0.00  0.00    +0.000 A 
ATOM     27  C   UNL     1       3.530   3.381  -0.704  0.00  0.00    +0.001 A 
ATOM     28  C   UNL     1       2.293   3.906  -1.026  0.00  0.00    +0.020 A 
ATOM     29  C   UNL     1       1.147   3.165  -0.802  0.00  0.00    +0.043 A 
ATOM     30 CL   UNL     1      -0.407   3.825  -1.207  0.00  0.00    -0.083 Cl
ENDBRANCH  23  24
BRANCH  23  31
ATOM     31  N   UNL     1       0.343  -0.332   0.107  0.00  0.00    +0.385 N 
ATOM     32  C   UNL     1      -0.844  -1.146   0.474  0.00  0.00    -0.078 C 
ATOM     33  C   UNL     1      -0.440  -2.578   0.042  0.00  0.00    -0.020 C 
ATOM     34  C   UNL     1       0.347  -2.334  -1.266  0.00  0.00    -0.020 C 
ATOM     35  C   UNL     1       0.815  -0.869  -1.188  0.00  0.00    -0.078 C 
ATOM     36  H   UNL     1       1.128  -0.383   0.875  0.00  0.00    -0.081 HD
ENDBRANCH  23  31
ENDBRANCH  22  23
ENDBRANCH   3  22
TORSDOF 8
