REMARK  Name = ZINC08549293
REMARK  6 active torsions:
REMARK  status: ('A' for Active; 'I' for Inactive)
REMARK    1  A    between atoms: C_1  and  C_2
REMARK    2  A    between atoms: C_4  and  C_11
REMARK    3  A    between atoms: C_7  and  N_8
REMARK    4  A    between atoms: C_11  and  C_13
REMARK    5  A    between atoms: C_13  and  C_27
REMARK    6  A    between atoms: C_18  and  C_23
REMARK                            x       y       z     vdW  Elec       q    Type
REMARK                         _______ _______ _______ _____ _____    ______ ____
ROOT
ATOM      1  C   UNL     1       0.023  -4.125  -2.625  0.00  0.00    +0.127 C 
ATOM      2  C   UNL     1      -0.167  -4.777  -3.855  0.00  0.00    +0.092 C 
ATOM      3  N   UNL     1      -0.516  -4.225  -5.045  0.00  0.00    -0.307 N 
ATOM      4  C   UNL     1      -0.658  -5.028  -6.160  0.00  0.00    +0.046 A 
ATOM      5  C   UNL     1      -1.008  -4.670  -7.469  0.00  0.00    +0.036 A 
ATOM      6  C   UNL     1      -1.099  -5.625  -8.455  0.00  0.00    +0.057 A 
ATOM      7  C   UNL     1      -0.849  -6.960  -8.186  0.00  0.00    +0.013 A 
ATOM      8  C   UNL     1      -0.502  -7.340  -6.901  0.00  0.00    +0.017 A 
ATOM      9  C   UNL     1      -0.410  -6.386  -5.915  0.00  0.00    +0.035 A 
ATOM     10  S   UNL     1      -0.005  -6.417  -4.188  0.00  0.00    -0.071 S 
ATOM     11  H   UNL     1      -0.666  -3.269  -5.111  0.00  0.00    +0.153 HD
ENDROOT
BRANCH   6  12
ATOM     12  C   UNL     1      -1.477  -5.211  -9.854  0.00  0.00    +0.417 C 
ATOM     13  F   UNL     1      -0.321  -4.903 -10.578  0.00  0.00    -0.166 F 
ATOM     14  F   UNL     1      -2.156  -6.259 -10.483  0.00  0.00    -0.166 F 
ATOM     15  F   UNL     1      -2.306  -4.085  -9.798  0.00  0.00    -0.166 F 
ENDBRANCH   6  12
BRANCH   1  16
ATOM     16  C   UNL     1      -0.159  -2.726  -2.531  0.00  0.00    +0.206 C 
ATOM     17  O   UNL     1      -0.385  -2.072  -3.534  0.00  0.00    -0.286 OA
BRANCH  16  21
ATOM     18  C   UNL     1       1.070   1.255   0.217  0.00  0.00    +0.046 C 
ATOM     19  C   UNL     1       0.515  -0.142   0.112  0.00  0.00    -0.020 A 
ATOM     20  C   UNL     1       0.440  -0.762  -1.119  0.00  0.00    +0.017 A 
ATOM     21  C   UNL     1      -0.074  -2.056  -1.214  0.00  0.00    +0.023 A 
ATOM     22  C   UNL     1      -0.508  -2.715  -0.063  0.00  0.00    +0.014 A 
ATOM     23  C   UNL     1      -0.427  -2.084   1.161  0.00  0.00    +0.034 A 
ATOM     24  C   UNL     1       0.088  -0.803   1.250  0.00  0.00    +0.129 A 
BRANCH  24  25
ATOM     25  N   UNL     1       0.178  -0.134   2.567  0.00  0.00    +0.057 N 
ATOM     26  O   UNL     1       1.127   0.569   2.825  0.00  0.00    -0.126 OA
ATOM     27  O   UNL     1      -0.698  -0.292   3.386  0.00  0.00    -0.126 OA
ENDBRANCH  24  25
ENDBRANCH  16  21
ENDBRANCH   1  16
BRANCH   1  28
ATOM     28  C   UNL     1       0.400  -4.878  -1.466  0.00  0.00    +0.105 C 
ATOM     29  N   UNL     1       0.699  -5.475  -0.547  0.00  0.00    -0.191 NA
ENDBRANCH   1  28
TORSDOF 5
