REMARK  Name = ZINC49565870
REMARK  5 active torsions:
REMARK  status: ('A' for Active; 'I' for Inactive)
REMARK    1  A    between atoms: C_4  and  C_7
REMARK    2  A    between atoms: C_7  and  C_9
REMARK    3  A    between atoms: C_7  and  S_15
REMARK    4  A    between atoms: S_15  and  C_16
REMARK    5  A    between atoms: N_20  and  C_21
REMARK                            x       y       z     vdW  Elec       q    Type
REMARK                         _______ _______ _______ _____ _____    ______ ____
ROOT
ATOM      1  C   UNL     1       3.711  -0.707  -0.038  0.00  0.00    +0.170 C 
ENDROOT
BRANCH   1   2
ATOM      2  C   UNL     1       3.816  -1.579   1.188  0.00  0.00    +0.238 C 
ATOM      3  O   UNL     1       3.579  -2.765   1.109  0.00  0.00    -0.274 OA
ATOM      4  N   UNL     1       4.172  -1.039   2.370  0.00  0.00    -0.239 N 
ATOM      5  C   UNL     1       4.265  -1.818   3.466  0.00  0.00    +0.303 C 
ATOM      6  O   UNL     1       4.028  -3.007   3.387  0.00  0.00    -0.253 OA
ATOM      7  N   UNL     1       4.621  -1.278   4.648  0.00  0.00    -0.313 N 
ATOM      8  H   UNL     1       4.361  -0.089   2.433  0.00  0.00    +0.159 HD
ATOM      9  H   UNL     1       4.810  -0.329   4.711  0.00  0.00    +0.146 HD
ATOM     10  H   UNL     1       4.688  -1.839   5.437  0.00  0.00    +0.146 HD
ENDBRANCH   1   2
BRANCH   1  14
ATOM     11  C   UNL     1      -0.017   1.378   0.010  0.00  0.00    +0.000 A 
ATOM     12  C   UNL     1       1.171   2.086   0.002  0.00  0.00    +0.000 A 
ATOM     13  C   UNL     1       2.377   1.411  -0.013  0.00  0.00    +0.005 A 
ATOM     14  C   UNL     1       2.396   0.029  -0.020  0.00  0.00    -0.025 A 
ATOM     15  C   UNL     1       1.208  -0.679  -0.012  0.00  0.00    +0.005 A 
ATOM     16  C   UNL     1       0.002  -0.004   0.002  0.00  0.00    +0.000 A 
ENDBRANCH   1  14
BRANCH   1  17
ATOM     17  S   UNL     1       3.806  -1.741  -1.525  0.00  0.00    -0.068 S 
BRANCH  17  18
ATOM     18  C   UNL     1       3.820  -0.581  -2.851  0.00  0.00    +0.197 A 
ATOM     19  N   UNL     1       3.777   0.727  -2.744  0.00  0.00    -0.122 NA
ATOM     20  N   UNL     1       3.803   1.263  -3.912  0.00  0.00    -0.137 NA
ATOM     21  C   UNL     1       3.864   0.338  -4.829  0.00  0.00    +0.230 A 
ATOM     22  N   UNL     1       3.883  -0.871  -4.186  0.00  0.00    -0.277 N 
BRANCH  22  23
ATOM     23  C   UNL     1       3.950  -2.143  -4.774  0.00  0.00    +0.051 A 
ATOM     24  C   UNL     1       4.882  -3.069  -4.325  0.00  0.00    +0.026 A 
ATOM     25  C   UNL     1       4.947  -4.320  -4.906  0.00  0.00    +0.003 A 
ATOM     26  C   UNL     1       4.084  -4.652  -5.935  0.00  0.00    +0.020 A 
ATOM     27  C   UNL     1       3.155  -3.731  -6.385  0.00  0.00    +0.043 A 
ATOM     28  C   UNL     1       3.082  -2.479  -5.803  0.00  0.00    +0.046 A 
ATOM     29 CL   UNL     1       2.074  -4.151  -7.678  0.00  0.00    -0.083 Cl
ENDBRANCH  22  23
ENDBRANCH  17  18
ENDBRANCH   1  17
TORSDOF 5
