REMARK  Name = ZINC01340008
REMARK  6 active torsions:
REMARK  status: ('A' for Active; 'I' for Inactive)
REMARK    1  A    between atoms: C_1  and  C_2
REMARK    2  A    between atoms: C_2  and  C_3
REMARK    3  A    between atoms: C_8  and  C_27
REMARK    4  A    between atoms: C_12  and  S_13
REMARK    5  A    between atoms: S_13  and  C_14
REMARK    6  A    between atoms: C_14  and  C_15
REMARK                            x       y       z     vdW  Elec       q    Type
REMARK                         _______ _______ _______ _____ _____    ______ ____
ROOT
ATOM      1  S   UNL     1       0.373   3.195   7.216  0.00  0.00    -0.096 S 
ENDROOT
BRANCH   1  11
ATOM      2  C   UNL     1      -1.960   3.139   5.787  0.00  0.00    -0.015 A 
ATOM      3  C   UNL     1      -2.706   2.921   4.669  0.00  0.00    +0.016 A 
ATOM      4  C   UNL     1      -2.051   2.466   3.506  0.00  0.00    +0.001 A 
ATOM      5  C   UNL     1      -2.760   2.222   2.320  0.00  0.00    +0.010 A 
ATOM      6  C   UNL     1      -2.094   1.787   1.214  0.00  0.00    +0.004 A 
ATOM      7  C   UNL     1      -0.718   1.572   1.248  0.00  0.00    -0.048 A 
ATOM      8  C   UNL     1       0.000   1.799   2.382  0.00  0.00    +0.031 A 
ATOM      9  C   UNL     1      -0.652   2.252   3.542  0.00  0.00    +0.073 A 
ATOM     10  N   UNL     1       0.030   2.484   4.669  0.00  0.00    -0.240 NA
ATOM     11  C   UNL     1      -0.576   2.909   5.759  0.00  0.00    +0.101 A 
ATOM     12  C   UNL     1      -0.013   1.086   0.008  0.00  0.00    +0.044 C 
BRANCH   2  14
ATOM     13  C   UNL     1      -2.513   5.149   7.129  0.00  0.00    +0.009 C 
ATOM     14  C   UNL     1      -2.619   3.625   7.052  0.00  0.00    +0.034 C 
ENDBRANCH   2  14
ENDBRANCH   1  11
BRANCH   1  15
ATOM     15  C   UNL     1       2.020   2.750   6.610  0.00  0.00    +0.172 C 
BRANCH  15  16
ATOM     16  C   UNL     1       3.026   2.922   7.719  0.00  0.00    +0.229 C 
ATOM     17  O   UNL     1       2.666   3.308   8.810  0.00  0.00    -0.275 OA
ATOM     18  N   UNL     1       4.327   2.647   7.497  0.00  0.00    -0.264 N 
ATOM     19  C   UNL     1       5.255   2.807   8.519  0.00  0.00    +0.165 A 
ATOM     20  N   UNL     1       5.062   3.216   9.756  0.00  0.00    -0.229 NA
ATOM     21  C   UNL     1       6.058   3.315  10.633  0.00  0.00    +0.054 A 
ATOM     22  C   UNL     1       7.292   2.979  10.174  0.00  0.00    +0.014 A 
ATOM     23  S   UNL     1       6.970   2.524   8.492  0.00  0.00    -0.057 S 
ATOM     24  C   UNL     1       8.582   2.999  10.920  0.00  0.00    +0.044 C 
ATOM     25  C   UNL     1       8.380   3.810  12.211  0.00  0.00    +0.006 C 
ATOM     26  C   UNL     1       7.091   3.338  12.890  0.00  0.00    +0.006 C 
ATOM     27  C   UNL     1       5.874   3.777  12.074  0.00  0.00    +0.056 C 
ATOM     28  H   UNL     1       4.615   2.338   6.624  0.00  0.00    +0.157 HD
ENDBRANCH  15  16
ENDBRANCH   1  15
TORSDOF 4
