REMARK  Name = ZINC23038244
REMARK  10 active torsions:
REMARK  status: ('A' for Active; 'I' for Inactive)
REMARK    1  A    between atoms: C_1  and  C_2
REMARK    2  A    between atoms: C_2  and  C_3
REMARK    3  A    between atoms: C_3  and  N_4
REMARK    4  A    between atoms: N_4  and  C_5
REMARK    5  A    between atoms: N_4  and  C_16
REMARK    6  A    between atoms: C_5  and  C_6
REMARK    7  A    between atoms: N_8  and  C_9
REMARK    8  A    between atoms: C_14  and  C_15
REMARK    9  A    between atoms: C_16  and  C_17
REMARK   10  A    between atoms: C_27  and  C_29
REMARK                            x       y       z     vdW  Elec       q    Type
REMARK                         _______ _______ _______ _____ _____    ______ ____
ROOT
ATOM      1  N   UNL     1       5.181   4.712   0.508  0.00  0.00    +0.391 N 
ATOM      2  H   UNL     1       4.932   3.998  -0.291  0.00  0.00    -0.080 HD
ENDROOT
BRANCH   1   3
ATOM      3  C   UNL     1       4.886   4.068   1.796  0.00  0.00    -0.078 C 
BRANCH   3   5
ATOM      4  C   UNL     1       5.006   1.923   3.072  0.00  0.00    +0.002 C 
ATOM      5  C   UNL     1       5.428   2.637   1.786  0.00  0.00    -0.022 C 
ENDBRANCH   3   5
ENDBRANCH   1   3
BRANCH   1   6
ATOM      6  C   UNL     1       4.352   5.910   0.317  0.00  0.00    +0.020 C 
BRANCH   6   7
ATOM      7  C   UNL     1       2.905   5.506   0.194  0.00  0.00    +0.201 C 
ATOM      8  O   UNL     1       2.595   4.335   0.259  0.00  0.00    -0.278 OA
ATOM      9  N   UNL     1       1.956   6.445   0.012  0.00  0.00    -0.287 N 
ATOM     10  H   UNL     1       2.244   7.497  -0.131  0.00  0.00    +0.155 HD
BRANCH   9  11
ATOM     11  C   UNL     1       0.605   6.082   0.003  0.00  0.00    +0.036 A 
ATOM     12  C   UNL     1       0.221   4.839  -0.483  0.00  0.00    +0.023 A 
ATOM     13  C   UNL     1      -1.113   4.484  -0.489  0.00  0.00    +0.002 A 
ATOM     14  C   UNL     1      -2.067   5.367  -0.017  0.00  0.00    +0.000 A 
ATOM     15  C   UNL     1      -1.688   6.603   0.473  0.00  0.00    +0.005 A 
ATOM     16  C   UNL     1      -0.355   6.964   0.482  0.00  0.00    -0.029 A 
ATOM     17  C   UNL     1       0.057   8.313   1.011  0.00  0.00    +0.045 C 
ENDBRANCH   9  11
ENDBRANCH   6   7
ENDBRANCH   1   6
BRANCH   1  18
ATOM     18  C   UNL     1       6.609   5.036   0.396  0.00  0.00    +0.019 C 
BRANCH  18  19
ATOM     19  C   UNL     1       6.971   5.213  -1.056  0.00  0.00    +0.200 C 
ATOM     20  O   UNL     1       6.120   5.093  -1.912  0.00  0.00    -0.278 OA
ATOM     21  N   UNL     1       8.240   5.505  -1.403  0.00  0.00    -0.291 N 
ATOM     22  C   UNL     1       9.298   5.561  -0.384  0.00  0.00    +0.114 C 
ATOM     23  C   UNL     1      10.305   4.432  -0.679  0.00  0.00    +0.062 C 
ATOM     24  C   UNL     1      10.568   4.399  -2.150  0.00  0.00    -0.003 A 
ATOM     25  C   UNL     1       9.838   4.974  -3.143  0.00  0.00    -0.012 A 
ATOM     26  C   UNL     1      10.298   4.787  -4.446  0.00  0.00    +0.013 A 
ATOM     27  C   UNL     1      11.419   4.065  -4.671  0.00  0.00    +0.046 A 
ATOM     28  S   UNL     1      11.896   3.600  -3.013  0.00  0.00    -0.101 S 
ATOM     29  C   UNL     1       8.585   5.779  -2.805  0.00  0.00    +0.144 C 
BRANCH  29  30
ATOM     30  C   UNL     1       7.449   5.357  -3.702  0.00  0.00    +0.015 A 
ATOM     31  C   UNL     1       6.767   6.088  -4.617  0.00  0.00    +0.013 A 
ATOM     32  C   UNL     1       5.751   5.485  -5.334  0.00  0.00    +0.008 A 
ATOM     33  C   UNL     1       5.466   4.181  -5.101  0.00  0.00    +0.045 A 
ATOM     34  S   UNL     1       6.658   3.762  -3.839  0.00  0.00    -0.099 S 
ENDBRANCH  29  30
ENDBRANCH  18  19
ENDBRANCH   1  18
TORSDOF 8
