REMARK  Name = ZINC22289471
REMARK  4 active torsions:
REMARK  status: ('A' for Active; 'I' for Inactive)
REMARK    1  A    between atoms: C_8  and  C_10
REMARK    2  A    between atoms: C_13  and  C_15
REMARK    3  A    between atoms: C_20  and  C_23
REMARK    4  A    between atoms: C_23  and  N_24
REMARK                            x       y       z     vdW  Elec       q    Type
REMARK                         _______ _______ _______ _____ _____    ______ ____
ROOT
ATOM      1  C   UNL     1       3.018  -8.165  -0.073  0.00  0.00    +0.256 C 
ATOM      2  O   UNL     1       4.002  -8.881  -0.083  0.00  0.00    -0.269 OA
ATOM      3  N   UNL     1       1.786  -8.711  -0.071  0.00  0.00    -0.260 N 
ATOM      4  C   UNL     1       1.640 -10.092  -0.079  0.00  0.00    +0.165 A 
ATOM      5  N   UNL     1       0.528 -10.796  -0.083  0.00  0.00    -0.231 NA
ATOM      6  C   UNL     1       0.557 -12.116  -0.091  0.00  0.00    +0.034 A 
ATOM      7  C   UNL     1       1.777 -12.706  -0.095  0.00  0.00    +0.070 A 
ATOM      8  S   UNL     1       2.840 -11.271  -0.093  0.00  0.00    -0.060 S 
ATOM      9  H   UNL     1       1.002  -8.140  -0.063  0.00  0.00    +0.157 HD
ENDROOT
BRANCH   1  13
ATOM     10  C   UNL     1       2.979  -4.014  -0.048  0.00  0.00    +0.045 A 
ATOM     11  C   UNL     1       4.240  -4.591  -0.057  0.00  0.00    +0.019 A 
ATOM     12  C   UNL     1       4.339  -5.953  -0.066  0.00  0.00    +0.021 A 
ATOM     13  C   UNL     1       3.173  -6.706  -0.065  0.00  0.00    +0.075 A 
ATOM     14  S   UNL     1       1.911  -5.444  -0.044  0.00  0.00    -0.082 S 
BRANCH  10  22
ATOM     15  C   UNL     1      -0.016   1.355   0.009  0.00  0.00    +0.002 A 
ATOM     16  C   UNL     1       1.155   2.101   0.002  0.00  0.00    +0.001 A 
ATOM     17  C   UNL     1       2.373   1.448  -0.013  0.00  0.00    +0.017 A 
ATOM     18  C   UNL     1       2.404   0.075  -0.021  0.00  0.00    +0.040 A 
ATOM     19  C   UNL     1       1.228  -0.713  -0.013  0.00  0.00    +0.079 A 
ATOM     20  C   UNL     1       0.002  -0.004   0.002  0.00  0.00    +0.029 A 
ATOM     21  N   UNL     1       1.416  -2.041  -0.022  0.00  0.00    -0.239 NA
ATOM     22  C   UNL     1       2.614  -2.588  -0.037  0.00  0.00    +0.116 A 
ATOM     23  S   UNL     1       3.684  -1.156  -0.039  0.00  0.00    -0.067 S 
ENDBRANCH  10  22
ENDBRANCH   1  13
BRANCH   6  24
ATOM     24  C   UNL     1      -0.711 -12.931  -0.096  0.00  0.00    -0.022 C 
BRANCH  24  25
ATOM     25  N   UNL     1      -1.188 -13.102   1.283  0.00  0.00    +0.383 N 
ATOM     26  C   UNL     1      -0.212 -13.892   2.043  0.00  0.00    -0.078 C 
ATOM     27  C   UNL     1      -0.664 -14.004   3.500  0.00  0.00    -0.019 C 
ATOM     28  C   UNL     1      -2.031 -14.692   3.553  0.00  0.00    -0.004 C 
ATOM     29  C   UNL     1      -3.024 -13.900   2.697  0.00  0.00    -0.019 C 
ATOM     30  C   UNL     1      -2.484 -13.791   1.269  0.00  0.00    -0.078 C 
ATOM     31  H   UNL     1      -1.295 -12.196   1.716  0.00  0.00    -0.081 HD
ENDBRANCH  24  25
ENDBRANCH   6  24
TORSDOF 4
