REMARK  Name = ZINC67178939
REMARK  9 active torsions:
REMARK  status: ('A' for Active; 'I' for Inactive)
REMARK    1  A    between atoms: C_1  and  C_2
REMARK    2  A    between atoms: C_2  and  C_3
REMARK    3  A    between atoms: C_2  and  C_4
REMARK    4  A    between atoms: C_4  and  C_5
REMARK    5  A    between atoms: C_5  and  C_7
REMARK    6  A    between atoms: C_5  and  N_25
REMARK    7  A    between atoms: C_12  and  N_15
REMARK    8  A    between atoms: C_16  and  O_18
REMARK    9  A    between atoms: O_18  and  C_19
REMARK                            x       y       z     vdW  Elec       q    Type
REMARK                         _______ _______ _______ _____ _____    ______ ____
ROOT
ATOM      1  C   UNL     1       2.889  -0.930  -2.229  0.00  0.00    +0.236 C 
ATOM      2  O   UNL     1       3.169  -0.230  -3.179  0.00  0.00    -0.274 OA
ATOM      3  N   UNL     1       3.212  -2.238  -2.237  0.00  0.00    -0.300 N 
ATOM      4  C   UNL     1       2.874  -3.100  -1.096  0.00  0.00    +0.109 C 
ATOM      5  C   UNL     1       4.145  -3.811  -0.621  0.00  0.00    +0.041 C 
ATOM      6  C   UNL     1       4.782  -4.550  -1.800  0.00  0.00    +0.079 C 
ATOM      7  C   UNL     1       5.168  -3.545  -2.886  0.00  0.00    +0.041 C 
ATOM      8  C   UNL     1       3.904  -2.832  -3.389  0.00  0.00    +0.109 C 
ENDROOT
BRANCH   6   9
ATOM      9  N   UNL     1       5.980  -5.259  -1.342  0.00  0.00    -0.278 N 
ATOM     10  C   UNL     1       6.418  -6.343  -2.011  0.00  0.00    +0.406 C 
ATOM     11  O   UNL     1       5.820  -6.734  -2.994  0.00  0.00    -0.226 OA
ATOM     12  H   UNL     1       6.457  -4.947  -0.557  0.00  0.00    +0.152 HD
BRANCH  10  13
ATOM     13  O   UNL     1       7.519  -6.995  -1.590  0.00  0.00    -0.412 OA
BRANCH  13  14
ATOM     14  C   UNL     1       7.867  -8.141  -2.232  0.00  0.00    +0.133 A 
ATOM     15  C   UNL     1       7.618  -9.371  -1.641  0.00  0.00    +0.046 A 
ATOM     16  C   UNL     1       7.972 -10.535  -2.295  0.00  0.00    +0.004 A 
ATOM     17  C   UNL     1       8.574 -10.475  -3.538  0.00  0.00    +0.000 A 
ATOM     18  C   UNL     1       8.824  -9.251  -4.129  0.00  0.00    +0.004 A 
ATOM     19  C   UNL     1       8.466  -8.084  -3.482  0.00  0.00    +0.046 A 
ENDBRANCH  13  14
ENDBRANCH  10  13
ENDBRANCH   6   9
BRANCH   1  20
ATOM     20  C   UNL     1       2.180  -0.336  -1.039  0.00  0.00    +0.161 C 
BRANCH  20  21
ATOM     21  N   UNL     1       2.360   1.118  -1.038  0.00  0.00    -0.288 N 
ATOM     22  C   UNL     1       1.920   1.852  -2.079  0.00  0.00    +0.298 C 
ATOM     23  O   UNL     1       1.373   1.307  -3.019  0.00  0.00    -0.253 OA
ATOM     24  N   UNL     1       2.086   3.189  -2.079  0.00  0.00    -0.313 N 
ATOM     25  H   UNL     1       2.796   1.552  -0.289  0.00  0.00    +0.151 HD
ATOM     26  H   UNL     1       2.522   3.623  -1.329  0.00  0.00    +0.146 HD
ATOM     27  H   UNL     1       1.769   3.718  -2.828  0.00  0.00    +0.146 HD
ENDBRANCH  20  21
BRANCH  20  28
ATOM     28  C   UNL     1       0.688  -0.665  -1.119  0.00  0.00    +0.034 C 
BRANCH  28  30
ATOM     29  C   UNL     1      -1.528  -0.344  -0.008  0.00  0.00    +0.007 C 
ATOM     30  C   UNL     1      -0.018  -0.140   0.133  0.00  0.00    -0.015 C 
ATOM     31  C   UNL     1       0.487  -0.901   1.361  0.00  0.00    +0.007 C 
ENDBRANCH  28  30
ENDBRANCH  20  28
ENDBRANCH   1  20
TORSDOF 7
