REMARK  Name = ZINC40149303
REMARK  10 active torsions:
REMARK  status: ('A' for Active; 'I' for Inactive)
REMARK    1  A    between atoms: C_1  and  C_2
REMARK    2  A    between atoms: C_2  and  N_3
REMARK    3  A    between atoms: N_6  and  C_9
REMARK    4  A    between atoms: C_9  and  C_10
REMARK    5  A    between atoms: C_10  and  C_12
REMARK    6  A    between atoms: C_10  and  C_13
REMARK    7  A    between atoms: C_13  and  N_14
REMARK    8  A    between atoms: C_22  and  C_24
REMARK    9  A    between atoms: C_24  and  N_25
REMARK   10  A    between atoms: C_28  and  C_31
REMARK                            x       y       z     vdW  Elec       q    Type
REMARK                         _______ _______ _______ _____ _____    ______ ____
ROOT
ATOM      1  N   UNL     1       3.654  -5.899  -5.420  0.00  0.00    -0.328 N 
ATOM      2  C   UNL     1       4.098  -6.542  -6.562  0.00  0.00    +0.131 A 
ATOM      3  C   UNL     1       3.950  -7.949  -6.703  0.00  0.00    +0.051 A 
ATOM      4  C   UNL     1       3.353  -8.905  -5.757  0.00  0.00    -0.025 A 
ATOM      5  C   UNL     1       3.334 -10.195  -6.129  0.00  0.00    -0.004 A 
ATOM      6  S   UNL     1       4.091 -10.224  -7.738  0.00  0.00    -0.073 S 
ATOM      7  C   UNL     1       4.436  -8.494  -7.905  0.00  0.00    +0.114 A 
ATOM      8  N   UNL     1       4.993  -7.736  -8.831  0.00  0.00    -0.227 NA
ATOM      9  C   UNL     1       5.104  -6.435  -8.645  0.00  0.00    +0.116 A 
ATOM     10  N   UNL     1       4.664  -5.855  -7.542  0.00  0.00    -0.219 NA
ATOM     11  C   UNL     1       2.707 -11.079  -5.084  0.00  0.00    +0.043 C 
ATOM     12  C   UNL     1       2.716 -10.225  -3.798  0.00  0.00    +0.010 C 
ATOM     13  C   UNL     1       2.708  -8.795  -4.372  0.00  0.00    +0.037 C 
ATOM     14  H   UNL     1       3.241  -6.410  -4.707  0.00  0.00    +0.147 HD
ENDROOT
BRANCH   1  15
ATOM     15  C   UNL     1       3.807  -4.449  -5.289  0.00  0.00    +0.104 C 
BRANCH  15  16
ATOM     16  C   UNL     1       3.238  -3.995  -3.943  0.00  0.00    -0.014 C 
ATOM     17  C   UNL     1       4.072  -4.594  -2.809  0.00  0.00    +0.007 C 
BRANCH  16  18
ATOM     18  C   UNL     1       3.284  -2.468  -3.858  0.00  0.00    -0.074 C 
BRANCH  18  22
ATOM     19  N   UNL     1       0.690  -0.478  -1.207  0.00  0.00    -0.306 NA
ATOM     20  C   UNL     1       2.114  -0.114  -1.179  0.00  0.00    +0.066 C 
ATOM     21  C   UNL     1       2.779  -0.572  -2.479  0.00  0.00    -0.063 C 
ATOM     22  N   UNL     1       2.630  -2.027  -2.620  0.00  0.00    +0.382 N 
ATOM     23  C   UNL     1       1.203  -2.372  -2.670  0.00  0.00    -0.063 C 
ATOM     24  C   UNL     1       0.525  -1.929  -1.372  0.00  0.00    +0.066 C 
ATOM     25  H   UNL     1       3.059  -2.486  -1.831  0.00  0.00    -0.082 HD
BRANCH  19  27
ATOM     26  C   UNL     1      -0.019   1.526   0.010  0.00  0.00    +0.020 C 
ATOM     27  C   UNL     1       0.002  -0.004   0.002  0.00  0.00    +0.081 C 
ENDBRANCH  19  27
ENDBRANCH  18  22
ENDBRANCH  16  18
ENDBRANCH  15  16
ENDBRANCH   1  15
BRANCH   9  28
ATOM     28  C   UNL     1       5.743  -5.590  -9.716  0.00  0.00    -0.001 C 
BRANCH  28  29
ATOM     29  N   UNL     1       4.712  -5.126 -10.654  0.00  0.00    +0.384 N 
ATOM     30  C   UNL     1       3.779  -4.237  -9.951  0.00  0.00    -0.078 C 
ATOM     31  C   UNL     1       2.657  -3.814 -10.902  0.00  0.00    -0.016 C 
ATOM     32  C   UNL     1       3.261  -3.078 -12.101  0.00  0.00    -0.018 C 
ATOM     33  C   UNL     1       4.287  -3.989 -12.783  0.00  0.00    -0.016 C 
ATOM     34  C   UNL     1       5.349  -4.404 -11.762  0.00  0.00    -0.078 C 
ATOM     35  C   UNL     1       2.154  -2.723 -13.095  0.00  0.00    +0.007 C 
ATOM     36  H   UNL     1       4.207  -5.920 -11.017  0.00  0.00    -0.081 HD
ENDBRANCH  28  29
ENDBRANCH   9  28
TORSDOF 7
