REMARK  Name = ZINC05274980
REMARK  3 active torsions:
REMARK  status: ('A' for Active; 'I' for Inactive)
REMARK    1  A    between atoms: C_4  and  C_7
REMARK    2  A    between atoms: C_13  and  C_22
REMARK    3  A    between atoms: C_13  and  O_26
REMARK                            x       y       z     vdW  Elec       q    Type
REMARK                         _______ _______ _______ _____ _____    ______ ____
ROOT
ATOM      1  C   UNL     1      -0.017   1.363   0.009  0.00  0.00    +0.080 A 
ATOM      2  C   UNL     1       0.002  -0.004   0.002  0.00  0.00    +0.077 A 
ATOM      3  S   UNL     1       1.763  -0.312  -0.017  0.00  0.00    -0.058 S 
ATOM      4  C   UNL     1       2.289   1.396  -0.012  0.00  0.00    +0.184 A 
ATOM      5  N   UNL     1       1.129   2.029   0.002  0.00  0.00    -0.223 NA
ATOM      6  N   UNL     1       3.572   1.919  -0.022  0.00  0.00    -0.160 N 
ATOM      7  C   UNL     1       4.821   1.134  -0.033  0.00  0.00    +0.258 C 
ATOM      8  C   UNL     1       5.904   2.207  -0.195  0.00  0.00    +0.096 C 
ATOM      9  C   UNL     1       6.917   2.169   0.952  0.00  0.00    +0.014 C 
ATOM     10  C   UNL     1       7.766   3.443   0.889  0.00  0.00    +0.001 C 
ATOM     11  C   UNL     1       6.917   4.687   1.143  0.00  0.00    +0.006 C 
ATOM     12  C   UNL     1       5.858   4.842   0.040  0.00  0.00    +0.053 C 
ATOM     13  C   UNL     1       5.136   3.515  -0.055  0.00  0.00    +0.045 C 
ATOM     14  N   UNL     1       3.898   3.276  -0.018  0.00  0.00    -0.184 NA
ENDROOT
BRANCH   1  18
ATOM     15  C   UNL     1      -3.716   3.458   0.040  0.00  0.00    +0.000 A 
ATOM     16  C   UNL     1      -3.705   2.078   0.137  0.00  0.00    +0.001 A 
ATOM     17  C   UNL     1      -2.507   1.393   0.127  0.00  0.00    +0.010 A 
ATOM     18  C   UNL     1      -1.307   2.093   0.020  0.00  0.00    +0.001 A 
ATOM     19  C   UNL     1      -1.324   3.484  -0.072  0.00  0.00    +0.010 A 
ATOM     20  C   UNL     1      -2.528   4.159  -0.068  0.00  0.00    +0.001 A 
ENDBRANCH   1  18
BRANCH   7  21
ATOM     21  C   UNL     1       4.840   0.166  -1.218  0.00  0.00    +0.438 C 
ATOM     22  F   UNL     1       4.717   0.886  -2.411  0.00  0.00    -0.166 F 
ATOM     23  F   UNL     1       6.048  -0.541  -1.222  0.00  0.00    -0.166 F 
ATOM     24  F   UNL     1       3.774  -0.733  -1.103  0.00  0.00    -0.166 F 
ENDBRANCH   7  21
BRANCH   7  25
ATOM     25  O   UNL     1       4.984   0.429   1.199  0.00  0.00    -0.363 OA
ATOM     26  H   UNL     1       4.282  -0.209   1.384  0.00  0.00    +0.212 HD
ENDBRANCH   7  25
TORSDOF 3
