REMARK  Name = ZINC49155865
REMARK  6 active torsions:
REMARK  status: ('A' for Active; 'I' for Inactive)
REMARK    1  A    between atoms: C_1  and  C_2
REMARK    2  A    between atoms: C_4  and  C_11
REMARK    3  A    between atoms: C_6  and  N_8
REMARK    4  A    between atoms: C_11  and  O_13
REMARK    5  A    between atoms: O_13  and  C_14
REMARK    6  A    between atoms: C_14  and  C_15
REMARK                            x       y       z     vdW  Elec       q    Type
REMARK                         _______ _______ _______ _____ _____    ______ ____
ROOT
ATOM      1  C   UNL     1      -0.018   1.503   0.010  0.00  0.00    +0.044 C 
ATOM      2  C   UNL     1       0.002  -0.004   0.002  0.00  0.00    -0.048 A 
ATOM      3  C   UNL     1       0.006  -0.686  -1.198  0.00  0.00    +0.018 A 
ATOM      4  C   UNL     1       0.025  -2.082  -1.203  0.00  0.00    +0.061 A 
ATOM      5  C   UNL     1       0.041  -2.779   0.007  0.00  0.00    +0.047 A 
ATOM      6  C   UNL     1       0.037  -2.084   1.199  0.00  0.00    +0.127 A 
ATOM      7  C   UNL     1       0.023  -0.701   1.197  0.00  0.00    +0.036 A 
ENDROOT
BRANCH   6   8
ATOM      8  N   UNL     1       0.053  -2.821   2.482  0.00  0.00    +0.056 N 
ATOM      9  O   UNL     1       0.069  -4.030   2.485  0.00  0.00    -0.126 OA
ATOM     10  O   UNL     1       0.049  -2.214   3.528  0.00  0.00    -0.126 OA
ENDBRANCH   6   8
BRANCH   4  11
ATOM     11  C   UNL     1       0.029  -2.818  -2.484  0.00  0.00    +0.340 C 
ATOM     12  O   UNL     1       0.015  -2.209  -3.535  0.00  0.00    -0.245 OA
BRANCH  11  13
ATOM     13  O   UNL     1       0.048  -4.165  -2.486  0.00  0.00    -0.456 OA
BRANCH  13  14
ATOM     14  C   UNL     1       0.050  -4.812  -3.760  0.00  0.00    +0.275 C 
BRANCH  14  15
ATOM     15  C   UNL     1       0.072  -6.306  -3.565  0.00  0.00    +0.028 A 
ATOM     16  C   UNL     1      -0.969  -7.168  -3.454  0.00  0.00    +0.016 A 
ATOM     17  C   UNL     1      -0.709  -8.514  -3.278  0.00  0.00    +0.023 A 
ATOM     18  C   UNL     1       0.580  -8.933  -3.221  0.00  0.00    +0.055 A 
ATOM     19  S   UNL     1       1.475  -7.402  -3.427  0.00  0.00    -0.083 S 
ATOM     20 BR   UNL     1       1.254 -10.684  -2.990  0.00  0.00    -0.043 Br
ENDBRANCH  14  15
ENDBRANCH  13  14
ENDBRANCH  11  13
ENDBRANCH   4  11
TORSDOF 5
