REMARK  Name = ZINC39537285
REMARK  13 active torsions:
REMARK  status: ('A' for Active; 'I' for Inactive)
REMARK    1  A    between atoms: C_1  and  C_2
REMARK    2  A    between atoms: C_7  and  N_8
REMARK    3  A    between atoms: C_10  and  C_24
REMARK    4  A    between atoms: C_12  and  C_15
REMARK    5  A    between atoms: C_18  and  O_22
REMARK    6  A    between atoms: O_22  and  C_23
REMARK    7  A    between atoms: C_24  and  N_25
REMARK    8  A    between atoms: N_25  and  C_26
REMARK    9  A    between atoms: N_25  and  C_27
REMARK   10  A    between atoms: C_27  and  C_28
REMARK   11  A    between atoms: C_28  and  C_29
REMARK   12  A    between atoms: C_30  and  C_36
REMARK   13  A    between atoms: C_33  and  C_35
REMARK                            x       y       z     vdW  Elec       q    Type
REMARK                         _______ _______ _______ _____ _____    ______ ____
ROOT
ATOM      1  N   UNL     1      -0.189  -0.365   2.344  0.00  0.00    -0.266 N 
ATOM      2  C   UNL     1      -1.086  -0.418   3.510  0.00  0.00    +0.127 C 
ATOM      3  C   UNL     1      -0.532   0.632   4.503  0.00  0.00    +0.014 C 
ATOM      4  C   UNL     1       0.924   0.794   3.987  0.00  0.00    +0.106 C 
ATOM      5  N   UNL     1       0.752   0.616   2.525  0.00  0.00    -0.232 NA
ATOM      6  H   UNL     1       1.625   0.365   2.086  0.00  0.00    +0.145 HD
ENDROOT
BRANCH   1  13
ATOM      7  C   UNL     1      -0.380   0.858  -0.218  0.00  0.00    +0.046 C 
ATOM      8  C   UNL     1      -0.374  -0.640  -0.047  0.00  0.00    -0.028 A 
ATOM      9  C   UNL     1      -0.458  -1.462  -1.153  0.00  0.00    +0.005 A 
ATOM     10  C   UNL     1      -0.453  -2.836  -0.997  0.00  0.00    +0.000 A 
ATOM     11  C   UNL     1      -0.364  -3.391   0.266  0.00  0.00    +0.002 A 
ATOM     12  C   UNL     1      -0.280  -2.575   1.377  0.00  0.00    +0.025 A 
ATOM     13  C   UNL     1      -0.279  -1.194   1.223  0.00  0.00    +0.047 A 
ENDBRANCH   1  13
BRANCH   4  14
ATOM     14  C   UNL     1       1.459   2.167   4.307  0.00  0.00    -0.026 A 
ATOM     15  C   UNL     1       1.108   3.245   3.516  0.00  0.00    +0.009 A 
ATOM     16  C   UNL     1       1.597   4.505   3.806  0.00  0.00    +0.049 A 
ATOM     17  C   UNL     1       2.440   4.688   4.891  0.00  0.00    +0.155 A 
ATOM     18  C   UNL     1       2.791   3.603   5.685  0.00  0.00    +0.165 A 
ATOM     19  C   UNL     1       2.294   2.345   5.394  0.00  0.00    +0.047 A 
ATOM     20  F   UNL     1       3.612   3.777   6.744  0.00  0.00    -0.202 F 
BRANCH  17  21
ATOM     21  O   UNL     1       2.923   5.926   5.178  0.00  0.00    -0.492 OA
ATOM     22  C   UNL     1       2.520   6.994   4.318  0.00  0.00    +0.277 C 
ENDBRANCH  17  21
ENDBRANCH   4  14
BRANCH   3  23
ATOM     23  C   UNL     1      -1.304   1.948   4.399  0.00  0.00    -0.072 C 
BRANCH  23  24
ATOM     24  N   UNL     1      -2.691   1.738   4.834  0.00  0.00    +0.378 N 
ATOM     25  C   UNL     1      -3.469   2.962   4.599  0.00  0.00    -0.096 C 
ATOM     26  H   UNL     1      -3.096   0.976   4.310  0.00  0.00    -0.082 HD
BRANCH  24  27
ATOM     27  C   UNL     1      -2.712   1.413   6.266  0.00  0.00    -0.075 C 
BRANCH  27  28
ATOM     28  C   UNL     1      -4.141   1.072   6.692  0.00  0.00    +0.016 C 
BRANCH  28  29
ATOM     29  C   UNL     1      -4.162   0.738   8.161  0.00  0.00    -0.023 C 
ATOM     30  C   UNL     1      -4.443   1.548   9.184  0.00  0.00    +0.061 C 
ATOM     31  N   UNL     1      -4.358   0.884  10.359  0.00  0.00    -0.159 NA
ATOM     32  N   UNL     1      -4.047  -0.305  10.254  0.00  0.00    -0.180 NA
ATOM     33  C   UNL     1      -3.876  -0.599   8.821  0.00  0.00    +0.153 C 
ATOM     34  C   UNL     1      -2.442  -1.049   8.532  0.00  0.00    +0.039 C 
ATOM     35  C   UNL     1      -4.805   3.004   9.049  0.00  0.00    +0.067 C 
ENDBRANCH  28  29
ENDBRANCH  27  28
ENDBRANCH  24  27
ENDBRANCH  23  24
ENDBRANCH   3  23
TORSDOF 8
