REMARK  Name = ZINC16292542
REMARK  8 active torsions:
REMARK  status: ('A' for Active; 'I' for Inactive)
REMARK    1  A    between atoms: C_1  and  C_2
REMARK    2  A    between atoms: C_5  and  N_8
REMARK    3  A    between atoms: N_8  and  C_9
REMARK    4  A    between atoms: N_8  and  S_22
REMARK    5  A    between atoms: C_9  and  C_10
REMARK    6  A    between atoms: N_12  and  N_13
REMARK    7  A    between atoms: C_14  and  C_15
REMARK    8  A    between atoms: S_22  and  C_25
REMARK                            x       y       z     vdW  Elec       q    Type
REMARK                         _______ _______ _______ _____ _____    ______ ____
ROOT
ATOM      1  N   UNL     1       4.278  -1.182  -1.624  0.00  0.00    -0.194 N 
ENDROOT
BRANCH   1   6
ATOM      2  C   UNL     1       7.604   2.284  -4.637  0.00  0.00    +0.044 C 
ATOM      3  C   UNL     1       6.720   1.363  -3.837  0.00  0.00    -0.050 A 
ATOM      4  C   UNL     1       6.534   0.056  -4.247  0.00  0.00    +0.005 A 
ATOM      5  C   UNL     1       5.724  -0.791  -3.516  0.00  0.00    +0.025 A 
ATOM      6  C   UNL     1       5.097  -0.328  -2.366  0.00  0.00    +0.052 A 
ATOM      7  C   UNL     1       5.282   0.987  -1.959  0.00  0.00    +0.025 A 
ATOM      8  C   UNL     1       6.097   1.827  -2.692  0.00  0.00    +0.005 A 
ENDBRANCH   1   6
BRANCH   1   9
ATOM      9  S   UNL     1       4.652  -1.526  -0.048  0.00  0.00    +0.075 S 
ATOM     10  O   UNL     1       6.057  -1.357   0.082  0.00  0.00    -0.150 OA
ATOM     11  O   UNL     1       3.999  -2.748   0.267  0.00  0.00    -0.150 OA
BRANCH   9  12
ATOM     12  C   UNL     1       3.901  -0.282   0.949  0.00  0.00    +0.109 A 
ATOM     13  C   UNL     1       2.582  -0.413   1.341  0.00  0.00    +0.029 A 
ATOM     14  C   UNL     1       1.992   0.563   2.122  0.00  0.00    +0.002 A 
ATOM     15  C   UNL     1       2.722   1.670   2.513  0.00  0.00    +0.000 A 
ATOM     16  C   UNL     1       4.042   1.800   2.122  0.00  0.00    +0.002 A 
ATOM     17  C   UNL     1       4.631   0.825   1.340  0.00  0.00    +0.029 A 
ENDBRANCH   9  12
ENDBRANCH   1   9
BRANCH   1  18
ATOM     18  C   UNL     1       3.087  -1.773  -2.240  0.00  0.00    +0.228 C 
BRANCH  18  19
ATOM     19  C   UNL     1       1.934  -0.808  -2.132  0.00  0.00    +0.251 C 
ATOM     20  O   UNL     1       2.092   0.267  -1.594  0.00  0.00    -0.272 OA
ATOM     21  N   UNL     1       0.729  -1.140  -2.634  0.00  0.00    -0.206 N 
ATOM     22  H   UNL     1       0.603  -2.001  -3.064  0.00  0.00    +0.177 HD
BRANCH  21  23
ATOM     23  N   UNL     1      -0.343  -0.243  -2.534  0.00  0.00    -0.188 NA
ATOM     24  C   UNL     1      -1.504  -0.563  -3.017  0.00  0.00    +0.138 C 
BRANCH  24  25
ATOM     25  C   UNL     1      -2.632   0.381  -2.912  0.00  0.00    -0.004 A 
ATOM     26  C   UNL     1      -3.884   0.040  -3.431  0.00  0.00    +0.009 A 
ATOM     27  C   UNL     1      -4.934   0.927  -3.329  0.00  0.00    +0.002 A 
ATOM     28  C   UNL     1      -4.752   2.154  -2.715  0.00  0.00    +0.020 A 
ATOM     29  C   UNL     1      -3.515   2.499  -2.198  0.00  0.00    +0.042 A 
ATOM     30  C   UNL     1      -2.456   1.618  -2.288  0.00  0.00    +0.029 A 
ATOM     31 CL   UNL     1      -3.297   4.040  -1.429  0.00  0.00    -0.084 Cl
ENDBRANCH  24  25
ENDBRANCH  21  23
ENDBRANCH  18  19
ENDBRANCH   1  18
TORSDOF 7
