REMARK  Name = ZINC15101411
REMARK  9 active torsions:
REMARK  status: ('A' for Active; 'I' for Inactive)
REMARK    1  A    between atoms: C_1  and  N_49
REMARK    2  A    between atoms: C_2  and  C_3
REMARK    3  A    between atoms: C_2  and  N_49
REMARK    4  A    between atoms: C_3  and  O_4
REMARK    5  A    between atoms: O_4  and  C_5
REMARK    6  A    between atoms: C_12  and  C_13
REMARK    7  A    between atoms: C_12  and  N_49
REMARK    8  A    between atoms: N_15  and  C_16
REMARK    9  A    between atoms: C_17  and  C_24
REMARK                            x       y       z     vdW  Elec       q    Type
REMARK                         _______ _______ _______ _____ _____    ______ ____
ROOT
ATOM      1  C   UNL     1       1.058   7.608   2.965  0.00  0.00    +0.201 C 
ATOM      2  O   UNL     1       0.889   6.676   3.723  0.00  0.00    -0.278 OA
ATOM      3  N   UNL     1       0.885   8.871   3.401  0.00  0.00    -0.281 N 
ATOM      4  H   UNL     1       1.020   9.617   2.795  0.00  0.00    +0.155 HD
ENDROOT
BRANCH   3   5
ATOM      5  C   UNL     1       0.513   9.106   4.716  0.00  0.00    +0.084 A 
ATOM      6  C   UNL     1       0.294  10.320   5.345  0.00  0.00    +0.068 A 
ATOM      7  C   UNL     1      -0.099  10.292   6.753  0.00  0.00    -0.023 A 
ATOM      8  C   UNL     1      -0.196   9.065   7.295  0.00  0.00    -0.004 A 
ATOM      9  S   UNL     1       0.216   7.953   5.972  0.00  0.00    -0.077 S 
ATOM     10  C   UNL     1      -0.601   9.117   8.743  0.00  0.00    +0.043 C 
ATOM     11  C   UNL     1      -1.169  10.541   8.937  0.00  0.00    +0.010 C 
ATOM     12  C   UNL     1      -0.437  11.325   7.830  0.00  0.00    +0.037 C 
BRANCH   6  13
ATOM     13  C   UNL     1       0.447  11.587   4.624  0.00  0.00    +0.244 C 
ATOM     14  O   UNL     1      -0.505  12.076   4.044  0.00  0.00    -0.270 OA
ATOM     15  N   UNL     1       1.641  12.211   4.603  0.00  0.00    -0.325 N 
ATOM     16  H   UNL     1       2.400  11.822   5.064  0.00  0.00    +0.145 HD
ATOM     17  H   UNL     1       1.742  13.050   4.125  0.00  0.00    +0.145 HD
ENDBRANCH   6  13
ENDBRANCH   3   5
BRANCH   1  18
ATOM     18  C   UNL     1       1.463   7.353   1.536  0.00  0.00    +0.019 C 
BRANCH  18  20
ATOM     19  C   UNL     1       0.280   5.243   1.430  0.00  0.00    -0.095 C 
ATOM     20  N   UNL     1       1.603   5.896   1.333  0.00  0.00    +0.386 N 
ATOM     21  H   UNL     1       2.217   5.515   2.062  0.00  0.00    -0.081 HD
BRANCH  20  22
ATOM     22  C   UNL     1       2.204   5.625   0.010  0.00  0.00    -0.037 C 
BRANCH  22  23
ATOM     23  C   UNL     1       3.708   5.889   0.092  0.00  0.00    +0.210 C 
BRANCH  23  24
ATOM     24  O   UNL     1       4.305   4.963   1.002  0.00  0.00    -0.494 OA
BRANCH  24  25
ATOM     25  C   UNL     1       5.648   5.062   1.192  0.00  0.00    +0.121 A 
ATOM     26  C   UNL     1       6.292   4.195   2.062  0.00  0.00    +0.048 A 
ATOM     27  C   UNL     1       7.657   4.297   2.253  0.00  0.00    +0.042 A 
ATOM     28  C   UNL     1       8.381   5.263   1.576  0.00  0.00    +0.124 A 
ATOM     29  C   UNL     1       7.739   6.129   0.707  0.00  0.00    +0.042 A 
ATOM     30  C   UNL     1       6.375   6.030   0.515  0.00  0.00    +0.048 A 
ATOM     31  F   UNL     1       9.715   5.362   1.764  0.00  0.00    -0.205 F 
ENDBRANCH  24  25
ENDBRANCH  23  24
ENDBRANCH  22  23
ENDBRANCH  20  22
ENDBRANCH  18  20
ENDBRANCH   1  18
TORSDOF 8
