REMARK  Name = ZINC34133662
REMARK  11 active torsions:
REMARK  status: ('A' for Active; 'I' for Inactive)
REMARK    1  A    between atoms: C_1  and  C_2
REMARK    2  A    between atoms: C_4  and  C_27
REMARK    3  A    between atoms: C_5  and  N_9
REMARK    4  A    between atoms: C_6  and  C_8
REMARK    5  A    between atoms: N_12  and  C_13
REMARK    6  A    between atoms: C_13  and  C_14
REMARK    7  A    between atoms: C_13  and  C_16
REMARK    8  A    between atoms: C_14  and  O_15
REMARK    9  A    between atoms: C_16  and  C_17
REMARK   10  A    between atoms: C_16  and  O_26
REMARK   11  A    between atoms: C_20  and  N_23
REMARK                            x       y       z     vdW  Elec       q    Type
REMARK                         _______ _______ _______ _____ _____    ______ ____
ROOT
ATOM      1  C   UNK A   1      -0.430  -7.080   2.154  0.00  0.00    +0.133 C 
ENDROOT
BRANCH   1   5
ATOM      2  N   UNK A   0      -0.459  -4.403  -0.366  0.00  0.00    -0.269 N 
ATOM      3  C   UNK A   0      -0.354  -5.047   0.813  0.00  0.00    +0.304 C 
ATOM      4  O   UNK A   0      -0.087  -4.426   1.823  0.00  0.00    -0.252 OA
ATOM      5  N   UNK A   1      -0.545  -6.380   0.872  0.00  0.00    -0.291 N 
ATOM      6  H   UNK A   0      -0.592  -4.907  -1.184  0.00  0.00    +0.156 HD
ATOM      7  H   UNK A   1      -0.757  -6.876   0.066  0.00  0.00    +0.151 HD
BRANCH   2  12
ATOM      8  C   UNK A   0      -0.121   1.257  -0.548  0.00  0.00    +0.044 C 
ATOM      9  C   UNK A   0      -0.211  -0.246  -0.500  0.00  0.00    -0.050 A 
ATOM     10  C   UNK A   0       0.830  -0.983   0.035  0.00  0.00    +0.008 A 
ATOM     11  C   UNK A   0       0.751  -2.361   0.081  0.00  0.00    -0.029 A 
ATOM     12  C   UNK A   0      -0.376  -3.007  -0.411  0.00  0.00    +0.041 A 
ATOM     13  C   UNK A   0      -1.419  -2.264  -0.948  0.00  0.00    -0.029 A 
ATOM     14  C   UNK A   0      -1.336  -0.886  -0.985  0.00  0.00    +0.008 A 
ATOM     15  C   UNK A   0      -2.643  -2.961  -1.483  0.00  0.00    +0.045 C 
ATOM     16  C   UNK A   0       1.886  -3.163   0.664  0.00  0.00    +0.045 C 
ENDBRANCH   2  12
ENDBRANCH   1   5
BRANCH   1  17
ATOM     17  C   UNK A   1      -1.766  -7.004   2.897  0.00  0.00    +0.181 C 
BRANCH  17  18
ATOM     18  O   UNK A   1      -2.764  -7.708   2.156  0.00  0.00    -0.393 OA
ATOM     19  H   UNK A   1      -3.639  -7.701   2.569  0.00  0.00    +0.209 HD
ENDBRANCH  17  18
ENDBRANCH   1  17
BRANCH   1  20
ATOM     20  C   UNK A   1      -0.069  -8.546   1.904  0.00  0.00    +0.167 C 
BRANCH  20  21
ATOM     21  C   UNK A   1       1.293  -8.624   1.263  0.00  0.00    -0.017 A 
ATOM     22  C   UNK A   1       2.429  -8.621   2.050  0.00  0.00    +0.008 A 
ATOM     23  C   UNK A   1       3.678  -8.694   1.462  0.00  0.00    +0.033 A 
ATOM     24  C   UNK A   1       3.791  -8.770   0.087  0.00  0.00    +0.126 A 
ATOM     25  C   UNK A   1       2.655  -8.774  -0.701  0.00  0.00    +0.033 A 
ATOM     26  C   UNK A   1       1.406  -8.705  -0.113  0.00  0.00    +0.008 A 
BRANCH  24  27
ATOM     27  N   UNK A   1       5.128  -8.846  -0.543  0.00  0.00    +0.056 N 
ATOM     28  O   UNK A   1       6.122  -8.842   0.146  0.00  0.00    -0.126 OA
ATOM     29  O   UNK A   1       5.227  -8.912  -1.746  0.00  0.00    -0.126 OA
ENDBRANCH  24  27
ENDBRANCH  20  21
BRANCH  20  30
ATOM     30  O   UNK A   1      -0.051  -9.250   3.147  0.00  0.00    -0.385 OA
ATOM     31  H   UNK A   1       0.524  -8.855   3.816  0.00  0.00    +0.210 HD
ENDBRANCH  20  30
ENDBRANCH   1  20
TORSDOF 8
