REMARK  Name = ZINC25768992
REMARK  4 active torsions:
REMARK  status: ('A' for Active; 'I' for Inactive)
REMARK    1  A    between atoms: C_1  and  C_2
REMARK    2  A    between atoms: N_6  and  C_14
REMARK    3  A    between atoms: C_14  and  C_15
REMARK    4  A    between atoms: C_15  and  C_16
REMARK                            x       y       z     vdW  Elec       q    Type
REMARK                         _______ _______ _______ _____ _____    ______ ____
ROOT
ATOM      1  C   UNL     1      -3.042  -2.266   0.554  0.00  0.00    +0.123 C 
ENDROOT
BRANCH   1   6
ATOM      2  C   UNL     1      -0.019   1.526   0.010  0.00  0.00    +0.062 C 
ATOM      3  C   UNL     1       0.002  -0.004   0.002  0.00  0.00    +0.256 C 
ATOM      4  C   UNL     1      -1.413  -0.525   0.011  0.00  0.00    +0.260 C 
ATOM      5  O   UNL     1      -2.306   0.131  -0.480  0.00  0.00    -0.271 OA
ATOM      6  N   UNL     1      -1.680  -1.726   0.568  0.00  0.00    -0.265 N 
ATOM      7  C   UNL     1      -0.635  -2.448   1.161  0.00  0.00    +0.078 A 
ATOM      8  C   UNL     1      -0.781  -3.794   1.454  0.00  0.00    +0.027 A 
ATOM      9  C   UNL     1       0.262  -4.488   2.040  0.00  0.00    +0.002 A 
ATOM     10  C   UNL     1       1.449  -3.842   2.333  0.00  0.00    +0.004 A 
ATOM     11  C   UNL     1       1.602  -2.498   2.042  0.00  0.00    +0.047 A 
ATOM     12  C   UNL     1       0.562  -1.798   1.455  0.00  0.00    +0.143 A 
ATOM     13  O   UNL     1       0.695  -0.477   1.160  0.00  0.00    -0.478 OA
ENDBRANCH   1   6
BRANCH   1  14
ATOM     14  C   UNL     1      -3.247  -3.099  -0.713  0.00  0.00    +0.115 C 
BRANCH  14  15
ATOM     15  C   UNL     1      -4.648  -3.654  -0.728  0.00  0.00    +0.220 C 
ATOM     16  O   UNL     1      -5.408  -3.407   0.185  0.00  0.00    -0.275 OA
ATOM     17  N   UNL     1      -5.057  -4.425  -1.755  0.00  0.00    -0.265 N 
ATOM     18  C   UNL     1      -6.349  -4.936  -1.769  0.00  0.00    +0.165 A 
ATOM     19  N   UNL     1      -7.300  -4.773  -0.882  0.00  0.00    -0.229 NA
ATOM     20  C   UNL     1      -8.510  -5.330  -1.027  0.00  0.00    +0.054 A 
ATOM     21  C   UNL     1      -8.664  -6.069  -2.150  0.00  0.00    +0.014 A 
ATOM     22  S   UNL     1      -7.077  -5.912  -2.932  0.00  0.00    -0.057 S 
ATOM     23  C   UNL     1     -10.034  -6.668  -2.249  0.00  0.00    +0.045 C 
ATOM     24  C   UNL     1     -10.612  -6.561  -0.820  0.00  0.00    +0.011 C 
ATOM     25  C   UNL     1      -9.823  -5.365  -0.248  0.00  0.00    +0.056 C 
ATOM     26  H   UNL     1      -4.449  -4.622  -2.485  0.00  0.00    +0.157 HD
ENDBRANCH  14  15
ENDBRANCH   1  14
TORSDOF 3
