REMARK  Name = ZINC38687462
REMARK  12 active torsions:
REMARK  status: ('A' for Active; 'I' for Inactive)
REMARK    1  A    between atoms: C_1  and  C_2
REMARK    2  A    between atoms: C_2  and  O_3
REMARK    3  A    between atoms: O_3  and  C_4
REMARK    4  A    between atoms: C_9  and  C_10
REMARK    5  A    between atoms: C_15  and  O_24
REMARK    6  A    between atoms: C_19  and  N_23
REMARK    7  A    between atoms: C_20  and  C_21
REMARK    8  A    between atoms: O_24  and  C_25
REMARK    9  A    between atoms: C_25  and  C_27
REMARK   10  A    between atoms: C_28  and  C_38
REMARK   11  A    between atoms: C_32  and  C_37
REMARK   12  A    between atoms: C_33  and  C_36
REMARK                            x       y       z     vdW  Elec       q    Type
REMARK                         _______ _______ _______ _____ _____    ______ ____
ROOT
ATOM      1  C   UNL     1       2.052  -1.443   3.506  0.00  0.00    +0.101 C 
ATOM      2  C   UNL     1       3.538  -1.675   3.570  0.00  0.00    +0.008 A 
ATOM      3  C   UNL     1       4.340  -1.244   2.528  0.00  0.00    +0.012 A 
ATOM      4  C   UNL     1       5.705  -1.448   2.571  0.00  0.00    +0.047 A 
ATOM      5  C   UNL     1       6.277  -2.087   3.662  0.00  0.00    +0.136 A 
ATOM      6  C   UNL     1       5.477  -2.520   4.706  0.00  0.00    +0.093 A 
ATOM      7  C   UNL     1       4.104  -2.314   4.662  0.00  0.00    +0.138 A 
ATOM      8  O   UNL     1       3.335  -2.744   5.693  0.00  0.00    -0.441 OA
ATOM      9  C   UNL     1       2.104  -2.234   5.868  0.00  0.00    +0.199 C 
ATOM     10  C   UNL     1       1.443  -1.607   4.870  0.00  0.00    +0.098 C 
ENDROOT
BRANCH   1  16
ATOM     11  C   UNL     1       0.748  -1.996   1.437  0.00  0.00    +0.125 A 
ATOM     12  C   UNL     1       0.183  -2.916   0.565  0.00  0.00    +0.046 A 
ATOM     13  C   UNL     1       0.297  -4.268   0.820  0.00  0.00    +0.004 A 
ATOM     14  C   UNL     1       0.975  -4.707   1.943  0.00  0.00    +0.001 A 
ATOM     15  C   UNL     1       1.538  -3.792   2.813  0.00  0.00    +0.008 A 
ATOM     16  C   UNL     1       1.431  -2.438   2.559  0.00  0.00    +0.007 A 
BRANCH  11  17
ATOM     17  O   UNL     1       0.637  -0.665   1.188  0.00  0.00    -0.492 OA
BRANCH  17  19
ATOM     18  C   UNL     1      -0.100   1.244  -0.099  0.00  0.00    +0.048 C 
ATOM     19  C   UNL     1      -0.081  -0.282   0.013  0.00  0.00    +0.225 C 
ENDBRANCH  17  19
ENDBRANCH  11  17
ENDBRANCH   1  16
BRANCH   9  20
ATOM     20  N   UNL     1       1.501  -2.356   7.095  0.00  0.00    -0.328 N 
ATOM     21  H   UNL     1       1.963  -2.805   7.820  0.00  0.00    +0.145 HD
ATOM     22  H   UNL     1       0.613  -1.993   7.237  0.00  0.00    +0.145 HD
ENDBRANCH   9  20
BRANCH  10  23
ATOM     23  C   UNL     1       0.133  -1.087   5.121  0.00  0.00    +0.101 C 
ATOM     24  N   UNL     1      -0.906  -0.674   5.320  0.00  0.00    -0.191 NA
ENDBRANCH  10  23
BRANCH   5  25
ATOM     25  O   UNL     1       7.621  -2.289   3.705  0.00  0.00    -0.420 OA
BRANCH  25  26
ATOM     26  C   UNL     1       8.075  -3.554   3.592  0.00  0.00    +0.380 C 
ATOM     27  O   UNL     1       7.300  -4.459   3.352  0.00  0.00    -0.241 OA
BRANCH  26  28
ATOM     28  C   UNL     1       9.506  -3.837   3.759  0.00  0.00    +0.216 A 
ATOM     29  C   UNL     1      10.076  -5.067   3.662  0.00  0.00    +0.010 A 
ATOM     30  C   UNL     1      11.506  -4.870   3.899  0.00  0.00    +0.024 A 
ATOM     31  C   UNL     1      12.613  -5.721   3.936  0.00  0.00    +0.012 A 
ATOM     32  C   UNL     1      13.853  -5.208   4.192  0.00  0.00    +0.004 A 
ATOM     33  C   UNL     1      14.019  -3.848   4.415  0.00  0.00    -0.044 A 
ATOM     34  C   UNL     1      12.940  -2.992   4.383  0.00  0.00    -0.005 A 
ATOM     35  C   UNL     1      11.669  -3.490   4.124  0.00  0.00    +0.139 A 
ATOM     36  O   UNL     1      10.454  -2.915   4.026  0.00  0.00    -0.448 OA
ATOM     37  C   UNL     1      13.139  -1.518   4.627  0.00  0.00    +0.048 C 
ATOM     38  C   UNL     1      15.396  -3.302   4.696  0.00  0.00    +0.044 C 
ATOM     39  C   UNL     1       9.377  -6.369   3.370  0.00  0.00    +0.048 C 
ENDBRANCH  26  28
ENDBRANCH  25  26
ENDBRANCH   5  25
TORSDOF 8
