REMARK  Name = ZINC40650486
REMARK  5 active torsions:
REMARK  status: ('A' for Active; 'I' for Inactive)
REMARK    1  A    between atoms: C_1  and  C_2
REMARK    2  A    between atoms: C_13  and  N_30
REMARK    3  A    between atoms: C_14  and  N_18
REMARK    4  A    between atoms: N_18  and  C_19
REMARK    5  A    between atoms: C_27  and  C_29
REMARK                            x       y       z     vdW  Elec       q    Type
REMARK                         _______ _______ _______ _____ _____    ______ ____
ROOT
ATOM      1  C   UNL     1       1.711   1.461   0.131  0.00  0.00    +0.046 C 
ATOM      2  C   UNL     1       1.586  -0.040   0.110  0.00  0.00    -0.024 A 
ATOM      3  C   UNL     1       1.699  -0.714  -1.079  0.00  0.00    +0.005 A 
ATOM      4  C   UNL     1       1.590  -2.095  -1.143  0.00  0.00    +0.001 A 
ATOM      5  C   UNL     1       1.362  -2.811   0.019  0.00  0.00    +0.017 A 
ATOM      6  C   UNL     1       1.248  -2.146   1.213  0.00  0.00    +0.041 A 
ATOM      7  C   UNL     1       1.358  -0.740   1.317  0.00  0.00    +0.083 A 
ATOM      8  N   UNL     1       1.228  -0.233   2.563  0.00  0.00    -0.224 NA
ATOM      9  C   UNL     1       1.016  -0.992   3.614  0.00  0.00    +0.165 A 
ATOM     10  S   UNL     1       0.964  -2.629   2.899  0.00  0.00    -0.052 S 
ATOM     11  N   UNL     1       0.864  -0.618   4.936  0.00  0.00    -0.277 N 
ATOM     12  C   UNL     1       0.646  -1.583   5.910  0.00  0.00    +0.160 A 
ATOM     13  C   UNL     1       0.486  -1.218   7.243  0.00  0.00    +0.206 A 
ATOM     14  C   UNL     1       0.269  -2.223   8.181  0.00  0.00    +0.159 A 
ATOM     15  N   UNL     1       0.223  -3.490   7.771  0.00  0.00    -0.218 NA
ATOM     16  C   UNL     1       0.380  -3.795   6.500  0.00  0.00    +0.225 A 
ATOM     17  N   UNL     1       0.582  -2.872   5.581  0.00  0.00    -0.218 NA
ATOM     18  H   UNL     1       0.910   0.319   5.184  0.00  0.00    +0.156 HD
ENDROOT
BRANCH  13  19
ATOM     19  N   UNL     1       0.545   0.203   7.654  0.00  0.00    +0.063 N 
ATOM     20  O   UNL     1      -0.464   0.869   7.673  0.00  0.00    -0.126 OA
ATOM     21  O   UNL     1       1.602   0.698   7.969  0.00  0.00    -0.126 OA
ENDBRANCH  13  19
BRANCH  14  22
ATOM     22  N   UNL     1       0.104  -1.911   9.523  0.00  0.00    -0.297 N 
ATOM     23  H   UNL     1       0.046  -0.984   9.801  0.00  0.00    +0.154 HD
BRANCH  22  24
ATOM     24  C   UNL     1       0.021  -2.929  10.470  0.00  0.00    +0.042 A 
ATOM     25  C   UNL     1       0.625  -4.148  10.238  0.00  0.00    +0.024 A 
ATOM     26  C   UNL     1       0.546  -5.168  11.179  0.00  0.00    +0.004 A 
ATOM     27  C   UNL     1      -0.126  -4.996  12.351  0.00  0.00    +0.026 A 
ATOM     28  C   UNL     1      -0.756  -3.771  12.628  0.00  0.00    +0.048 A 
ATOM     29  C   UNL     1      -0.676  -2.723  11.678  0.00  0.00    +0.020 A 
ATOM     30  C   UNL     1      -1.302  -1.497  11.961  0.00  0.00    +0.013 A 
ATOM     31  C   UNL     1      -1.961  -1.368  13.152  0.00  0.00    +0.021 A 
ATOM     32  C   UNL     1      -1.996  -2.436  14.045  0.00  0.00    +0.013 A 
ATOM     33  N   UNL     1      -1.421  -3.583  13.772  0.00  0.00    -0.358 N 
ATOM     34  C   UNL     1      -2.727  -2.274  15.353  0.00  0.00    +0.063 C 
ATOM     35  H   UNL     1      -1.469  -4.304  14.419  0.00  0.00    +0.166 HD
ENDBRANCH  22  24
ENDBRANCH  14  22
TORSDOF 3
