REMARK  Name = ZINC37299981
REMARK  6 active torsions:
REMARK  status: ('A' for Active; 'I' for Inactive)
REMARK    1  A    between atoms: C_3  and  N_12
REMARK    2  A    between atoms: C_5  and  O_7
REMARK    3  A    between atoms: O_7  and  C_8
REMARK    4  A    between atoms: C_8  and  C_9
REMARK    5  A    between atoms: N_12  and  C_13
REMARK    6  A    between atoms: C_13  and  C_14
REMARK                            x       y       z     vdW  Elec       q    Type
REMARK                         _______ _______ _______ _____ _____    ______ ____
ROOT
ATOM      1  C   UNL     1      -0.017   1.377   0.010  0.00  0.00    +0.005 A 
ATOM      2  C   UNL     1       1.169   2.087   0.002  0.00  0.00    +0.023 A 
ATOM      3  C   UNL     1       2.383   1.413  -0.013  0.00  0.00    +0.031 A 
ATOM      4  C   UNL     1       2.404   0.024  -0.021  0.00  0.00    +0.068 A 
ATOM      5  C   UNL     1       1.212  -0.684  -0.013  0.00  0.00    +0.123 A 
ATOM      6  C   UNL     1       0.002  -0.004   0.002  0.00  0.00    +0.046 A 
ENDROOT
BRANCH   3   7
ATOM      7  N   UNL     1       3.582   2.130  -0.022  0.00  0.00    -0.337 N 
ATOM      8  H   UNL     1       4.429   1.658  -0.033  0.00  0.00    +0.147 HD
BRANCH   7   9
ATOM      9  C   UNL     1       3.559   3.595  -0.015  0.00  0.00    +0.176 C 
BRANCH   9  10
ATOM     10  C   UNL     1       4.971   4.119  -0.026  0.00  0.00    +0.123 A 
ATOM     11  C   UNL     1       5.696   4.403  -1.123  0.00  0.00    +0.047 A 
ATOM     12  C   UNL     1       6.955   4.864  -0.675  0.00  0.00    +0.056 A 
ATOM     13  C   UNL     1       6.925   4.834   0.670  0.00  0.00    +0.165 A 
ATOM     14  O   UNL     1       5.718   4.387   1.058  0.00  0.00    -0.453 OA
ATOM     15  I   UNL     1       8.490   5.397   1.944  0.00  0.00    -0.001 I 
ENDBRANCH   9  10
ENDBRANCH   7   9
ENDBRANCH   3   7
BRANCH   5  16
ATOM     16  O   UNL     1       1.229  -2.042  -0.021  0.00  0.00    -0.483 OA
BRANCH  16  17
ATOM     17  C   UNL     1      -0.036  -2.707  -0.012  0.00  0.00    +0.324 C 
BRANCH  17  18
ATOM     18  C   UNL     1       0.180  -4.198  -0.022  0.00  0.00    +0.248 C 
ATOM     19  O   UNL     1       1.306  -4.648  -0.036  0.00  0.00    -0.272 OA
ATOM     20  N   UNL     1      -0.879  -5.032  -0.017  0.00  0.00    -0.327 N 
ATOM     21  H   UNL     1      -1.780  -4.673  -0.005  0.00  0.00    +0.145 HD
ATOM     22  H   UNL     1      -0.740  -5.992  -0.023  0.00  0.00    +0.145 HD
ENDBRANCH  17  18
ENDBRANCH  16  17
ENDBRANCH   5  16
TORSDOF 6
