REMARK  Name = ZINC05589069
REMARK  5 active torsions:
REMARK  status: ('A' for Active; 'I' for Inactive)
REMARK    1  A    between atoms: C_1  and  C_2
REMARK    2  A    between atoms: C_5  and  N_9
REMARK    3  A    between atoms: C_7  and  C_8
REMARK    4  A    between atoms: C_15  and  C_16
REMARK    5  A    between atoms: C_20  and  O_22
REMARK                            x       y       z     vdW  Elec       q    Type
REMARK                         _______ _______ _______ _____ _____    ______ ____
ROOT
ATOM      1  N   UNL     1      -1.021  -4.309   0.896  0.00  0.00    -0.226 NA
ATOM      2  C   UNL     1      -1.577  -4.936  -0.116  0.00  0.00    +0.166 C 
ATOM      3  N   UNL     1      -2.455  -4.438  -1.054  0.00  0.00    -0.260 N 
ATOM      4  C   UNL     1      -2.925  -5.214  -2.016  0.00  0.00    +0.256 C 
ATOM      5  O   UNL     1      -3.701  -4.791  -2.853  0.00  0.00    -0.269 OA
ATOM      6  C   UNL     1      -2.463  -6.617  -2.030  0.00  0.00    +0.078 C 
ATOM      7  C   UNL     1      -2.778  -7.618  -2.889  0.00  0.00    +0.028 C 
ATOM      8  S   UNL     1      -1.373  -6.638  -0.614  0.00  0.00    -0.049 S 
ATOM      9  H   UNL     1      -2.732  -3.510  -1.007  0.00  0.00    +0.157 HD
ENDROOT
BRANCH   1  14
ATOM     10  C   UNL     1      -2.180   1.137   1.823  0.00  0.00    +0.044 C 
ATOM     11  C   UNL     1      -1.871  -0.317   1.576  0.00  0.00    -0.047 A 
ATOM     12  C   UNL     1      -1.594  -0.753   0.292  0.00  0.00    +0.006 A 
ATOM     13  C   UNL     1      -1.309  -2.082   0.058  0.00  0.00    +0.028 A 
ATOM     14  C   UNL     1      -1.302  -2.989   1.121  0.00  0.00    +0.067 A 
ATOM     15  C   UNL     1      -1.583  -2.542   2.414  0.00  0.00    +0.031 A 
ATOM     16  C   UNL     1      -1.861  -1.208   2.634  0.00  0.00    -0.046 A 
ATOM     17  C   UNL     1      -2.158  -0.723   4.029  0.00  0.00    +0.044 C 
ENDBRANCH   1  14
BRANCH   7  18
ATOM     18  C   UNL     1      -2.328  -8.990  -2.615  0.00  0.00    -0.020 A 
ATOM     19  C   UNL     1      -1.887  -9.343  -1.334  0.00  0.00    +0.008 A 
ATOM     20  C   UNL     1      -1.465 -10.632  -1.083  0.00  0.00    +0.004 A 
ATOM     21  C   UNL     1      -1.476 -11.578  -2.092  0.00  0.00    +0.045 A 
ATOM     22  C   UNL     1      -1.912 -11.239  -3.366  0.00  0.00    +0.117 A 
ATOM     23  C   UNL     1      -2.343  -9.951  -3.631  0.00  0.00    +0.053 A 
BRANCH  22  24
ATOM     24  O   UNL     1      -1.919 -12.174  -4.352  0.00  0.00    -0.507 OA
ATOM     25  H   UNL     1      -2.746 -12.671  -4.416  0.00  0.00    +0.292 HD
ENDBRANCH  22  24
ENDBRANCH   7  18
TORSDOF 3
