REMARK  Name = ZINC61389494
REMARK  6 active torsions:
REMARK  status: ('A' for Active; 'I' for Inactive)
REMARK    1  A    between atoms: C_1  and  C_2
REMARK    2  A    between atoms: C_7  and  C_35
REMARK    3  A    between atoms: C_12  and  C_33
REMARK    4  A    between atoms: C_12  and  C_34
REMARK    5  A    between atoms: C_17  and  C_32
REMARK    6  A    between atoms: C_25  and  C_27
REMARK                            x       y       z     vdW  Elec       q    Type
REMARK                         _______ _______ _______ _____ _____    ______ ____
ROOT
ATOM      1  C   UNL     1      -0.401   1.767   0.398  0.00  0.00    +0.018 C 
ATOM      2  C   UNL     1      -0.583   0.268   0.627  0.00  0.00    +0.042 C 
ATOM      3  C   UNL     1       0.075  -0.491  -0.520  0.00  0.00    +0.014 C 
ATOM      4  C   UNL     1       1.564  -0.160  -0.568  0.00  0.00    +0.006 C 
ATOM      5  C   UNL     1       2.296  -0.507   0.723  0.00  0.00    +0.012 C 
ATOM      6  C   UNL     1       3.763  -0.097   0.557  0.00  0.00    -0.003 C 
ATOM      7  C   UNL     1       4.162  -0.477  -0.847  0.00  0.00    -0.016 C 
ATOM      8  C   UNL     1       4.818   0.297  -1.688  0.00  0.00    +0.043 C 
ATOM      9  C   UNL     1       5.221   1.638  -1.265  0.00  0.00    +0.162 C 
ATOM     10  O   UNL     1       6.150   2.207  -1.809  0.00  0.00    -0.292 OA
ATOM     11  C   UNL     1       4.452   2.298  -0.148  0.00  0.00    +0.034 C 
ATOM     12  C   UNL     1       4.097   1.310   0.956  0.00  0.00    +0.034 C 
ATOM     13  C   UNL     1       3.092   1.960   1.862  0.00  0.00    -0.025 C 
ATOM     14  C   UNL     1       2.017   1.407   2.302  0.00  0.00    -0.021 C 
ATOM     15  C   UNL     1       1.631  -0.004   1.980  0.00  0.00    +0.022 C 
ATOM     16  C   UNL     1       0.104  -0.138   1.923  0.00  0.00    +0.125 C 
ATOM     17  C   UNL     1      -0.713  -0.020   3.206  0.00  0.00    +0.260 C 
ATOM     18  O   UNL     1      -0.401  -1.292   2.615  0.00  0.00    -0.351 OA
ATOM     19  C   UNL     1      -2.175   0.363   3.057  0.00  0.00    +0.340 C 
ATOM     20  O   UNL     1      -2.885   0.436   4.034  0.00  0.00    -0.248 OA
ATOM     21  O   UNL     1      -2.668   0.613   1.841  0.00  0.00    -0.454 OA
ATOM     22  C   UNL     1      -2.078   0.019   0.694  0.00  0.00    +0.218 C 
ATOM     23  C   UNL     1       2.062  -0.879   3.183  0.00  0.00    +0.019 C 
ATOM     24  C   UNL     1       3.196   2.972  -0.709  0.00  0.00    +0.020 C 
ATOM     25  C   UNL     1       5.354   3.398   0.452  0.00  0.00    +0.020 C 
ATOM     26  C   UNL     1       4.626  -1.036   1.439  0.00  0.00    +0.016 C 
ENDROOT
BRANCH  22  27
ATOM     27  C   UNL     1      -2.732   0.611  -0.528  0.00  0.00    +0.031 A 
ATOM     28  C   UNL     1      -3.142  -0.089  -1.686  0.00  0.00    +0.048 A 
ATOM     29  C   UNL     1      -3.674   0.820  -2.523  0.00  0.00    +0.195 A 
ATOM     30  O   UNL     1      -3.609   2.026  -1.936  0.00  0.00    -0.471 OA
ATOM     31  C   UNL     1      -3.043   1.905  -0.725  0.00  0.00    +0.202 A 
ENDBRANCH  22  27
TORSDOF 1
