REMARK  Name = ZINC66174776
REMARK  7 active torsions:
REMARK  status: ('A' for Active; 'I' for Inactive)
REMARK    1  A    between atoms: C_1  and  C_2
REMARK    2  A    between atoms: C_5  and  C_7
REMARK    3  A    between atoms: C_7  and  C_8
REMARK    4  A    between atoms: C_8  and  C_9
REMARK    5  A    between atoms: C_9  and  C_10
REMARK    6  A    between atoms: C_10  and  N_11
REMARK    7  A    between atoms: N_14  and  C_15
REMARK                            x       y       z     vdW  Elec       q    Type
REMARK                         _______ _______ _______ _____ _____    ______ ____
ROOT
ATOM      1  N   UNL     1      -2.781  -5.516   5.421  0.00  0.00    -0.299 N 
ATOM      2  C   UNL     1      -3.940  -5.956   5.951  0.00  0.00    +0.300 C 
ATOM      3  O   UNL     1      -5.000  -5.589   5.483  0.00  0.00    -0.253 OA
ATOM      4  N   UNL     1      -3.923  -6.802   7.000  0.00  0.00    -0.294 N 
ATOM      5  H   UNL     1      -1.935  -5.809   5.795  0.00  0.00    +0.150 HD
ATOM      6  H   UNL     1      -3.077  -7.094   7.374  0.00  0.00    +0.151 HD
ENDROOT
BRANCH   4   7
ATOM      7  C   UNL     1      -5.183  -7.280   7.576  0.00  0.00    +0.037 C 
ATOM      8  C   UNL     1      -6.000  -6.087   8.076  0.00  0.00    +0.029 C 
ATOM      9  C   UNL     1      -7.315  -6.586   8.677  0.00  0.00    -0.008 C 
ATOM     10  C   UNL     1      -7.017  -7.526   9.847  0.00  0.00    +0.007 C 
ATOM     11  C   UNL     1      -6.200  -8.719   9.347  0.00  0.00    -0.008 C 
ATOM     12  C   UNL     1      -4.884  -8.220   8.745  0.00  0.00    +0.029 C 
ATOM     13  C   UNL     1      -6.996  -9.471   8.278  0.00  0.00    +0.007 C 
ATOM     14  C   UNL     1      -7.294  -8.530   7.109  0.00  0.00    -0.008 C 
ATOM     15  C   UNL     1      -8.111  -7.338   7.609  0.00  0.00    +0.007 C 
ATOM     16  C   UNL     1      -5.979  -8.031   6.508  0.00  0.00    +0.029 C 
ENDBRANCH   4   7
BRANCH   1  17
ATOM     17  C   UNL     1      -2.799  -4.597   4.281  0.00  0.00    +0.106 C 
BRANCH  17  18
ATOM     18  C   UNL     1      -1.363  -4.256   3.878  0.00  0.00    +0.019 C 
BRANCH  18  19
ATOM     19  C   UNL     1      -1.382  -3.296   2.687  0.00  0.00    +0.008 C 
BRANCH  19  20
ATOM     20  C   UNL     1       0.054  -2.955   2.284  0.00  0.00    +0.063 C 
BRANCH  20  25
ATOM     21  C   UNL     1      -0.018   1.503   0.010  0.00  0.00    +0.066 C 
ATOM     22  C   UNL     1       0.002  -0.004   0.002  0.00  0.00    +0.046 A 
ATOM     23  C   UNL     1       0.006  -0.708  -1.159  0.00  0.00    +0.070 A 
ATOM     24  S   UNL     1       0.033  -2.379  -0.531  0.00  0.00    -0.080 S 
ATOM     25  C   UNL     1       0.035  -2.009   1.111  0.00  0.00    +0.079 A 
ATOM     26  N   UNL     1       0.022  -0.699   1.122  0.00  0.00    -0.249 NA
ENDBRANCH  20  25
ENDBRANCH  19  20
ENDBRANCH  18  19
ENDBRANCH  17  18
ENDBRANCH   1  17
TORSDOF 6
