REMARK  Name = ZINC06195409
REMARK  10 active torsions:
REMARK  status: ('A' for Active; 'I' for Inactive)
REMARK    1  A    between atoms: C_1  and  C_2
REMARK    2  A    between atoms: C_5  and  N_9
REMARK    3  A    between atoms: C_6  and  C_8
REMARK    4  A    between atoms: N_9  and  C_10
REMARK    5  A    between atoms: C_10  and  N_12
REMARK    6  A    between atoms: N_12  and  C_13
REMARK    7  A    between atoms: N_12  and  C_28
REMARK    8  A    between atoms: C_13  and  C_14
REMARK    9  A    between atoms: C_19  and  C_27
REMARK   10  A    between atoms: C_20  and  C_26
REMARK                            x       y       z     vdW  Elec       q    Type
REMARK                         _______ _______ _______ _____ _____    ______ ____
ROOT
ATOM      1  N   UNL     1       2.699  -4.536  -2.324  0.00  0.00    -0.305 N 
ENDROOT
BRANCH   1   2
ATOM      2  C   UNL     1       3.731  -5.533  -2.621  0.00  0.00    +0.075 C 
ATOM      3  C   UNL     1       3.936  -5.642  -4.146  0.00  0.00    +0.022 C 
ATOM      4  C   UNL     1       4.192  -7.150  -4.387  0.00  0.00    +0.002 C 
ATOM      5  C   UNL     1       3.223  -7.826  -3.386  0.00  0.00    +0.002 C 
ATOM      6  C   UNL     1       3.277  -6.921  -2.137  0.00  0.00    +0.022 C 
ENDBRANCH   1   2
BRANCH   1   7
ATOM      7  C   UNL     1       1.502  -4.601  -2.940  0.00  0.00    +0.138 C 
ATOM      8  S   UNL     1       0.339  -3.372  -2.681  0.00  0.00    -0.018 S 
BRANCH   7   9
ATOM      9  N   UNL     1       1.222  -5.633  -3.760  0.00  0.00    -0.297 N 
ATOM     10  H   UNL     1       1.863  -6.352  -3.871  0.00  0.00    +0.154 HD
BRANCH   9  15
ATOM     11  C   UNL     1      -3.708  -5.767  -6.564  0.00  0.00    +0.044 C 
ATOM     12  C   UNL     1      -2.398  -5.732  -5.819  0.00  0.00    -0.050 A 
ATOM     13  C   UNL     1      -2.384  -5.466  -4.462  0.00  0.00    +0.005 A 
ATOM     14  C   UNL     1      -1.185  -5.433  -3.776  0.00  0.00    +0.024 A 
ATOM     15  C   UNL     1       0.006  -5.666  -4.452  0.00  0.00    +0.036 A 
ATOM     16  C   UNL     1      -0.012  -5.927  -5.815  0.00  0.00    -0.029 A 
ATOM     17  C   UNL     1      -1.214  -5.965  -6.494  0.00  0.00    +0.008 A 
ATOM     18  C   UNL     1       1.279  -6.175  -6.553  0.00  0.00    +0.045 C 
ENDBRANCH   9  15
ENDBRANCH   7   9
ENDBRANCH   1   7
BRANCH   1  19
ATOM     19  C   UNL     1       2.968  -3.469  -1.356  0.00  0.00    +0.147 C 
BRANCH  19  20
ATOM     20  C   UNL     1       3.555  -2.279  -2.071  0.00  0.00    +0.035 A 
ATOM     21  C   UNL     1       2.747  -1.268  -2.474  0.00  0.00    +0.020 A 
ATOM     22  C   UNL     1       3.348  -0.126  -3.166  0.00  0.00    -0.001 A 
ATOM     23  C   UNL     1       2.566   0.947  -3.606  0.00  0.00    +0.010 A 
ATOM     24  C   UNL     1       3.158   1.998  -4.248  0.00  0.00    +0.004 A 
ATOM     25  C   UNL     1       4.528   2.010  -4.468  0.00  0.00    -0.046 A 
ATOM     26  C   UNL     1       5.318   0.963  -4.044  0.00  0.00    -0.024 A 
ATOM     27  C   UNL     1       4.738  -0.117  -3.388  0.00  0.00    +0.052 A 
ATOM     28  N   UNL     1       5.504  -1.177  -2.952  0.00  0.00    -0.322 N 
ATOM     29  H   UNL     1       6.462  -1.169  -3.105  0.00  0.00    +0.169 HD
ATOM     30  C   UNL     1       4.943  -2.221  -2.317  0.00  0.00    +0.254 A 
ATOM     31  O   UNL     1       5.651  -3.141  -1.946  0.00  0.00    -0.268 OA
ATOM     32  C   UNL     1       6.805   0.990  -4.289  0.00  0.00    +0.046 C 
ATOM     33  C   UNL     1       5.159   3.180  -5.179  0.00  0.00    +0.044 C 
ENDBRANCH  19  20
ENDBRANCH   1  19
TORSDOF 6
