REMARK  Name = ZINC39623866
REMARK  6 active torsions:
REMARK  status: ('A' for Active; 'I' for Inactive)
REMARK    1  A    between atoms: C_1  and  C_2
REMARK    2  A    between atoms: C_2  and  C_3
REMARK    3  A    between atoms: C_3  and  C_4
REMARK    4  A    between atoms: C_4  and  N_5
REMARK    5  A    between atoms: C_6  and  C_8
REMARK    6  A    between atoms: C_19  and  C_21
REMARK                            x       y       z     vdW  Elec       q    Type
REMARK                         _______ _______ _______ _____ _____    ______ ____
ROOT
ATOM      1  C   UNL     1      -4.049  -4.433   0.611  0.00  0.00    +0.100 C 
ATOM      2  C   UNL     1      -5.022  -4.059   1.751  0.00  0.00    +0.121 C 
ATOM      3  N   UNL     1      -5.859  -5.267   1.940  0.00  0.00    -0.296 N 
ATOM      4  C   UNL     1      -4.913  -6.399   1.787  0.00  0.00    +0.115 C 
ATOM      5  C   UNL     1      -3.979  -5.969   0.638  0.00  0.00    -0.004 C 
ATOM      6  C   UNL     1      -2.552  -6.429   0.920  0.00  0.00    -0.010 C 
ATOM      7  C   UNL     1      -2.497  -7.959   0.884  0.00  0.00    -0.082 C 
ATOM      8  N   UNL     1      -2.936  -8.436  -0.433  0.00  0.00    +0.379 N 
ATOM      9  C   UNL     1      -4.339  -8.069  -0.656  0.00  0.00    -0.082 C 
ATOM     10  C   UNL     1      -4.472  -6.544  -0.686  0.00  0.00    -0.010 C 
ATOM     11  C   UNL     1      -7.182  -5.324   2.193  0.00  0.00    +0.247 C 
ATOM     12  O   UNL     1      -7.851  -4.310   2.163  0.00  0.00    -0.270 OA
ATOM     13  H   UNL     1      -2.362  -8.016  -1.149  0.00  0.00    -0.086 HD
ATOM     14  H   UNL     1      -2.841  -9.440  -0.474  0.00  0.00    -0.086 HD
ENDROOT
BRANCH  11  15
ATOM     15  C   UNL     1      -7.819  -6.621   2.507  0.00  0.00    +0.040 A 
ATOM     16  C   UNL     1      -7.046  -7.689   2.964  0.00  0.00    +0.033 A 
ATOM     17  C   UNL     1      -7.646  -8.898   3.256  0.00  0.00    +0.043 A 
ATOM     18  C   UNL     1      -9.013  -9.051   3.096  0.00  0.00    +0.040 A 
ATOM     19  C   UNL     1      -9.785  -7.995   2.642  0.00  0.00    +0.043 A 
ATOM     20  C   UNL     1      -9.197  -6.780   2.353  0.00  0.00    +0.033 A 
ATOM     21 CL   UNL     1     -11.498  -8.198   2.443  0.00  0.00    -0.083 Cl
ATOM     22 CL   UNL     1      -6.686 -10.228   3.824  0.00  0.00    -0.083 Cl
ENDBRANCH  11  15
BRANCH   1  24
ATOM     23  N   UNL     1      -1.892  -3.503  -0.166  0.00  0.00    -0.315 N 
ATOM     24  C   UNL     1      -2.687  -3.842   0.869  0.00  0.00    +0.218 C 
ATOM     25  O   UNL     1      -2.305  -3.671   2.007  0.00  0.00    -0.275 OA
ATOM     26  H   UNL     1      -2.197  -3.640  -1.077  0.00  0.00    +0.149 HD
BRANCH  23  27
ATOM     27  C   UNL     1      -0.568  -2.928   0.084  0.00  0.00    +0.104 C 
BRANCH  27  28
ATOM     28  C   UNL     1       0.122  -2.636  -1.250  0.00  0.00    +0.018 C 
BRANCH  28  30
ATOM     29  C   UNL     1       2.194  -1.744  -2.322  0.00  0.00    +0.004 C 
ATOM     30  C   UNL     1       1.504  -2.036  -0.988  0.00  0.00    -0.002 C 
ENDBRANCH  28  30
ENDBRANCH  27  28
ENDBRANCH  23  27
ENDBRANCH   1  24
TORSDOF 5
