REMARK  Name = ZINC06641936
REMARK  8 active torsions:
REMARK  status: ('A' for Active; 'I' for Inactive)
REMARK    1  A    between atoms: C_1  and  O_2
REMARK    2  A    between atoms: O_2  and  C_3
REMARK    3  A    between atoms: C_5  and  C_13
REMARK    4  A    between atoms: C_8  and  O_9
REMARK    5  A    between atoms: O_9  and  C_10
REMARK    6  A    between atoms: C_10  and  C_11
REMARK    7  A    between atoms: C_11  and  O_12
REMARK    8  A    between atoms: N_19  and  C_20
REMARK                            x       y       z     vdW  Elec       q    Type
REMARK                         _______ _______ _______ _____ _____    ______ ____
ROOT
ATOM      1  C   UNL     1      -5.923   2.906   5.212  0.00  0.00    +0.028 C 
ATOM      2  C   UNL     1      -5.555   3.973   5.967  0.00  0.00    +0.078 C 
ATOM      3  C   UNL     1      -6.204   4.541   7.164  0.00  0.00    +0.256 C 
ATOM      4  O   UNL     1      -7.222   4.059   7.625  0.00  0.00    -0.269 OA
ATOM      5  N   UNL     1      -5.629   5.597   7.713  0.00  0.00    -0.260 N 
ATOM      6  C   UNL     1      -4.476   6.128   7.177  0.00  0.00    +0.166 C 
ATOM      7  N   UNL     1      -3.782   7.163   7.593  0.00  0.00    -0.224 NA
ATOM      8  S   UNL     1      -4.150   5.061   5.782  0.00  0.00    -0.049 S 
ATOM      9  H   UNL     1      -6.022   6.002   8.502  0.00  0.00    +0.157 HD
ENDROOT
BRANCH   7  10
ATOM     10  C   UNL     1      -4.143   7.811   8.744  0.00  0.00    +0.085 A 
ATOM     11  C   UNL     1      -4.386   7.084   9.911  0.00  0.00    +0.029 A 
ATOM     12  C   UNL     1      -4.745   7.744  11.068  0.00  0.00    +0.002 A 
ATOM     13  C   UNL     1      -4.874   9.121  11.072  0.00  0.00    +0.002 A 
ATOM     14  C   UNL     1      -4.639   9.848   9.918  0.00  0.00    +0.022 A 
ATOM     15  C   UNL     1      -4.274   9.202   8.754  0.00  0.00    +0.066 A 
ATOM     16 CL   UNL     1      -3.981  10.116   7.307  0.00  0.00    -0.081 Cl
ENDBRANCH   7  10
BRANCH   1  19
ATOM     17  C   UNL     1      -4.694   1.120   2.152  0.00  0.00    +0.162 A 
ATOM     18  C   UNL     1      -5.533   1.573   3.151  0.00  0.00    +0.057 A 
ATOM     19  C   UNL     1      -5.034   2.416   4.151  0.00  0.00    -0.020 A 
ATOM     20  C   UNL     1      -3.685   2.791   4.136  0.00  0.00    +0.012 A 
ATOM     21  C   UNL     1      -2.854   2.330   3.138  0.00  0.00    +0.050 A 
ATOM     22  C   UNL     1      -3.350   1.493   2.147  0.00  0.00    +0.162 A 
BRANCH  17  24
ATOM     23  C   UNL     1      -6.562  -0.037   1.243  0.00  0.00    +0.277 C 
ATOM     24  O   UNL     1      -5.176   0.305   1.176  0.00  0.00    -0.491 OA
ENDBRANCH  17  24
BRANCH  22  25
ATOM     25  O   UNL     1      -2.526   1.042   1.167  0.00  0.00    -0.486 OA
BRANCH  25  26
ATOM     26  C   UNL     1      -1.163   1.468   1.218  0.00  0.00    +0.257 C 
BRANCH  26  27
ATOM     27  C   UNL     1      -0.394   0.863   0.042  0.00  0.00    +0.196 C 
BRANCH  27  28
ATOM     28  O   UNL     1      -0.908   1.389  -1.184  0.00  0.00    -0.392 OA
ATOM     29  H   UNL     1      -0.467   1.048  -1.974  0.00  0.00    +0.210 HD
ENDBRANCH  27  28
ENDBRANCH  26  27
ENDBRANCH  25  26
ENDBRANCH  22  25
ENDBRANCH   1  19
TORSDOF 7
