REMARK  Name = ZINC32666824
REMARK  9 active torsions:
REMARK  status: ('A' for Active; 'I' for Inactive)
REMARK    1  A    between atoms: C_1  and  C_2
REMARK    2  A    between atoms: C_2  and  N_3
REMARK    3  A    between atoms: N_3  and  C_4
REMARK    4  A    between atoms: N_3  and  C_6
REMARK    5  A    between atoms: C_4  and  C_5
REMARK    6  A    between atoms: C_6  and  C_8
REMARK    7  A    between atoms: C_6  and  C_20
REMARK    8  A    between atoms: C_8  and  N_9
REMARK    9  A    between atoms: C_10  and  C_12
REMARK                            x       y       z     vdW  Elec       q    Type
REMARK                         _______ _______ _______ _____ _____    ______ ____
ROOT
ATOM      1  C   UNL     1       0.991  -0.931   1.124  0.00  0.00    +0.094 C 
ENDROOT
BRANCH   1   2
ATOM      2  N   UNL     1       1.442  -2.261   0.706  0.00  0.00    -0.313 N 
ATOM      3  C   UNL     1       0.543  -3.244   0.503  0.00  0.00    +0.245 C 
ATOM      4  O   UNL     1      -0.647  -3.005   0.576  0.00  0.00    -0.270 OA
ATOM      5  H   UNL     1       2.388  -2.434   0.575  0.00  0.00    +0.149 HD
BRANCH   3   6
ATOM      6  C   UNL     1       1.003  -4.614   0.190  0.00  0.00    +0.051 A 
ATOM      7  C   UNL     1       2.364  -4.922   0.231  0.00  0.00    +0.034 A 
ATOM      8  C   UNL     1       2.787  -6.203  -0.062  0.00  0.00    +0.042 A 
ATOM      9  C   UNL     1       1.865  -7.181  -0.396  0.00  0.00    +0.021 A 
ATOM     10  C   UNL     1       0.515  -6.881  -0.438  0.00  0.00    +0.016 A 
ATOM     11  C   UNL     1       0.078  -5.606  -0.141  0.00  0.00    +0.026 A 
ATOM     12  I   UNL     1      -1.967  -5.157  -0.198  0.00  0.00    -0.043 I 
ATOM     13 CL   UNL     1       4.479  -6.589  -0.011  0.00  0.00    -0.084 Cl
ENDBRANCH   3   6
ENDBRANCH   1   2
BRANCH   1  14
ATOM     14  C   UNL     1       2.172   0.041   1.091  0.00  0.00    -0.020 C 
BRANCH  14  15
ATOM     15  C   UNL     1       1.676   1.442   1.341  0.00  0.00    -0.052 A 
ATOM     16  C   UNL     1       2.217   2.511   0.651  0.00  0.00    +0.009 A 
ATOM     17  C   UNL     1       1.748   3.759   0.899  0.00  0.00    +0.045 A 
ATOM     18  S   UNL     1       0.504   3.445   2.141  0.00  0.00    -0.105 S 
ATOM     19  C   UNL     1       0.689   1.673   2.241  0.00  0.00    +0.047 A 
ENDBRANCH  14  15
BRANCH  14  20
ATOM     20  N   UNL     1       2.821  -0.021  -0.225  0.00  0.00    +0.385 N 
ATOM     21  H   UNL     1       2.910  -0.985  -0.511  0.00  0.00    -0.081 HD
BRANCH  20  23
ATOM     22  C   UNL     1       0.604   0.102  -1.258  0.00  0.00    -0.017 C 
ATOM     23  C   UNL     1       2.008   0.708  -1.207  0.00  0.00    -0.081 C 
ENDBRANCH  20  23
BRANCH  20  24
ATOM     24  C   UNL     1       4.155   0.589  -0.143  0.00  0.00    -0.081 C 
ATOM     25  C   UNL     1       5.085  -0.322   0.661  0.00  0.00    -0.017 C 
ENDBRANCH  20  24
ENDBRANCH  14  20
ENDBRANCH   1  14
TORSDOF 7
