REMARK  Name = ZINC08304827
REMARK  6 active torsions:
REMARK  status: ('A' for Active; 'I' for Inactive)
REMARK    1  A    between atoms: C_6  and  N_7
REMARK    2  A    between atoms: C_8  and  C_10
REMARK    3  A    between atoms: C_10  and  C_11
REMARK    4  A    between atoms: C_11  and  C_12
REMARK    5  A    between atoms: C_12  and  N_13
REMARK    6  A    between atoms: C_14  and  C_16
REMARK                            x       y       z     vdW  Elec       q    Type
REMARK                         _______ _______ _______ _____ _____    ______ ____
ROOT
ATOM      1  C   UNL     1       2.457   1.002  -0.013  0.00  0.00    +0.028 C 
ENDROOT
BRANCH   1   2
ATOM      2  C   UNL     1       1.280   1.980   0.007  0.00  0.00    +0.097 C 
BRANCH   2   4
ATOM      3  N   UNL     1      -1.191   1.867   0.018  0.00  0.00    -0.285 N 
ATOM      4  C   UNL     1      -0.014   1.209   0.007  0.00  0.00    +0.217 C 
ATOM      5  O   UNL     1       0.002  -0.004  -0.008  0.00  0.00    -0.275 OA
ATOM      6  H   UNL     1      -1.205   2.833   0.098  0.00  0.00    +0.155 HD
BRANCH   3  12
ATOM      7  C   UNL     1      -2.510  -0.099   0.499  0.00  0.00    +0.023 A 
ATOM      8  C   UNL     1      -3.697  -0.796   0.393  0.00  0.00    +0.006 A 
ATOM      9  C   UNL     1      -4.769  -0.251  -0.294  0.00  0.00    -0.044 A 
ATOM     10  C   UNL     1      -4.653   0.998  -0.877  0.00  0.00    -0.042 A 
ATOM     11  C   UNL     1      -3.468   1.703  -0.769  0.00  0.00    +0.027 A 
ATOM     12  C   UNL     1      -2.391   1.155  -0.086  0.00  0.00    +0.034 A 
ATOM     13  C   UNL     1      -5.953   1.365  -1.562  0.00  0.00    +0.036 C 
ATOM     14  C   UNL     1      -7.008   0.410  -0.965  0.00  0.00    +0.009 C 
ATOM     15  C   UNL     1      -6.155  -0.807  -0.547  0.00  0.00    +0.036 C 
ENDBRANCH   3  12
ENDBRANCH   2   4
ENDBRANCH   1   2
BRANCH   1  16
ATOM     16  C   UNL     1       3.771   1.785  -0.013  0.00  0.00    +0.104 C 
BRANCH  16  17
ATOM     17  N   UNL     1       4.897   0.848  -0.032  0.00  0.00    -0.315 N 
ATOM     18  C   UNL     1       6.162   1.315  -0.035  0.00  0.00    +0.219 C 
ATOM     19  O   UNL     1       6.367   2.510  -0.022  0.00  0.00    -0.275 OA
ATOM     20  H   UNL     1       4.733  -0.107  -0.042  0.00  0.00    +0.149 HD
BRANCH  18  21
ATOM     21  C   UNL     1       7.321   0.352  -0.055  0.00  0.00    +0.048 C 
ATOM     22  C   UNL     1       7.260  -0.544   1.184  0.00  0.00    +0.019 C 
ATOM     23  C   UNL     1       8.437  -1.522   1.164  0.00  0.00    -0.009 C 
ATOM     24  C   UNL     1       9.751  -0.739   1.164  0.00  0.00    +0.007 C 
ATOM     25  C   UNL     1       9.811   0.157  -0.075  0.00  0.00    -0.009 C 
ATOM     26  C   UNL     1       8.635   1.135  -0.055  0.00  0.00    +0.019 C 
ATOM     27  C   UNL     1       9.733  -0.709  -1.335  0.00  0.00    +0.007 C 
ATOM     28  C   UNL     1       8.419  -1.492  -1.335  0.00  0.00    -0.009 C 
ATOM     29  C   UNL     1       8.359  -2.388  -0.096  0.00  0.00    +0.007 C 
ATOM     30  C   UNL     1       7.243  -0.514  -1.315  0.00  0.00    +0.019 C 
ENDBRANCH  18  21
ENDBRANCH  16  17
ENDBRANCH   1  16
TORSDOF 6
