REMARK  Name = ZINC21574833
REMARK  6 active torsions:
REMARK  status: ('A' for Active; 'I' for Inactive)
REMARK    1  A    between atoms: C_1  and  C_2
REMARK    2  A    between atoms: C_3  and  C_29
REMARK    3  A    between atoms: C_8  and  C_10
REMARK    4  A    between atoms: C_10  and  C_12
REMARK    5  A    between atoms: C_10  and  S_13
REMARK    6  A    between atoms: S_13  and  C_14
REMARK                            x       y       z     vdW  Elec       q    Type
REMARK                         _______ _______ _______ _____ _____    ______ ____
ROOT
ATOM      1  C   UNL     1       0.021  -4.839  -0.011  0.00  0.00    +0.171 A 
ATOM      2  N   UNL     1       1.304  -4.546  -0.362  0.00  0.00    -0.301 N 
ATOM      3  H   UNL     1       2.018  -5.359  -0.560  0.00  0.00    +0.171 HD
ATOM      4  C   UNL     1       1.763  -3.279  -0.486  0.00  0.00    +0.261 A 
ATOM      5  O   UNL     1       2.916  -3.037  -0.802  0.00  0.00    -0.267 OA
ATOM      6  C   UNL     1       0.812  -2.240  -0.224  0.00  0.00    +0.075 A 
ATOM      7  C   UNL     1       1.051  -0.807  -0.287  0.00  0.00    -0.023 A 
ATOM      8  C   UNL     1       0.002  -0.004   0.002  0.00  0.00    -0.004 A 
ATOM      9  S   UNL     1      -1.341  -1.105   0.369  0.00  0.00    -0.073 S 
ATOM     10  C   UNL     1      -0.496  -2.637   0.135  0.00  0.00    +0.117 A 
ATOM     11  N   UNL     1      -0.885  -3.902   0.239  0.00  0.00    -0.216 NA
ATOM     12  C   UNL     1      -0.018   1.493   0.010  0.00  0.00    +0.043 C 
ATOM     13  C   UNL     1       1.431   2.000  -0.001  0.00  0.00    +0.005 C 
ATOM     14  C   UNL     1       2.206   1.244  -1.084  0.00  0.00    +0.005 C 
ATOM     15  C   UNL     1       2.405  -0.211  -0.659  0.00  0.00    +0.037 C 
ENDROOT
BRANCH   1  16
ATOM     16  S   UNL     1      -0.456  -6.530   0.117  0.00  0.00    -0.075 S 
BRANCH  16  17
ATOM     17  C   UNL     1      -2.191  -6.333   0.593  0.00  0.00    +0.137 C 
ATOM     18  C   UNL     1      -2.269  -5.673   1.971  0.00  0.00    +0.029 C 
BRANCH  17  26
ATOM     19  C   UNL     1      -4.353 -12.663   0.961  0.00  0.00    +0.066 C 
ATOM     20  C   UNL     1      -4.987 -11.315   0.734  0.00  0.00    +0.050 A 
ATOM     21  C   UNL     1      -6.324 -11.201   0.542  0.00  0.00    +0.011 A 
ATOM     22  S   UNL     1      -6.480  -9.433   0.336  0.00  0.00    -0.057 S 
ATOM     23  C   UNL     1      -4.800  -9.035   0.522  0.00  0.00    +0.165 A 
ATOM     24  N   UNL     1      -4.253 -10.219   0.713  0.00  0.00    -0.230 NA
ATOM     25  N   UNL     1      -4.188  -7.788   0.475  0.00  0.00    -0.264 N 
ATOM     26  C   UNL     1      -2.855  -7.685   0.644  0.00  0.00    +0.232 C 
ATOM     27  O   UNL     1      -2.189  -8.680   0.838  0.00  0.00    -0.274 OA
ATOM     28  C   UNL     1      -7.385 -12.270   0.510  0.00  0.00    +0.053 C 
ATOM     29  H   UNL     1      -4.791  -6.885   0.299  0.00  0.00    +0.157 HD
ENDBRANCH  17  26
ENDBRANCH  16  17
ENDBRANCH   1  16
TORSDOF 3
