REMARK  Name = ZINC08606657
REMARK  11 active torsions:
REMARK  status: ('A' for Active; 'I' for Inactive)
REMARK    1  A    between atoms: C_1  and  O_2
REMARK    2  A    between atoms: O_2  and  C_3
REMARK    3  A    between atoms: C_5  and  C_13
REMARK    4  A    between atoms: C_7  and  O_11
REMARK    5  A    between atoms: C_8  and  O_9
REMARK    6  A    between atoms: O_9  and  C_10
REMARK    7  A    between atoms: O_11  and  C_12
REMARK    8  A    between atoms: C_16  and  C_31
REMARK    9  A    between atoms: N_23  and  C_24
REMARK   10  A    between atoms: C_24  and  C_25
REMARK   11  A    between atoms: C_36  and  O_37
REMARK                            x       y       z     vdW  Elec       q    Type
REMARK                         _______ _______ _______ _____ _____    ______ ____
ROOT
ATOM      1  C   UNL     1       2.402   0.386  -4.230  0.00  0.00    +0.142 C 
ATOM      2  C   UNL     1       1.479   0.446  -5.417  0.00  0.00    +0.035 A 
ATOM      3  C   UNL     1       0.265   0.803  -5.910  0.00  0.00    +0.075 A 
ATOM      4  N   UNL     1       0.262   0.459  -7.231  0.00  0.00    -0.276 N 
ATOM      5  H   UNL     1      -0.480   0.597  -7.841  0.00  0.00    +0.189 HD
ATOM      6  N   UNL     1       1.388  -0.075  -7.548  0.00  0.00    -0.168 NA
ATOM      7  C   UNL     1       2.187  -0.121  -6.501  0.00  0.00    +0.153 A 
ATOM      8  C   UNL     1       3.517  -0.525  -6.010  0.00  0.00    +0.268 C 
ATOM      9  O   UNL     1       4.378  -1.048  -6.691  0.00  0.00    -0.268 OA
ATOM     10  N   UNL     1       3.645  -0.235  -4.703  0.00  0.00    -0.281 N 
ENDROOT
BRANCH   1  13
ATOM     11  C   UNL     1       0.606  -0.608  -1.056  0.00  0.00    +0.165 A 
ATOM     12  C   UNL     1       1.173   0.160  -2.063  0.00  0.00    +0.055 A 
ATOM     13  C   UNL     1       1.787  -0.452  -3.139  0.00  0.00    -0.015 A 
ATOM     14  C   UNL     1       1.839  -1.831  -3.217  0.00  0.00    +0.055 A 
ATOM     15  C   UNL     1       1.275  -2.606  -2.215  0.00  0.00    +0.165 A 
ATOM     16  C   UNL     1       0.661  -1.994  -1.128  0.00  0.00    +0.204 A 
BRANCH  11  18
ATOM     17  C   UNL     1      -0.017   1.425   0.010  0.00  0.00    +0.277 C 
ATOM     18  O   UNL     1       0.002  -0.004   0.002  0.00  0.00    -0.491 OA
ENDBRANCH  11  18
BRANCH  16  19
ATOM     19  O   UNL     1       0.111  -2.751  -0.140  0.00  0.00    -0.488 OA
ATOM     20  C   UNL     1      -1.260  -3.124  -0.295  0.00  0.00    +0.277 C 
ENDBRANCH  16  19
BRANCH  15  21
ATOM     21  O   UNL     1       1.326  -3.963  -2.293  0.00  0.00    -0.491 OA
ATOM     22  C   UNL     1       1.977  -4.523  -3.435  0.00  0.00    +0.277 C 
ENDBRANCH  15  21
ENDBRANCH   1  13
BRANCH   3  23
ATOM     23  C   UNL     1      -0.840   1.441  -5.160  0.00  0.00    +0.042 A 
ATOM     24  C   UNL     1      -2.040   0.759  -4.965  0.00  0.00    +0.013 A 
ATOM     25  C   UNL     1      -3.067   1.359  -4.266  0.00  0.00    +0.001 A 
ATOM     26  C   UNL     1      -2.910   2.636  -3.756  0.00  0.00    +0.004 A 
ATOM     27  C   UNL     1      -1.725   3.322  -3.943  0.00  0.00    +0.046 A 
ATOM     28  C   UNL     1      -0.683   2.730  -4.639  0.00  0.00    +0.126 A 
BRANCH  28  29
ATOM     29  O   UNL     1       0.484   3.401  -4.818  0.00  0.00    -0.506 OA
ATOM     30  H   UNL     1       0.510   3.938  -5.622  0.00  0.00    +0.292 HD
ENDBRANCH  28  29
ENDBRANCH   3  23
BRANCH  10  31
ATOM     31  C   UNL     1       4.831  -0.495  -3.884  0.00  0.00    +0.144 C 
BRANCH  31  32
ATOM     32  C   UNL     1       4.725  -1.866  -3.268  0.00  0.00    -0.027 A 
ATOM     33  C   UNL     1       4.120  -2.045  -2.033  0.00  0.00    +0.025 A 
ATOM     34  C   UNL     1       4.041  -3.317  -1.499  0.00  0.00    +0.111 A 
ATOM     35  N   UNL     1       4.534  -4.353  -2.149  0.00  0.00    -0.263 NA
ATOM     36  C   UNL     1       5.117  -4.220  -3.325  0.00  0.00    +0.111 A 
ATOM     37  C   UNL     1       5.226  -2.980  -3.924  0.00  0.00    +0.025 A 
ENDBRANCH  31  32
ENDBRANCH  10  31
TORSDOF 8
