REMARK  Name = ZINC36801704
REMARK  9 active torsions:
REMARK  status: ('A' for Active; 'I' for Inactive)
REMARK    1  A    between atoms: C_1  and  C_2
REMARK    2  A    between atoms: C_2  and  C_3
REMARK    3  A    between atoms: C_10  and  C_12
REMARK    4  A    between atoms: C_12  and  C_14
REMARK    5  A    between atoms: C_12  and  S_15
REMARK    6  A    between atoms: S_15  and  C_16
REMARK    7  A    between atoms: C_19  and  C_28
REMARK    8  A    between atoms: N_20  and  C_21
REMARK    9  A    between atoms: C_21  and  C_22
REMARK                            x       y       z     vdW  Elec       q    Type
REMARK                         _______ _______ _______ _____ _____    ______ ____
ROOT
ATOM      1  C   UNL     1      -3.701   2.706   4.882  0.00  0.00    +0.193 A 
ATOM      2  N   UNL     1      -3.458   1.947   5.925  0.00  0.00    -0.122 NA
ATOM      3  N   UNL     1      -4.066   2.410   6.959  0.00  0.00    -0.128 NA
ATOM      4  C   UNL     1      -4.735   3.493   6.639  0.00  0.00    +0.167 A 
ATOM      5  N   UNL     1      -4.518   3.721   5.300  0.00  0.00    -0.300 N 
ENDROOT
BRANCH   4   6
ATOM      6  C   UNL     1      -5.561   4.316   7.546  0.00  0.00    +0.044 A 
ATOM      7  C   UNL     1      -5.514   5.666   7.686  0.00  0.00    +0.095 A 
ATOM      8  N   UNL     1      -6.427   6.064   8.619  0.00  0.00    -0.360 N 
ATOM      9  H   UNL     1      -6.578   6.983   8.890  0.00  0.00    +0.165 HD
ATOM     10  C   UNL     1      -7.103   4.973   9.120  0.00  0.00    +0.047 A 
ATOM     11  C   UNL     1      -6.599   3.832   8.471  0.00  0.00    +0.010 A 
ATOM     12  C   UNL     1      -7.109   2.572   8.780  0.00  0.00    +0.011 A 
ATOM     13  C   UNL     1      -8.109   2.453   9.720  0.00  0.00    +0.001 A 
ATOM     14  C   UNL     1      -8.609   3.579  10.358  0.00  0.00    +0.002 A 
ATOM     15  C   UNL     1      -8.110   4.830  10.069  0.00  0.00    +0.026 A 
ENDBRANCH   4   6
BRANCH   1  16
ATOM     16  S   UNL     1      -3.083   2.466   3.249  0.00  0.00    -0.074 S 
BRANCH  16  17
ATOM     17  C   UNL     1      -2.078   0.961   3.377  0.00  0.00    +0.137 C 
ATOM     18  C   UNL     1      -2.981  -0.228   3.716  0.00  0.00    +0.029 C 
BRANCH  17  25
ATOM     19  C   UNL     1       0.461  -0.249   0.770  0.00  0.00    +0.076 C 
ATOM     20  C   UNL     1       0.587  -1.742   0.455  0.00  0.00    +0.022 C 
ATOM     21  C   UNL     1       1.198  -2.464   1.658  0.00  0.00    +0.003 C 
ATOM     22  C   UNL     1       0.279  -2.302   2.872  0.00  0.00    +0.019 C 
ATOM     23  C   UNL     1       0.150  -0.815   3.214  0.00  0.00    +0.108 C 
ATOM     24  N   UNL     1      -0.298  -0.088   2.018  0.00  0.00    -0.298 N 
ATOM     25  C   UNL     1      -1.385   0.707   2.063  0.00  0.00    +0.229 C 
ATOM     26  O   UNL     1      -1.805   1.218   1.047  0.00  0.00    -0.274 OA
BRANCH  19  28
ATOM     27  C   UNL     1       0.517   0.288  -1.670  0.00  0.00    +0.006 C 
ATOM     28  C   UNL     1      -0.275   0.456  -0.372  0.00  0.00    +0.019 C 
ENDBRANCH  19  28
ENDBRANCH  17  25
ENDBRANCH  16  17
ENDBRANCH   1  16
BRANCH   5  29
ATOM     29  C   UNL     1      -5.051   4.818   4.489  0.00  0.00    +0.157 C 
BRANCH  29  30
ATOM     30  C   UNL     1      -6.447   4.447   3.983  0.00  0.00    +0.138 C 
ATOM     31  C   UNL     1      -6.967   5.545   3.030  0.00  0.00    +0.035 C 
ATOM     32  C   UNL     1      -8.469   5.632   3.418  0.00  0.00    +0.031 C 
ATOM     33  C   UNL     1      -8.397   5.343   4.938  0.00  0.00    +0.160 C 
ATOM     34  O   UNL     1      -7.357   4.361   5.085  0.00  0.00    -0.375 OA
ENDBRANCH  29  30
ENDBRANCH   5  29
TORSDOF 7
