REMARK  Name = ZINC03343855
REMARK  9 active torsions:
REMARK  status: ('A' for Active; 'I' for Inactive)
REMARK    1  A    between atoms: C_1  and  C_2
REMARK    2  A    between atoms: C_5  and  C_8
REMARK    3  A    between atoms: C_11  and  S_14
REMARK    4  A    between atoms: N_12  and  N_13
REMARK    5  A    between atoms: S_14  and  C_15
REMARK    6  A    between atoms: C_15  and  C_16
REMARK    7  A    between atoms: N_18  and  C_19
REMARK    8  A    between atoms: C_22  and  S_25
REMARK    9  A    between atoms: S_25  and  N_28
REMARK                            x       y       z     vdW  Elec       q    Type
REMARK                         _______ _______ _______ _____ _____    ______ ____
ROOT
ATOM      1  C   UNL     1      -2.628   4.191   5.515  0.00  0.00    +0.227 C 
ATOM      2  O   UNL     1      -1.718   4.893   5.125  0.00  0.00    -0.275 OA
ATOM      3  N   UNL     1      -2.943   3.064   4.846  0.00  0.00    -0.285 N 
ATOM      4  H   UNL     1      -3.716   2.542   5.112  0.00  0.00    +0.155 HD
ENDROOT
BRANCH   3   5
ATOM      5  C   UNL     1      -2.154   2.645   3.769  0.00  0.00    +0.034 A 
ATOM      6  C   UNL     1      -0.813   3.002   3.709  0.00  0.00    +0.025 A 
ATOM      7  C   UNL     1      -0.036   2.587   2.645  0.00  0.00    +0.030 A 
ATOM      8  C   UNL     1      -0.593   1.817   1.640  0.00  0.00    +0.106 A 
ATOM      9  C   UNL     1      -1.929   1.465   1.694  0.00  0.00    +0.030 A 
ATOM     10  C   UNL     1      -2.710   1.873   2.758  0.00  0.00    +0.025 A 
BRANCH   8  11
ATOM     11  S   UNL     1       0.401   1.290   0.283  0.00  0.00    +0.061 S 
ATOM     12  O   UNL     1       1.478   2.211   0.188  0.00  0.00    -0.153 OA
ATOM     13  O   UNL     1      -0.487   1.041  -0.798  0.00  0.00    -0.153 OA
BRANCH  11  14
ATOM     14  N   UNL     1       1.062  -0.170   0.699  0.00  0.00    -0.177 NA
ATOM     15  C   UNL     1       2.349  -0.365   1.381  0.00  0.00    +0.109 C 
ATOM     16  C   UNL     1       2.561  -1.885   1.537  0.00  0.00    +0.018 C 
ATOM     17  C   UNL     1       1.655  -2.476   0.424  0.00  0.00    +0.018 C 
ATOM     18  C   UNL     1       0.459  -1.491   0.441  0.00  0.00    +0.109 C 
ENDBRANCH  11  14
ENDBRANCH   8  11
ENDBRANCH   3   5
BRANCH   1  19
ATOM     19  C   UNL     1      -3.405   4.579   6.746  0.00  0.00    +0.173 C 
BRANCH  19  20
ATOM     20  S   UNL     1      -2.748   6.129   7.411  0.00  0.00    -0.075 S 
BRANCH  20  24
ATOM     21  C   UNL     1      -4.781   7.110  10.600  0.00  0.00    +0.182 A 
ATOM     22  N   UNL     1      -5.353   5.989  10.227  0.00  0.00    -0.127 NA
ATOM     23  N   UNL     1      -4.785   5.538   9.166  0.00  0.00    -0.121 NA
ATOM     24  C   UNL     1      -3.809   6.339   8.802  0.00  0.00    +0.209 A 
ATOM     25  N   UNL     1      -3.774   7.369   9.698  0.00  0.00    -0.224 N 
BRANCH  21  30
ATOM     26  C   UNL     1      -6.214  10.335  15.145  0.00  0.00    +0.044 C 
ATOM     27  C   UNL     1      -5.839   9.490  13.955  0.00  0.00    -0.050 A 
ATOM     28  C   UNL     1      -5.060  10.029  12.946  0.00  0.00    +0.004 A 
ATOM     29  C   UNL     1      -4.713   9.262  11.854  0.00  0.00    +0.012 A 
ATOM     30  C   UNL     1      -5.149   7.939  11.768  0.00  0.00    +0.021 A 
ATOM     31  C   UNL     1      -5.939   7.403  12.786  0.00  0.00    +0.012 A 
ATOM     32  C   UNL     1      -6.275   8.180  13.876  0.00  0.00    +0.004 A 
ENDBRANCH  21  30
BRANCH  25  33
ATOM     33  N   UNL     1      -2.919   8.434   9.700  0.00  0.00    -0.295 N 
ATOM     34  H   UNL     1      -3.335   9.233   9.246  0.00  0.00    +0.163 HD
ATOM     35  H   UNL     1      -2.627   8.662  10.639  0.00  0.00    +0.163 HD
ENDBRANCH  25  33
ENDBRANCH  20  24
ENDBRANCH  19  20
ENDBRANCH   1  19
TORSDOF 8
