REMARK  Name = ZINC62995785
REMARK  7 active torsions:
REMARK  status: ('A' for Active; 'I' for Inactive)
REMARK    1  A    between atoms: C_1  and  C_2
REMARK    2  A    between atoms: C_2  and  N_3
REMARK    3  A    between atoms: N_3  and  C_4
REMARK    4  A    between atoms: N_3  and  C_6
REMARK    5  A    between atoms: C_4  and  C_5
REMARK    6  A    between atoms: C_9  and  N_12
REMARK    7  A    between atoms: C_14  and  N_20
REMARK                            x       y       z     vdW  Elec       q    Type
REMARK                         _______ _______ _______ _____ _____    ______ ____
ROOT
ATOM      1  C   UNL     1       0.942  -1.921  -1.878  0.00  0.00    +0.014 A 
ATOM      2  C   UNL     1       1.292  -2.551  -0.698  0.00  0.00    +0.023 A 
ATOM      3  C   UNL     1       1.104  -3.912  -0.559  0.00  0.00    +0.025 A 
ATOM      4  C   UNL     1       0.562  -4.648  -1.605  0.00  0.00    +0.033 A 
ATOM      5  C   UNL     1       0.211  -4.011  -2.789  0.00  0.00    +0.025 A 
ATOM      6  C   UNL     1       0.398  -2.649  -2.920  0.00  0.00    +0.023 A 
ENDROOT
BRANCH   4   7
ATOM      7  N   UNL     1       0.370  -6.025  -1.468  0.00  0.00    -0.298 N 
ATOM      8  C   UNL     1      -0.749  -6.633  -2.034  0.00  0.00    +0.144 A 
ATOM      9  C   UNL     1      -0.875  -8.024  -1.998  0.00  0.00    +0.066 A 
ATOM     10  C   UNL     1      -1.996  -8.613  -2.566  0.00  0.00    +0.043 A 
ATOM     11  C   UNL     1      -2.951  -7.790  -3.150  0.00  0.00    +0.038 A 
ATOM     12  C   UNL     1      -2.760  -6.423  -3.148  0.00  0.00    +0.128 A 
ATOM     13  N   UNL     1      -1.686  -5.888  -2.596  0.00  0.00    -0.237 NA
ATOM     14 BR   UNL     1      -4.499  -8.536  -3.941  0.00  0.00    -0.049 Br
ATOM     15  H   UNL     1       1.016  -6.558  -0.978  0.00  0.00    +0.154 HD
BRANCH   9  16
ATOM     16  N   UNL     1       0.115  -8.812  -1.398  0.00  0.00    -0.355 N 
ATOM     17  H   UNL     1       0.896  -8.392  -1.004  0.00  0.00    +0.142 HD
ATOM     18  H   UNL     1       0.020  -9.777  -1.377  0.00  0.00    +0.142 HD
ENDBRANCH   9  16
ENDBRANCH   4   7
BRANCH   1  19
ATOM     19  N   UNL     1       1.134  -0.543  -2.016  0.00  0.00    -0.394 NA
ATOM     20  H   UNL     1       0.823  -0.249  -2.930  0.00  0.00    +0.126 HD
BRANCH  19  22
ATOM     21  C   UNL     1       0.472   1.674  -1.212  0.00  0.00    +0.022 C 
ATOM     22  C   UNL     1       0.362   0.165  -0.986  0.00  0.00    +0.081 C 
ENDBRANCH  19  22
BRANCH  19  23
ATOM     23  C   UNL     1       2.561  -0.229  -1.860  0.00  0.00    +0.081 C 
ATOM     24  C   UNL     1       3.351  -0.865  -3.006  0.00  0.00    +0.022 C 
ENDBRANCH  19  23
ENDBRANCH   1  19
TORSDOF 5
