REMARK  Name = ZINC67449474
REMARK  11 active torsions:
REMARK  status: ('A' for Active; 'I' for Inactive)
REMARK    1  A    between atoms: C_1  and  C_2
REMARK    2  A    between atoms: C_2  and  C_4
REMARK    3  A    between atoms: C_2  and  N_16
REMARK    4  A    between atoms: C_7  and  O_12
REMARK    5  A    between atoms: C_8  and  O_10
REMARK    6  A    between atoms: O_10  and  C_11
REMARK    7  A    between atoms: O_12  and  C_13
REMARK    8  A    between atoms: C_13  and  C_14
REMARK    9  A    between atoms: C_14  and  O_15
REMARK   10  A    between atoms: N_16  and  C_17
REMARK   11  A    between atoms: C_17  and  C_18
REMARK                            x       y       z     vdW  Elec       q    Type
REMARK                         _______ _______ _______ _____ _____    ______ ____
ROOT
ATOM      1  C   UNL     1      -0.019   1.526   0.010  0.00  0.00    -0.009 C 
ATOM      2  C   UNL     1       0.002  -0.004   0.002  0.00  0.00    -0.043 C 
ENDROOT
BRANCH   2   3
ATOM      3  C   UNL     1       0.707  -0.490  -1.238  0.00  0.00    -0.058 A 
ATOM      4  C   UNL     1       0.036  -0.521  -2.446  0.00  0.00    +0.006 A 
ATOM      5  C   UNL     1       0.679  -0.966  -3.586  0.00  0.00    +0.049 A 
ATOM      6  C   UNL     1       1.999  -1.382  -3.520  0.00  0.00    +0.162 A 
ATOM      7  C   UNL     1       2.675  -1.350  -2.304  0.00  0.00    +0.162 A 
ATOM      8  C   UNL     1       2.026  -0.899  -1.166  0.00  0.00    +0.051 A 
BRANCH   7   9
ATOM      9  O   UNL     1       3.970  -1.758  -2.234  0.00  0.00    -0.491 OA
ATOM     10  C   UNL     1       4.601  -1.698  -0.953  0.00  0.00    +0.277 C 
ENDBRANCH   7   9
BRANCH   6  11
ATOM     11  O   UNL     1       2.632  -1.820  -4.641  0.00  0.00    -0.486 OA
BRANCH  11  12
ATOM     12  C   UNL     1       1.876  -1.825  -5.853  0.00  0.00    +0.257 C 
BRANCH  12  13
ATOM     13  C   UNL     1       2.749  -2.347  -6.996  0.00  0.00    +0.196 C 
BRANCH  13  14
ATOM     14  O   UNL     1       3.085  -3.714  -6.754  0.00  0.00    -0.392 OA
ATOM     15  H   UNL     1       3.639  -4.111  -7.441  0.00  0.00    +0.210 HD
ENDBRANCH  13  14
ENDBRANCH  12  13
ENDBRANCH  11  12
ENDBRANCH   6  11
ENDBRANCH   2   3
BRANCH   2  16
ATOM     16  N   UNL     1      -1.376  -0.512   0.012  0.00  0.00    +0.386 N 
ATOM     17  H   UNL     1      -1.888  -0.113  -0.760  0.00  0.00    -0.085 HD
ATOM     18  H   UNL     1      -1.364  -1.518  -0.076  0.00  0.00    -0.085 HD
BRANCH  16  19
ATOM     19  C   UNL     1      -2.026  -0.140   1.276  0.00  0.00    -0.037 C 
BRANCH  19  20
ATOM     20  C   UNL     1      -3.440  -0.661   1.287  0.00  0.00    -0.008 A 
ATOM     21  C   UNL     1      -3.885  -1.845   1.735  0.00  0.00    +0.057 A 
ATOM     22  C   UNL     1      -5.306  -2.150   1.651  0.00  0.00    +0.008 A 
ATOM     23  C   UNL     1      -5.986  -3.322   2.058  0.00  0.00    +0.010 A 
ATOM     24  C   UNL     1      -7.331  -3.435   1.901  0.00  0.00    +0.001 A 
ATOM     25  C   UNL     1      -8.085  -2.413   1.339  0.00  0.00    +0.001 A 
ATOM     26  C   UNL     1      -7.459  -1.253   0.929  0.00  0.00    +0.016 A 
ATOM     27  C   UNL     1      -6.095  -1.126   1.084  0.00  0.00    +0.021 A 
ATOM     28  S   UNL     1      -4.920   0.151   0.714  0.00  0.00    -0.094 S 
ATOM     29 CL   UNL     1      -2.778  -3.000   2.407  0.00  0.00    -0.082 Cl
ENDBRANCH  19  20
ENDBRANCH  16  19
ENDBRANCH   2  16
TORSDOF 9
