REMARK  Name = ZINC14471125
REMARK  7 active torsions:
REMARK  status: ('A' for Active; 'I' for Inactive)
REMARK    1  A    between atoms: C_1  and  C_2
REMARK    2  A    between atoms: C_2  and  C_3
REMARK    3  A    between atoms: C_2  and  C_4
REMARK    4  A    between atoms: C_4  and  O_5
REMARK    5  A    between atoms: O_5  and  C_6
REMARK    6  A    between atoms: C_13  and  C_22
REMARK    7  A    between atoms: C_26  and  N_28
REMARK                            x       y       z     vdW  Elec       q    Type
REMARK                         _______ _______ _______ _____ _____    ______ ____
ROOT
ATOM      1  C   UNL     1       1.274   0.825  -0.305  0.00  0.00    +0.142 A 
ATOM      2  C   UNL     1       0.427   1.919  -0.301  0.00  0.00    +0.047 A 
ATOM      3  C   UNL     1       0.952   3.191  -0.160  0.00  0.00    +0.004 A 
ATOM      4  C   UNL     1       2.313   3.366  -0.023  0.00  0.00    +0.006 A 
ATOM      5  C   UNL     1       3.173   2.274  -0.024  0.00  0.00    -0.016 A 
ATOM      6  C   UNL     1       2.654   1.001  -0.166  0.00  0.00    +0.074 A 
ATOM      7  N   UNL     1       3.465  -0.137  -0.179  0.00  0.00    -0.334 N 
ATOM      8  C   UNL     1       4.720   0.071   0.544  0.00  0.00    +0.105 C 
ATOM      9  C   UNL     1       5.473   1.252  -0.073  0.00  0.00    +0.029 C 
ATOM     10  C   UNL     1       4.642   2.537   0.134  0.00  0.00    +0.049 C 
ATOM     11  C   UNL     1       4.959   2.957   1.550  0.00  0.00    -0.023 C 
ATOM     12  C   UNL     1       6.087   2.421   1.946  0.00  0.00    -0.030 C 
ATOM     13  C   UNL     1       6.688   1.571   0.843  0.00  0.00    +0.033 C 
ATOM     14  H   UNL     1       2.968  -0.939   0.180  0.00  0.00    +0.147 HD
ENDROOT
BRANCH   8  15
ATOM     15  C   UNL     1       4.423   0.364   1.992  0.00  0.00    -0.025 A 
ATOM     16  C   UNL     1       3.171   0.820   2.362  0.00  0.00    +0.007 A 
ATOM     17  C   UNL     1       2.899   1.090   3.690  0.00  0.00    +0.022 A 
ATOM     18  C   UNL     1       3.879   0.903   4.649  0.00  0.00    +0.071 A 
ATOM     19  C   UNL     1       5.131   0.447   4.278  0.00  0.00    +0.145 A 
ATOM     20  C   UNL     1       5.401   0.172   2.950  0.00  0.00    +0.039 A 
ATOM     21 CL   UNL     1       3.537   1.241   6.317  0.00  0.00    -0.081 Cl
BRANCH  19  22
ATOM     22  N   UNL     1       6.179   0.248   5.303  0.00  0.00    +0.058 N 
ATOM     23  O   UNL     1       7.282  -0.154   4.976  0.00  0.00    -0.126 OA
ATOM     24  O   UNL     1       5.940   0.485   6.473  0.00  0.00    -0.126 OA
ENDBRANCH  19  22
ENDBRANCH   8  15
BRANCH   1  25
ATOM     25  O   UNL     1       0.761  -0.427  -0.444  0.00  0.00    -0.490 OA
BRANCH  25  26
ATOM     26  C   UNL     1      -0.657  -0.536  -0.581  0.00  0.00    +0.232 C 
BRANCH  26  28
ATOM     27  C   UNL     1      -0.703  -2.755   0.566  0.00  0.00    +0.010 C 
ATOM     28  C   UNL     1      -1.044  -2.009  -0.726  0.00  0.00    +0.020 C 
ATOM     29  C   UNL     1      -2.545  -2.118  -0.997  0.00  0.00    +0.010 C 
ENDBRANCH  26  28
ENDBRANCH  25  26
ENDBRANCH   1  25
TORSDOF 5
