REMARK  Name = ZINC13049028
REMARK  10 active torsions:
REMARK  status: ('A' for Active; 'I' for Inactive)
REMARK    1  A    between atoms: C_1  and  C_2
REMARK    2  A    between atoms: C_2  and  C_3
REMARK    3  A    between atoms: C_2  and  C_4
REMARK    4  A    between atoms: C_4  and  C_6
REMARK    5  A    between atoms: C_4  and  N_21
REMARK    6  A    between atoms: N_8  and  C_9
REMARK    7  A    between atoms: C_14  and  C_15
REMARK    8  A    between atoms: C_14  and  N_58
REMARK    9  A    between atoms: N_21  and  S_22
REMARK   10  A    between atoms: S_22  and  C_25
REMARK                            x       y       z     vdW  Elec       q    Type
REMARK                         _______ _______ _______ _____ _____    ______ ____
ROOT
ATOM      1  C   UNL     1      -1.370   4.197   0.282  0.00  0.00    +0.232 C 
ATOM      2  O   UNL     1      -2.221   5.019   0.550  0.00  0.00    -0.274 OA
ATOM      3  N   UNL     1      -0.914   4.085  -0.981  0.00  0.00    -0.313 N 
ATOM      4  H   UNL     1      -0.287   3.382  -1.210  0.00  0.00    +0.149 HD
ENDROOT
BRANCH   3   5
ATOM      5  C   UNL     1      -1.366   5.027  -2.008  0.00  0.00    +0.055 C 
ATOM      6  C   UNL     1      -0.436   6.261  -2.051  0.00  0.00    +0.002 C 
ATOM      7  C   UNL     1       0.539   5.921  -3.207  0.00  0.00    -0.077 C 
ATOM      8  C   UNL     1      -1.251   4.389  -3.405  0.00  0.00    -0.056 C 
ATOM      9  N   UNL     1      -0.343   5.244  -4.171  0.00  0.00    +0.384 N 
ATOM     10  H   UNL     1      -0.883   5.941  -4.696  0.00  0.00    -0.081 HD
BRANCH   9  11
ATOM     11  C   UNL     1       0.463   4.426  -5.126  0.00  0.00    -0.043 C 
BRANCH  11  12
ATOM     12  C   UNL     1       1.201   5.332  -6.078  0.00  0.00    -0.064 A 
ATOM     13  C   UNL     1       0.615   5.702  -7.274  0.00  0.00    +0.002 A 
ATOM     14  C   UNL     1       1.290   6.536  -8.145  0.00  0.00    +0.000 A 
ATOM     15  C   UNL     1       2.555   6.993  -7.825  0.00  0.00    +0.000 A 
ATOM     16  C   UNL     1       3.143   6.619  -6.631  0.00  0.00    +0.000 A 
ATOM     17  C   UNL     1       2.466   5.788  -5.758  0.00  0.00    +0.002 A 
ENDBRANCH  11  12
ENDBRANCH   9  11
ENDBRANCH   3   5
BRANCH   1  18
ATOM     18  C   UNL     1      -0.823   3.300   1.363  0.00  0.00    +0.165 C 
BRANCH  18  20
ATOM     19  C   UNL     1      -0.838   0.976   2.281  0.00  0.00    +0.009 C 
ATOM     20  C   UNL     1      -1.480   1.922   1.264  0.00  0.00    +0.010 C 
ATOM     21  C   UNL     1      -2.976   2.048   1.558  0.00  0.00    +0.009 C 
ENDBRANCH  18  20
BRANCH  18  22
ATOM     22  N   UNL     1      -1.111   3.885   2.675  0.00  0.00    -0.178 NA
ATOM     23  H   UNL     1      -2.014   4.160   2.896  0.00  0.00    +0.149 HD
BRANCH  22  24
ATOM     24  S   UNL     1       0.106   4.076   3.781  0.00  0.00    +0.059 S 
ATOM     25  O   UNL     1      -0.467   4.726   4.908  0.00  0.00    -0.153 OA
ATOM     26  O   UNL     1       0.766   2.822   3.880  0.00  0.00    -0.153 OA
BRANCH  24  27
ATOM     27  C   UNL     1       1.269   5.204   3.087  0.00  0.00    +0.105 A 
ATOM     28  C   UNL     1       2.321   4.730   2.326  0.00  0.00    +0.030 A 
ATOM     29  C   UNL     1       3.230   5.614   1.776  0.00  0.00    +0.022 A 
ATOM     30  C   UNL     1       3.093   6.973   1.998  0.00  0.00    +0.041 A 
ATOM     31  C   UNL     1       2.043   7.446   2.765  0.00  0.00    +0.022 A 
ATOM     32  C   UNL     1       1.132   6.561   3.309  0.00  0.00    +0.030 A 
ATOM     33 CL   UNL     1       4.239   8.084   1.314  0.00  0.00    -0.084 Cl
ENDBRANCH  24  27
ENDBRANCH  22  24
ENDBRANCH  18  22
ENDBRANCH   1  18
TORSDOF 8
