REMARK  Name = ZINC15822196
REMARK  7 active torsions:
REMARK  status: ('A' for Active; 'I' for Inactive)
REMARK    1  A    between atoms: C_1  and  C_2
REMARK    2  A    between atoms: C_6  and  C_8
REMARK    3  A    between atoms: C_8  and  N_57
REMARK    4  A    between atoms: C_11  and  C_14
REMARK    5  A    between atoms: C_14  and  N_15
REMARK    6  A    between atoms: N_15  and  S_16
REMARK    7  A    between atoms: S_16  and  C_19
REMARK                            x       y       z     vdW  Elec       q    Type
REMARK                         _______ _______ _______ _____ _____    ______ ____
ROOT
ATOM      1  N   UNL     1      -2.092   6.896  -5.997  0.00  0.00    -0.190 NA
ATOM      2  H   UNL     1      -2.601   6.144  -5.657  0.00  0.00    +0.148 HD
ENDROOT
BRANCH   1   3
ATOM      3  S   UNL     1      -2.395   7.482  -7.516  0.00  0.00    +0.060 S 
ATOM      4  O   UNL     1      -3.420   6.668  -8.068  0.00  0.00    -0.153 OA
ATOM      5  O   UNL     1      -2.526   8.891  -7.389  0.00  0.00    -0.153 OA
BRANCH   3   6
ATOM      6  C   UNL     1      -0.950   7.196  -8.483  0.00  0.00    +0.127 A 
ATOM      7  C   UNL     1      -0.999   6.323  -9.555  0.00  0.00    +0.077 A 
ATOM      8  C   UNL     1       0.135   6.102 -10.317  0.00  0.00    +0.144 A 
ATOM      9  C   UNL     1       1.325   6.752  -9.995  0.00  0.00    +0.077 A 
ATOM     10  C   UNL     1       1.371   7.621  -8.918  0.00  0.00    +0.049 A 
ATOM     11  C   UNL     1       0.232   7.842  -8.163  0.00  0.00    +0.069 A 
ATOM     12 CL   UNL     1       0.285   8.931  -6.813  0.00  0.00    -0.081 Cl
ATOM     13  N   UNL     1       2.468   6.513 -10.772  0.00  0.00    -0.280 N 
ATOM     14  C   UNL     1       2.327   5.925 -11.979  0.00  0.00    +0.255 C 
ATOM     15  O   UNL     1       3.304   5.681 -12.656  0.00  0.00    -0.272 OA
ATOM     16  C   UNL     1       0.951   5.571 -12.483  0.00  0.00    +0.325 C 
ATOM     17  O   UNL     1       0.102   5.252 -11.378  0.00  0.00    -0.481 OA
ATOM     18  H   UNL     1       3.346   6.768 -10.447  0.00  0.00    +0.155 HD
ENDBRANCH   3   6
ENDBRANCH   1   3
BRANCH   1  19
ATOM     19  C   UNL     1      -1.054   7.513  -5.167  0.00  0.00    +0.109 C 
BRANCH  19  22
ATOM     20  C   UNL     1      -1.071   5.108  -2.162  0.00  0.00    -0.078 C 
ATOM     21  C   UNL     1      -0.962   5.549  -3.623  0.00  0.00    -0.014 C 
ATOM     22  C   UNL     1      -1.222   7.055  -3.717  0.00  0.00    +0.001 C 
ATOM     23  C   UNL     1      -0.218   7.795  -2.828  0.00  0.00    -0.014 C 
ATOM     24  C   UNL     1      -0.348   7.288  -1.390  0.00  0.00    -0.078 C 
ATOM     25  N   UNL     1      -0.063   5.838  -1.364  0.00  0.00    +0.382 N 
ATOM     26  H   UNL     1       0.866   5.674  -1.770  0.00  0.00    -0.081 HD
BRANCH  25  27
ATOM     27  C   UNL     1      -0.070   5.347   0.030  0.00  0.00    -0.043 C 
BRANCH  27  33
ATOM     28  C   UNL     1      -2.514   0.980   0.019  0.00  0.00    +0.044 C 
ATOM     29  C   UNL     1      -1.219   1.751   0.017  0.00  0.00    -0.050 A 
ATOM     30  C   UNL     1      -0.013   1.076   0.008  0.00  0.00    +0.003 A 
ATOM     31  C   UNL     1       1.175   1.783   0.000  0.00  0.00    +0.000 A 
ATOM     32  C   UNL     1       1.156   3.166   0.008  0.00  0.00    +0.002 A 
ATOM     33  C   UNL     1      -0.050   3.840   0.022  0.00  0.00    -0.064 A 
ATOM     34  C   UNL     1      -1.238   3.133   0.030  0.00  0.00    +0.005 A 
ENDBRANCH  27  33
ENDBRANCH  25  27
ENDBRANCH  19  22
ENDBRANCH   1  19
TORSDOF 6
