REMARK  Name = ZINC09184064
REMARK  10 active torsions:
REMARK  status: ('A' for Active; 'I' for Inactive)
REMARK    1  A    between atoms: C_1  and  C_2
REMARK    2  A    between atoms: C_2  and  O_3
REMARK    3  A    between atoms: O_3  and  C_4
REMARK    4  A    between atoms: C_4  and  C_6
REMARK    5  A    between atoms: C_7  and  N_20
REMARK    6  A    between atoms: C_10  and  O_18
REMARK    7  A    between atoms: C_11  and  O_16
REMARK    8  A    between atoms: O_16  and  C_17
REMARK    9  A    between atoms: O_18  and  C_19
REMARK   10  A    between atoms: C_21  and  C_23
REMARK                            x       y       z     vdW  Elec       q    Type
REMARK                         _______ _______ _______ _____ _____    ______ ____
ROOT
ATOM      1  C   UNL     1      -2.157   0.647  -0.172  0.00  0.00    +0.147 A 
ATOM      2  C   UNL     1      -1.425   1.804   0.012  0.00  0.00    +0.074 A 
ATOM      3  C   UNL     1      -0.032   1.393   0.197  0.00  0.00    +0.025 A 
ATOM      4  C   UNL     1       1.156   2.101   0.420  0.00  0.00    +0.061 A 
ATOM      5  C   UNL     1       2.342   1.416   0.564  0.00  0.00    +0.162 A 
ATOM      6  C   UNL     1       2.362   0.020   0.487  0.00  0.00    +0.163 A 
ATOM      7  C   UNL     1       1.197  -0.688   0.268  0.00  0.00    +0.075 A 
ATOM      8  C   UNL     1      -0.011  -0.011   0.120  0.00  0.00    +0.053 A 
ATOM      9  N   UNL     1      -1.300  -0.443  -0.103  0.00  0.00    -0.347 N 
ATOM     10  H   UNL     1      -1.569  -1.371  -0.197  0.00  0.00    +0.166 HD
ENDROOT
BRANCH   2  11
ATOM     11  N   UNL     1      -1.915   3.104   0.014  0.00  0.00    -0.277 N 
ATOM     12  C   UNL     1      -1.132   4.119  -0.402  0.00  0.00    +0.284 C 
ATOM     13  O   UNL     1      -0.029   3.889  -0.861  0.00  0.00    -0.266 OA
ATOM     14  H   UNL     1      -2.820   3.281   0.315  0.00  0.00    +0.155 HD
BRANCH  12  15
ATOM     15  C   UNL     1      -1.611   5.505  -0.302  0.00  0.00    +0.191 A 
ATOM     16  C   UNL     1      -0.911   6.603  -0.689  0.00  0.00    +0.063 A 
ATOM     17  C   UNL     1      -1.772   7.751  -0.406  0.00  0.00    +0.022 A 
ATOM     18  C   UNL     1      -1.638   9.132  -0.571  0.00  0.00    +0.031 A 
ATOM     19  C   UNL     1      -2.659   9.961  -0.195  0.00  0.00    +0.042 A 
ATOM     20  C   UNL     1      -3.825   9.439   0.350  0.00  0.00    +0.023 A 
ATOM     21  C   UNL     1      -3.975   8.080   0.520  0.00  0.00    +0.048 A 
ATOM     22  C   UNL     1      -2.952   7.217   0.145  0.00  0.00    +0.136 A 
ATOM     23  O   UNL     1      -2.814   5.878   0.182  0.00  0.00    -0.450 OA
ATOM     24 CL   UNL     1      -2.495  11.678  -0.399  0.00  0.00    -0.084 Cl
ENDBRANCH  12  15
ENDBRANCH   2  11
BRANCH   1  25
ATOM     25  C   UNL     1      -3.555   0.583  -0.391  0.00  0.00    +0.358 C 
ATOM     26  O   UNL     1      -4.227   1.596  -0.330  0.00  0.00    -0.243 OA
BRANCH  25  27
ATOM     27  O   UNL     1      -4.141  -0.601  -0.667  0.00  0.00    -0.460 OA
BRANCH  27  29
ATOM     28  C   UNL     1      -6.036  -2.013  -1.174  0.00  0.00    +0.048 C 
ATOM     29  C   UNL     1      -5.555  -0.591  -0.876  0.00  0.00    +0.229 C 
ENDBRANCH  27  29
ENDBRANCH  25  27
ENDBRANCH   1  25
BRANCH   6  30
ATOM     30  O   UNL     1       3.538  -0.646   0.631  0.00  0.00    -0.491 OA
ATOM     31  C   UNL     1       3.491  -2.072   0.542  0.00  0.00    +0.277 C 
ENDBRANCH   6  30
BRANCH   5  32
ATOM     32  O   UNL     1       3.498   2.100   0.780  0.00  0.00    -0.491 OA
ATOM     33  C   UNL     1       3.407   3.524   0.847  0.00  0.00    +0.277 C 
ENDBRANCH   5  32
TORSDOF 7
