REMARK  Name = ZINC04324903
REMARK  8 active torsions:
REMARK  status: ('A' for Active; 'I' for Inactive)
REMARK    1  A    between atoms: C_9  and  N_46
REMARK    2  A    between atoms: C_11  and  C_12
REMARK    3  A    between atoms: C_11  and  N_46
REMARK    4  A    between atoms: C_12  and  C_14
REMARK    5  A    between atoms: C_12  and  O_27
REMARK    6  A    between atoms: C_14  and  O_15
REMARK    7  A    between atoms: O_15  and  C_16
REMARK    8  A    between atoms: C_19  and  C_22
REMARK                            x       y       z     vdW  Elec       q    Type
REMARK                         _______ _______ _______ _____ _____    ______ ____
ROOT
ATOM      1  C   UNL     1      -1.433  -0.534   0.013  0.00  0.00    +0.135 C 
ENDROOT
BRANCH   1   2
ATOM      2  O   UNL     1      -2.102  -0.073   1.189  0.00  0.00    -0.390 OA
ATOM      3  H   UNL     1      -1.687  -0.357   2.014  0.00  0.00    +0.210 HD
ENDBRANCH   1   2
BRANCH   1   4
ATOM      4  C   UNL     1       0.002  -0.004   0.002  0.00  0.00    -0.047 C 
BRANCH   4   5
ATOM      5  N   UNL     1      -0.027   1.471   0.010  0.00  0.00    +0.385 N 
ATOM      6  H   UNL     1      -0.528   1.804  -0.822  0.00  0.00    -0.085 HD
ATOM      7  H   UNL     1      -0.512   1.795   0.855  0.00  0.00    -0.085 HD
BRANCH   5  16
ATOM      8  C   UNL     1       2.678   2.967   3.938  0.00  0.00    +0.000 A 
ATOM      9  C   UNL     1       2.764   1.638   3.567  0.00  0.00    +0.000 A 
ATOM     10  C   UNL     1       2.353   1.246   2.308  0.00  0.00    +0.002 A 
ATOM     11  C   UNL     1       1.854   2.180   1.416  0.00  0.00    -0.058 A 
ATOM     12  C   UNL     1       1.768   3.509   1.787  0.00  0.00    -0.046 A 
ATOM     13  C   UNL     1       2.181   3.900   3.050  0.00  0.00    +0.004 A 
ATOM     14  C   UNL     1       1.196   4.322   0.646  0.00  0.00    +0.034 C 
ATOM     15  C   UNL     1       1.351   3.430  -0.604  0.00  0.00    -0.007 C 
ATOM     16  C   UNL     1       1.346   2.010   0.000  0.00  0.00    -0.040 C 
ENDBRANCH   5  16
ENDBRANCH   4   5
ENDBRANCH   1   4
BRANCH   1  17
ATOM     17  C   UNL     1      -1.413  -2.063   0.004  0.00  0.00    +0.258 C 
BRANCH  17  18
ATOM     18  O   UNL     1      -2.749  -2.557  -0.103  0.00  0.00    -0.489 OA
BRANCH  18  19
ATOM     19  C   UNL     1      -2.908  -3.907  -0.124  0.00  0.00    +0.121 A 
ATOM     20  C   UNL     1      -1.798  -4.737  -0.049  0.00  0.00    +0.046 A 
ATOM     21  C   UNL     1      -1.957  -6.107  -0.065  0.00  0.00    +0.013 A 
ATOM     22  C   UNL     1      -3.233  -6.658  -0.167  0.00  0.00    +0.003 A 
ATOM     23  C   UNL     1      -4.345  -5.822  -0.248  0.00  0.00    +0.013 A 
ATOM     24  C   UNL     1      -4.181  -4.453  -0.227  0.00  0.00    +0.046 A 
BRANCH  22  25
ATOM     25  C   UNL     1      -3.407  -8.132  -0.190  0.00  0.00    +0.102 A 
ATOM     26  C   UNL     1      -2.358  -9.013  -0.114  0.00  0.00    +0.097 A 
ATOM     27  S   UNL     1      -3.191 -10.529  -0.188  0.00  0.00    +0.029 S 
ATOM     28  N   UNL     1      -4.674 -10.001  -0.300  0.00  0.00    -0.110 NA
ATOM     29  N   UNL     1      -4.589  -8.720  -0.280  0.00  0.00    -0.141 NA
ENDBRANCH  22  25
ENDBRANCH  18  19
ENDBRANCH  17  18
ENDBRANCH   1  17
TORSDOF 8
