REMARK  Name = ZINC00984556
REMARK  4 active torsions:
REMARK  status: ('A' for Active; 'I' for Inactive)
REMARK    1  A    between atoms: C_5  and  N_7
REMARK    2  A    between atoms: N_7  and  C_8
REMARK    3  A    between atoms: N_12  and  C_24
REMARK    4  A    between atoms: N_15  and  C_18
REMARK                            x       y       z     vdW  Elec       q    Type
REMARK                         _______ _______ _______ _____ _____    ______ ____
ROOT
ATOM      1  C   UNL     1       3.549   2.612  -0.018  0.00  0.00    +0.090 C 
ATOM      2  C   UNL     1       4.756   1.943   0.071  0.00  0.00    +0.113 C 
ATOM      3  C   UNL     1       4.821   0.471   0.073  0.00  0.00    +0.261 C 
ATOM      4  O   UNL     1       3.808  -0.199  -0.005  0.00  0.00    -0.269 OA
ATOM      5  N   UNL     1       6.033  -0.114   0.158  0.00  0.00    -0.218 N 
ATOM      6  C   UNL     1       7.156   0.612   0.249  0.00  0.00    +0.318 C 
ATOM      7  O   UNL     1       8.217   0.024   0.328  0.00  0.00    -0.252 OA
ATOM      8  N   UNL     1       7.171   1.952   0.259  0.00  0.00    -0.218 N 
ATOM      9  C   UNL     1       6.033   2.671   0.176  0.00  0.00    +0.261 C 
ATOM     10  O   UNL     1       6.060   3.887   0.186  0.00  0.00    -0.269 OA
ENDROOT
BRANCH   8  11
ATOM     11  C   UNL     1       8.454   2.653   0.364  0.00  0.00    +0.086 C 
ATOM     12  C   UNL     1       8.459   3.522   1.623  0.00  0.00    +0.023 C 
ATOM     13  C   UNL     1       9.799   4.253   1.733  0.00  0.00    +0.002 C 
ATOM     14  C   UNL     1       9.998   5.139   0.501  0.00  0.00    +0.000 C 
ATOM     15  C   UNL     1       9.992   4.271  -0.758  0.00  0.00    +0.002 C 
ATOM     16  C   UNL     1       8.653   3.539  -0.867  0.00  0.00    +0.023 C 
ENDBRANCH   8  11
BRANCH   5  17
ATOM     17  C   UNL     1       6.125  -1.576   0.156  0.00  0.00    +0.086 C 
ATOM     18  C   UNL     1       5.536  -2.122  -1.147  0.00  0.00    +0.023 C 
ATOM     19  C   UNL     1       5.631  -3.649  -1.149  0.00  0.00    +0.002 C 
ATOM     20  C   UNL     1       4.848  -4.211   0.040  0.00  0.00    +0.000 C 
ATOM     21  C   UNL     1       5.438  -3.665   1.342  0.00  0.00    +0.002 C 
ATOM     22  C   UNL     1       5.342  -2.138   1.344  0.00  0.00    +0.023 C 
ENDBRANCH   5  17
BRANCH   1  23
ATOM     23  N   UNL     1       2.391   1.921   0.013  0.00  0.00    -0.319 N 
ATOM     24  H   UNL     1       2.405   0.951   0.019  0.00  0.00    +0.152 HD
BRANCH  23  29
ATOM     25  C   UNL     1      -0.059   4.662   0.048  0.00  0.00    +0.002 A 
ATOM     26  C   UNL     1      -1.246   3.952   0.079  0.00  0.00    +0.001 A 
ATOM     27  C   UNL     1      -1.228   2.570   0.084  0.00  0.00    +0.017 A 
ATOM     28  C   UNL     1      -0.024   1.892   0.068  0.00  0.00    +0.039 A 
ATOM     29  C   UNL     1       1.170   2.603   0.036  0.00  0.00    +0.045 A 
ATOM     30  C   UNL     1       1.149   3.991   0.026  0.00  0.00    +0.024 A 
ATOM     31 BR   UNL     1      -0.001   0.002   0.080  0.00  0.00    -0.048 Br
ENDBRANCH  23  29
ENDBRANCH   1  23
TORSDOF 4
