REMARK  Name = ZINC10402733
REMARK  4 active torsions:
REMARK  status: ('A' for Active; 'I' for Inactive)
REMARK    1  A    between atoms: C_1  and  C_2
REMARK    2  A    between atoms: C_2  and  C_4
REMARK    3  A    between atoms: C_2  and  N_11
REMARK    4  A    between atoms: N_14  and  N_15
REMARK                            x       y       z     vdW  Elec       q    Type
REMARK                         _______ _______ _______ _____ _____    ______ ____
ROOT
ATOM      1  N   UNL     1       3.517   3.107   0.568  0.00  0.00    -0.292 N 
ATOM      2  C   UNL     1       4.548   3.686   1.216  0.00  0.00    +0.318 C 
ATOM      3  O   UNL     1       4.593   4.896   1.328  0.00  0.00    -0.251 OA
ATOM      4  N   UNL     1       5.528   2.923   1.740  0.00  0.00    -0.205 N 
ATOM      5  H   UNL     1       3.481   2.142   0.479  0.00  0.00    +0.151 HD
ATOM      6  H   UNL     1       5.492   1.958   1.650  0.00  0.00    +0.177 HD
ENDROOT
BRANCH   4   7
ATOM      7  N   UNL     1       6.599   3.525   2.413  0.00  0.00    -0.245 N 
ATOM      8  C   UNL     1       6.782   4.859   2.608  0.00  0.00    +0.219 A 
ATOM      9  N   UNL     1       7.880   5.067   3.275  0.00  0.00    -0.234 NA
ATOM     10  C   UNL     1       8.481   3.880   3.546  0.00  0.00    +0.091 A 
ATOM     11  C   UNL     1       7.668   2.874   2.997  0.00  0.00    +0.088 A 
ATOM     12  C   UNL     1       8.038   1.542   3.121  0.00  0.00    +0.030 A 
ATOM     13  C   UNL     1       9.203   1.216   3.783  0.00  0.00    +0.002 A 
ATOM     14  C   UNL     1      10.005   2.209   4.325  0.00  0.00    +0.002 A 
ATOM     15  C   UNL     1       9.656   3.526   4.213  0.00  0.00    +0.030 A 
ENDBRANCH   4   7
BRANCH   1  17
ATOM     16  C   UNL     1       2.843   4.370  -1.415  0.00  0.00    +0.033 C 
ATOM     17  C   UNL     1       2.452   3.936  -0.001  0.00  0.00    +0.103 C 
BRANCH  17  18
ATOM     18  C   UNL     1       1.172   3.142  -0.056  0.00  0.00    -0.013 A 
ATOM     19  C   UNL     1       1.218   1.764  -0.158  0.00  0.00    +0.006 A 
ATOM     20  C   UNL     1       0.045   1.035  -0.209  0.00  0.00    +0.000 A 
ATOM     21  C   UNL     1      -1.175   1.684  -0.163  0.00  0.00    +0.001 A 
ATOM     22  C   UNL     1      -1.222   3.061  -0.056  0.00  0.00    +0.015 A 
ATOM     23  C   UNL     1      -0.048   3.791  -0.005  0.00  0.00    +0.023 A 
ATOM     24 BR   UNL     1      -0.111   5.675   0.136  0.00  0.00    -0.050 Br
ENDBRANCH  17  18
ENDBRANCH   1  17
TORSDOF 3
