REMARK  Name = ZINC23749125
REMARK  9 active torsions:
REMARK  status: ('A' for Active; 'I' for Inactive)
REMARK    1  A    between atoms: C_1  and  C_2
REMARK    2  A    between atoms: C_2  and  C_3
REMARK    3  A    between atoms: C_3  and  C_4
REMARK    4  A    between atoms: C_4  and  N_5
REMARK    5  A    between atoms: C_6  and  C_8
REMARK    6  A    between atoms: C_8  and  N_9
REMARK    7  A    between atoms: C_15  and  C_17
REMARK    8  A    between atoms: C_17  and  N_18
REMARK    9  A    between atoms: C_19  and  C_21
REMARK                            x       y       z     vdW  Elec       q    Type
REMARK                         _______ _______ _______ _____ _____    ______ ____
ROOT
ATOM      1  N   UNL     1     -10.684  -0.496   3.465  0.00  0.00    +0.387 N 
ATOM      2  C   UNL     1      -9.851   0.230   4.433  0.00  0.00    -0.059 C 
ATOM      3  C   UNL     1      -9.213   1.442   3.747  0.00  0.00    +0.089 C 
ATOM      4  N   UNL     1      -8.506   0.978   2.543  0.00  0.00    -0.304 N 
ATOM      5  C   UNL     1      -9.239   0.134   1.587  0.00  0.00    +0.089 C 
ATOM      6  C   UNL     1      -9.874  -1.031   2.362  0.00  0.00    -0.059 C 
ATOM      7  C   UNL     1      -7.222   1.323   2.320  0.00  0.00    +0.233 C 
ATOM      8  O   UNL     1      -6.635   2.023   3.116  0.00  0.00    -0.274 OA
ATOM      9  H   UNL     1     -11.400   0.220   3.037  0.00  0.00    -0.081 HD
ENDROOT
BRANCH   1  10
ATOM     10  C   UNL     1     -11.448  -1.564   4.123  0.00  0.00    +0.019 C 
BRANCH  10  12
ATOM     11  N   UNL     1     -13.285  -3.117   3.548  0.00  0.00    -0.317 N 
ATOM     12  C   UNL     1     -12.465  -2.121   3.160  0.00  0.00    +0.196 C 
ATOM     13  O   UNL     1     -12.544  -1.673   2.036  0.00  0.00    -0.278 OA
ATOM     14  H   UNL     1     -13.213  -3.524   4.567  0.00  0.00    +0.149 HD
BRANCH  11  15
ATOM     15  C   UNL     1     -14.273  -3.659   2.611  0.00  0.00    +0.104 C 
BRANCH  15  16
ATOM     16  C   UNL     1     -15.069  -4.771   3.297  0.00  0.00    +0.018 C 
BRANCH  16  18
ATOM     17  C   UNL     1     -16.898  -6.449   3.005  0.00  0.00    +0.004 C 
ATOM     18  C   UNL     1     -16.101  -5.337   2.319  0.00  0.00    -0.002 C 
ENDBRANCH  16  18
ENDBRANCH  15  16
ENDBRANCH  11  15
ENDBRANCH  10  12
ENDBRANCH   1  10
BRANCH   7  19
ATOM     19  C   UNL     1      -6.517   0.837   1.080  0.00  0.00    +0.200 C 
BRANCH  19  20
ATOM     20  N   UNL     1      -5.143   1.344   1.069  0.00  0.00    -0.306 N 
ATOM     21  C   UNL     1      -4.318   1.035   0.049  0.00  0.00    +0.220 C 
ATOM     22  O   UNL     1      -4.714   0.337  -0.861  0.00  0.00    -0.275 OA
ATOM     23  H   UNL     1      -4.784   1.976   1.894  0.00  0.00    +0.149 HD
BRANCH  21  24
ATOM     24  C   UNL     1      -2.904   1.556   0.038  0.00  0.00    +0.048 C 
ATOM     25  C   UNL     1      -2.188   1.063  -1.221  0.00  0.00    +0.019 C 
ATOM     26  C   UNL     1      -0.753   1.593  -1.232  0.00  0.00    -0.009 C 
ATOM     27  C   UNL     1      -0.013   1.086   0.008  0.00  0.00    +0.007 C 
ATOM     28  C   UNL     1      -0.729   1.579   1.267  0.00  0.00    -0.009 C 
ATOM     29  C   UNL     1      -2.164   1.050   1.278  0.00  0.00    +0.019 C 
ATOM     30  C   UNL     1      -0.750   3.109   1.275  0.00  0.00    +0.007 C 
ATOM     31  C   UNL     1      -1.490   3.616   0.036  0.00  0.00    -0.009 C 
ATOM     32  C   UNL     1      -0.773   3.123  -1.223  0.00  0.00    +0.007 C 
ATOM     33  C   UNL     1      -2.925   3.086   0.047  0.00  0.00    +0.019 C 
ENDBRANCH  21  24
ENDBRANCH  19  20
ENDBRANCH   7  19
TORSDOF 8
