REMARK  Name = ZINC52813256
REMARK  6 active torsions:
REMARK  status: ('A' for Active; 'I' for Inactive)
REMARK    1  A    between atoms: C_1  and  C_2
REMARK    2  A    between atoms: C_4  and  N_17
REMARK    3  A    between atoms: C_7  and  N_8
REMARK    4  A    between atoms: N_8  and  C_9
REMARK    5  A    between atoms: N_8  and  C_10
REMARK    6  A    between atoms: C_10  and  C_11
REMARK                            x       y       z     vdW  Elec       q    Type
REMARK                         _______ _______ _______ _____ _____    ______ ____
ROOT
ATOM      1  C   UNL     1      -2.481  -0.808   1.337  0.00  0.00    +0.047 C 
ATOM      2  C   UNL     1      -1.180  -1.115   0.639  0.00  0.00    -0.011 A 
ATOM      3  C   UNL     1      -1.167  -1.882  -0.511  0.00  0.00    +0.030 A 
ATOM      4  C   UNL     1       0.059  -2.140  -1.123  0.00  0.00    +0.041 A 
ATOM      5  C   UNL     1       1.217  -1.624  -0.561  0.00  0.00    +0.106 A 
ATOM      6  N   UNL     1       1.167  -0.896   0.539  0.00  0.00    -0.348 N 
ATOM      7  C   UNL     1       0.020  -0.625   1.142  0.00  0.00    +0.102 A 
ATOM      8  H   UNL     1       1.991  -0.547   0.912  0.00  0.00    +0.167 HD
ENDROOT
BRANCH   4   9
ATOM      9  N   UNL     1       0.120  -2.913  -2.289  0.00  0.00    -0.357 N 
ATOM     10  H   UNL     1      -0.693  -3.271  -2.677  0.00  0.00    +0.142 HD
ATOM     11  H   UNL     1       0.976  -3.089  -2.710  0.00  0.00    +0.142 HD
ENDBRANCH   4   9
BRANCH   7  12
ATOM     12  N   UNL     1       0.017   0.153   2.297  0.00  0.00    -0.315 N 
ATOM     13  C   UNL     1      -0.170   1.603   2.203  0.00  0.00    +0.131 C 
BRANCH  12  14
ATOM     14  C   UNL     1       0.201  -0.478   3.607  0.00  0.00    +0.148 C 
BRANCH  14  15
ATOM     15  C   UNL     1       1.670  -0.520   3.942  0.00  0.00    +0.008 A 
ATOM     16  C   UNL     1       2.421   0.395   4.602  0.00  0.00    +0.028 A 
ATOM     17  C   UNL     1       3.766   0.142   4.798  0.00  0.00    +0.025 A 
ATOM     18  C   UNL     1       4.294  -1.014   4.324  0.00  0.00    +0.060 A 
ATOM     19  S   UNL     1       2.869  -1.792   3.580  0.00  0.00    -0.099 S 
ATOM     20 BR   UNL     1       4.854   1.389   5.712  0.00  0.00    -0.050 Br
ENDBRANCH  14  15
ENDBRANCH  12  14
ENDBRANCH   7  12
TORSDOF 4
