REMARK  Name = ZINC24144131
REMARK  15 active torsions:
REMARK  status: ('A' for Active; 'I' for Inactive)
REMARK    1  A    between atoms: C_1  and  C_2
REMARK    2  A    between atoms: C_2  and  C_3
REMARK    3  A    between atoms: C_3  and  C_5
REMARK    4  A    between atoms: C_3  and  N_31
REMARK    5  A    between atoms: C_8  and  S_17
REMARK    6  A    between atoms: N_9  and  C_10
REMARK    7  A    between atoms: C_10  and  C_11
REMARK    8  A    between atoms: S_17  and  C_18
REMARK    9  A    between atoms: C_18  and  C_19
REMARK   10  A    between atoms: C_19  and  O_20
REMARK   11  A    between atoms: O_20  and  C_21
REMARK   12  A    between atoms: C_24  and  S_27
REMARK   13  A    between atoms: S_27  and  N_30
REMARK   14  A    between atoms: N_31  and  C_32
REMARK   15  A    between atoms: N_31  and  C_33
REMARK                            x       y       z     vdW  Elec       q    Type
REMARK                         _______ _______ _______ _____ _____    ______ ____
ROOT
ATOM      1  C   UNL     1      -1.778   2.024   6.088  0.00  0.00    +0.121 A 
ATOM      2  N   UNL     1      -2.337   2.509   5.016  0.00  0.00    -0.135 NA
ATOM      3  N   UNL     1      -1.865   1.927   3.971  0.00  0.00    -0.123 NA
ATOM      4  C   UNL     1      -0.978   1.027   4.324  0.00  0.00    +0.192 A 
ATOM      5  N   UNL     1      -0.892   1.062   5.687  0.00  0.00    -0.303 N 
ENDROOT
BRANCH   1   6
ATOM      6  C   UNL     1      -2.057   2.445   7.508  0.00  0.00    +0.000 C 
BRANCH   6   7
ATOM      7  N   UNL     1      -2.060   3.911   7.593  0.00  0.00    +0.383 N 
ATOM      8  C   UNL     1      -0.765   4.465   7.178  0.00  0.00    -0.096 C 
ATOM      9  C   UNL     1      -3.156   4.482   6.797  0.00  0.00    -0.096 C 
ATOM     10  H   UNL     1      -2.226   4.189   8.644  0.00  0.00    -0.082 HD
ENDBRANCH   6   7
BRANCH   6  12
ATOM     11  C   UNL     1      -3.663   2.252   9.412  0.00  0.00    +0.002 C 
ATOM     12  C   UNL     1      -3.422   1.906   7.941  0.00  0.00    -0.011 C 
ENDBRANCH   6  12
ENDBRANCH   1   6
BRANCH   5  13
ATOM     13  C   UNL     1      -0.031   0.241   6.541  0.00  0.00    +0.160 C 
BRANCH  13  14
ATOM     14  C   UNL     1       1.288   0.941   6.744  0.00  0.00    -0.028 A 
ATOM     15  C   UNL     1       2.335   0.711   5.871  0.00  0.00    +0.005 A 
ATOM     16  C   UNL     1       3.543   1.356   6.055  0.00  0.00    +0.000 A 
ATOM     17  C   UNL     1       3.708   2.224   7.118  0.00  0.00    +0.000 A 
ATOM     18  C   UNL     1       2.663   2.451   7.994  0.00  0.00    +0.000 A 
ATOM     19  C   UNL     1       1.453   1.809   7.807  0.00  0.00    +0.005 A 
ENDBRANCH  13  14
ENDBRANCH   5  13
BRANCH   4  20
ATOM     20  S   UNL     1      -0.065  -0.024   3.245  0.00  0.00    -0.083 S 
BRANCH  20  21
ATOM     21  C   UNL     1      -0.724   0.516   1.648  0.00  0.00    +0.118 C 
BRANCH  21  22
ATOM     22  C   UNL     1      -0.057  -0.281   0.525  0.00  0.00    +0.240 C 
BRANCH  22  23
ATOM     23  O   UNL     1      -0.578   0.146  -0.736  0.00  0.00    -0.491 OA
BRANCH  23  24
ATOM     24  C   UNL     1      -0.087  -0.467  -1.845  0.00  0.00    +0.121 A 
ATOM     25  C   UNL     1       0.879  -1.455  -1.723  0.00  0.00    +0.047 A 
ATOM     26  C   UNL     1       1.372  -2.081  -2.852  0.00  0.00    +0.032 A 
ATOM     27  C   UNL     1       0.911  -1.715  -4.103  0.00  0.00    +0.105 A 
ATOM     28  C   UNL     1      -0.048  -0.727  -4.228  0.00  0.00    +0.032 A 
ATOM     29  C   UNL     1      -0.548  -0.102  -3.102  0.00  0.00    +0.047 A 
BRANCH  27  30
ATOM     30  S   UNL     1       1.547  -2.510  -5.541  0.00  0.00    +0.056 S 
ATOM     31  O   UNL     1       2.035  -3.777  -5.123  0.00  0.00    -0.153 OA
ATOM     32  O   UNL     1       0.559  -2.370  -6.553  0.00  0.00    -0.153 OA
BRANCH  30  33
ATOM     33  N   UNL     1       2.863  -1.638  -6.041  0.00  0.00    -0.204 NA
ATOM     34  H   UNL     1       3.291  -2.103  -6.941  0.00  0.00    +0.144 HD
ATOM     35  H   UNL     1       3.619  -1.623  -5.242  0.00  0.00    +0.144 HD
ENDBRANCH  30  33
ENDBRANCH  27  30
ENDBRANCH  23  24
ENDBRANCH  22  23
ENDBRANCH  21  22
ENDBRANCH  20  21
ENDBRANCH   4  20
TORSDOF 12
