REMARK  Name = ZINC09871952
REMARK  7 active torsions:
REMARK  status: ('A' for Active; 'I' for Inactive)
REMARK    1  A    between atoms: C_1  and  C_2
REMARK    2  A    between atoms: N_16  and  C_19
REMARK    3  A    between atoms: C_19  and  C_20
REMARK    4  A    between atoms: C_25  and  O_26
REMARK    5  A    between atoms: O_26  and  C_27
REMARK    6  A    between atoms: C_27  and  C_28
REMARK    7  A    between atoms: C_31  and  C_33
REMARK                            x       y       z     vdW  Elec       q    Type
REMARK                         _______ _______ _______ _____ _____    ______ ____
ROOT
ATOM      1  C   UNL     1      -8.669  -8.032   0.736  0.00  0.00    +0.109 C 
ATOM      2  C   UNL     1      -7.666  -7.175   0.008  0.00  0.00    +0.216 C 
ATOM      3  O   UNL     1      -7.128  -7.591  -0.996  0.00  0.00    -0.276 OA
ATOM      4  N   UNL     1      -7.366  -5.946   0.473  0.00  0.00    -0.264 N 
ATOM      5  C   UNL     1      -6.441  -5.157  -0.198  0.00  0.00    +0.181 C 
ATOM      6  N   UNL     1      -5.776  -5.443  -1.280  0.00  0.00    -0.152 NA
ATOM      7  N   UNL     1      -4.875  -4.570  -1.862  0.00  0.00    -0.161 N 
ATOM      8  C   UNL     1      -4.723  -3.292  -1.167  0.00  0.00    +0.215 C 
ATOM      9  S   UNL     1      -5.887  -3.510   0.223  0.00  0.00    -0.047 S 
ATOM     10  C   UNL     1      -3.332  -3.035  -0.681  0.00  0.00    +0.020 A 
ATOM     11  C   UNL     1      -2.451  -3.735   0.112  0.00  0.00    +0.029 A 
ATOM     12  C   UNL     1      -1.198  -3.212   0.387  0.00  0.00    +0.041 A 
ATOM     13  C   UNL     1      -0.834  -1.985  -0.140  0.00  0.00    +0.022 A 
ATOM     14  C   UNL     1      -1.713  -1.282  -0.936  0.00  0.00    +0.025 A 
ATOM     15  C   UNL     1      -2.972  -1.802  -1.222  0.00  0.00    +0.043 A 
ATOM     16  N   UNL     1      -4.022  -1.283  -1.986  0.00  0.00    -0.264 N 
ATOM     17  C   UNL     1      -5.091  -2.108  -2.006  0.00  0.00    +0.261 C 
ATOM     18  O   UNL     1      -6.139  -1.925  -2.588  0.00  0.00    -0.271 OA
ATOM     19 CL   UNL     1      -0.088  -4.095   1.387  0.00  0.00    -0.084 Cl
ATOM     20  C   UNL     1      -4.191  -4.872  -2.982  0.00  0.00    +0.234 C 
ATOM     21  O   UNL     1      -3.412  -4.070  -3.452  0.00  0.00    -0.274 OA
ATOM     22  C   UNL     1      -4.394  -6.207  -3.650  0.00  0.00    +0.111 C 
ATOM     23  H   UNL     1      -7.796  -5.613   1.276  0.00  0.00    +0.157 HD
ENDROOT
BRANCH  16  24
ATOM     24  C   UNL     1      -3.967   0.002  -2.687  0.00  0.00    +0.152 C 
BRANCH  24  25
ATOM     25  C   UNL     1      -4.338   1.110  -1.736  0.00  0.00    +0.012 A 
ATOM     26  C   UNL     1      -3.351   1.883  -1.157  0.00  0.00    +0.009 A 
ATOM     27  C   UNL     1      -3.691   2.900  -0.284  0.00  0.00    +0.001 A 
ATOM     28  C   UNL     1      -5.019   3.146   0.011  0.00  0.00    +0.004 A 
ATOM     29  C   UNL     1      -6.011   2.379  -0.569  0.00  0.00    +0.046 A 
ATOM     30  C   UNL     1      -5.672   1.354  -1.441  0.00  0.00    +0.126 A 
BRANCH  30  31
ATOM     31  O   UNL     1      -6.645   0.594  -2.009  0.00  0.00    -0.488 OA
BRANCH  31  32
ATOM     32  C   UNL     1      -7.998   0.978  -1.757  0.00  0.00    +0.256 C 
BRANCH  32  33
ATOM     33  C   UNL     1      -8.930   0.006  -2.433  0.00  0.00    +0.006 C 
ATOM     34  C   UNL     1      -9.973  -0.457  -1.789  0.00  0.00    +0.007 C 
ENDBRANCH  32  33
ENDBRANCH  31  32
ENDBRANCH  30  31
ENDBRANCH  24  25
ENDBRANCH  16  24
TORSDOF 5
