REMARK  Name = ZINC63514630
REMARK  13 active torsions:
REMARK  status: ('A' for Active; 'I' for Inactive)
REMARK    1  A    between atoms: C_1  and  C_2
REMARK    2  A    between atoms: C_2  and  C_3
REMARK    3  A    between atoms: C_3  and  C_4
REMARK    4  A    between atoms: C_4  and  C_5
REMARK    5  A    between atoms: C_5  and  C_7
REMARK    6  A    between atoms: C_10  and  C_15
REMARK    7  A    between atoms: N_21  and  C_22
REMARK    8  A    between atoms: C_22  and  C_23
REMARK    9  A    between atoms: C_23  and  C_24
REMARK   10  A    between atoms: C_27  and  O_35
REMARK   11  A    between atoms: C_32  and  C_34
REMARK   12  A    between atoms: O_35  and  C_36
REMARK   13  A    between atoms: C_36  and  C_37
REMARK                            x       y       z     vdW  Elec       q    Type
REMARK                         _______ _______ _______ _____ _____    ______ ____
ROOT
ATOM      1  C   UNL     1       1.860  -3.567  -6.511  0.00  0.00    +0.146 C 
ENDROOT
BRANCH   1   9
ATOM      2  C   UNL     1       1.565  -4.029  -2.763  0.00  0.00    +0.165 C 
ATOM      3  C   UNL     1       1.682  -4.288  -4.252  0.00  0.00    +0.031 C 
ATOM      4  C   UNL     1       1.950  -5.704  -4.710  0.00  0.00    +0.060 C 
ATOM      5  C   UNL     1       3.209  -6.225  -4.010  0.00  0.00    +0.032 C 
ATOM      6  C   UNL     1       3.015  -6.166  -2.493  0.00  0.00    +0.084 C 
ATOM      7  C   UNL     1       2.721  -4.739  -2.088  0.00  0.00    +0.150 C 
ATOM      8  O   UNL     1       3.388  -4.181  -1.250  0.00  0.00    -0.296 OA
ATOM      9  N   UNL     1       1.556  -3.336  -5.097  0.00  0.00    -0.291 NA
BRANCH   5  10
ATOM     10  C   UNL     1       3.462  -7.650  -4.428  0.00  0.00    -0.044 A 
ATOM     11  C   UNL     1       2.510  -8.622  -4.182  0.00  0.00    +0.004 A 
ATOM     12  C   UNL     1       2.742  -9.930  -4.565  0.00  0.00    +0.000 A 
ATOM     13  C   UNL     1       3.926 -10.265  -5.196  0.00  0.00    +0.000 A 
ATOM     14  C   UNL     1       4.877  -9.293  -5.443  0.00  0.00    +0.000 A 
ATOM     15  C   UNL     1       4.643  -7.985  -5.064  0.00  0.00    +0.004 A 
ENDBRANCH   5  10
BRANCH   2  16
ATOM     16  C   UNL     1       1.645  -2.549  -2.493  0.00  0.00    +0.149 C 
ATOM     17  O   UNL     1       2.180  -1.817  -3.292  0.00  0.00    -0.296 OA
BRANCH  16  18
ATOM     18  C   UNL     1       1.058  -1.981  -1.227  0.00  0.00    +0.075 C 
BRANCH  18  19
ATOM     19  C   UNL     1       1.272  -0.466  -1.200  0.00  0.00    +0.007 C 
BRANCH  19  21
ATOM     20  C   UNL     1       0.890   1.625   0.114  0.00  0.00    +0.004 C 
ATOM     21  C   UNL     1       0.676   0.110   0.086  0.00  0.00    -0.003 C 
ENDBRANCH  19  21
ENDBRANCH  18  19
ENDBRANCH  16  18
ENDBRANCH   2  16
ENDBRANCH   1   9
BRANCH   1  22
ATOM     22  C   UNL     1       0.575  -3.456  -7.334  0.00  0.00    +0.056 C 
BRANCH  22  23
ATOM     23  C   UNL     1       0.887  -3.694  -8.789  0.00  0.00    -0.037 C 
ATOM     24  C   UNL     1       2.097  -3.971  -9.326  0.00  0.00    +0.003 A 
ATOM     25  C   UNL     1       3.433  -4.129  -8.741  0.00  0.00    +0.055 A 
ATOM     26  C   UNL     1       4.485  -4.412  -9.546  0.00  0.00    +0.122 A 
ATOM     27  C   UNL     1       4.346  -4.564 -10.937  0.00  0.00    +0.048 A 
ATOM     28  C   UNL     1       3.158  -4.437 -11.567  0.00  0.00    +0.029 A 
ATOM     29  C   UNL     1       1.952  -4.131 -10.791  0.00  0.00    +0.043 A 
ATOM     30  N   UNL     1       0.703  -3.959 -11.146  0.00  0.00    -0.378 N 
ATOM     31  C   UNL     1      -0.090  -3.677  -9.943  0.00  0.00    +0.103 C 
ATOM     32  C   UNL     1      -1.158  -4.755  -9.746  0.00  0.00    +0.035 C 
ATOM     33  H   UNL     1       0.358  -4.013 -12.051  0.00  0.00    +0.160 HD
BRANCH  26  34
ATOM     34  O   UNL     1       5.717  -4.555  -8.991  0.00  0.00    -0.487 OA
BRANCH  34  35
ATOM     35  C   UNL     1       6.798  -4.854  -9.877  0.00  0.00    +0.264 C 
BRANCH  35  36
ATOM     36  C   UNL     1       8.075  -4.975  -9.087  0.00  0.00    -0.010 A 
ATOM     37  C   UNL     1       8.861  -3.859  -8.869  0.00  0.00    +0.007 A 
ATOM     38  C   UNL     1      10.033  -3.970  -8.145  0.00  0.00    +0.000 A 
ATOM     39  C   UNL     1      10.420  -5.197  -7.639  0.00  0.00    +0.000 A 
ATOM     40  C   UNL     1       9.634  -6.313  -7.857  0.00  0.00    +0.000 A 
ATOM     41  C   UNL     1       8.460  -6.201  -8.577  0.00  0.00    +0.007 A 
ENDBRANCH  35  36
ENDBRANCH  34  35
ENDBRANCH  26  34
ENDBRANCH  22  23
ENDBRANCH   1  22
TORSDOF 11
