REMARK  Name = ZINC00878656
REMARK  11 active torsions:
REMARK  status: ('A' for Active; 'I' for Inactive)
REMARK    1  A    between atoms: C_1  and  C_2
REMARK    2  A    between atoms: C_5  and  C_28
REMARK    3  A    between atoms: C_9  and  C_14
REMARK    4  A    between atoms: C_14  and  N_15
REMARK    5  A    between atoms: N_15  and  C_16
REMARK    6  A    between atoms: N_15  and  C_21
REMARK    7  A    between atoms: C_21  and  N_23
REMARK    8  A    between atoms: N_23  and  C_24
REMARK    9  A    between atoms: C_24  and  C_25
REMARK   10  A    between atoms: C_25  and  C_26
REMARK   11  A    between atoms: C_25  and  C_27
REMARK                            x       y       z     vdW  Elec       q    Type
REMARK                         _______ _______ _______ _____ _____    ______ ____
ROOT
ATOM      1  C   UNL     1      -3.516   1.755   0.059  0.00  0.00    +0.147 C 
ENDROOT
BRANCH   1  10
ATOM      2  C   UNL     1      -6.745   0.063  -3.660  0.00  0.00    +0.044 C 
ATOM      3  C   UNL     1      -5.906   1.161  -4.261  0.00  0.00    -0.041 A 
ATOM      4  C   UNL     1      -6.087   1.526  -5.565  0.00  0.00    +0.004 A 
ATOM      5  C   UNL     1      -5.319   2.537  -6.128  0.00  0.00    +0.005 A 
ATOM      6  C   UNL     1      -4.360   3.190  -5.383  0.00  0.00    -0.026 A 
ATOM      7  C   UNL     1      -4.159   2.835  -4.054  0.00  0.00    +0.052 A 
ATOM      8  C   UNL     1      -4.939   1.810  -3.486  0.00  0.00    +0.002 A 
ATOM      9  C   UNL     1      -4.715   1.440  -2.087  0.00  0.00    +0.020 A 
ATOM     10  C   UNL     1      -3.768   2.108  -1.384  0.00  0.00    +0.035 A 
ATOM     11  C   UNL     1      -3.012   3.128  -2.001  0.00  0.00    +0.254 A 
ATOM     12  O   UNL     1      -2.162   3.712  -1.352  0.00  0.00    -0.268 OA
ATOM     13  N   UNL     1      -3.207   3.472  -3.286  0.00  0.00    -0.322 N 
ATOM     14  H   UNL     1      -2.654   4.199  -3.691  0.00  0.00    +0.169 HD
ATOM     15  C   UNL     1      -3.534   4.285  -6.008  0.00  0.00    +0.046 C 
ENDBRANCH   1  10
BRANCH   1  16
ATOM     16  N   UNL     1      -2.414   0.792   0.141  0.00  0.00    -0.305 N 
BRANCH  16  17
ATOM     17  C   UNL     1      -2.678  -0.639  -0.028  0.00  0.00    +0.075 C 
ATOM     18  C   UNL     1      -2.139  -1.423   1.187  0.00  0.00    +0.022 C 
ATOM     19  C   UNL     1      -1.590  -2.736   0.577  0.00  0.00    +0.002 C 
ATOM     20  C   UNL     1      -0.960  -2.258  -0.754  0.00  0.00    +0.002 C 
ATOM     21  C   UNL     1      -1.928  -1.170  -1.262  0.00  0.00    +0.022 C 
ENDBRANCH  16  17
BRANCH  16  22
ATOM     22  C   UNL     1      -1.159   1.224   0.373  0.00  0.00    +0.133 C 
ATOM     23  S   UNL     1       0.149   0.119   0.324  0.00  0.00    -0.019 S 
BRANCH  22  24
ATOM     24  N   UNL     1      -0.932   2.525   0.644  0.00  0.00    -0.326 N 
ATOM     25  H   UNL     1      -1.678   3.136   0.745  0.00  0.00    +0.148 HD
BRANCH  24  26
ATOM     26  C   UNL     1       0.441   3.014   0.791  0.00  0.00    +0.106 C 
BRANCH  26  27
ATOM     27  C   UNL     1       0.424   4.532   0.982  0.00  0.00    -0.000 C 
ATOM     28  C   UNL     1      -0.332   4.876   2.267  0.00  0.00    +0.009 C 
ATOM     29  C   UNL     1       1.860   5.050   1.080  0.00  0.00    +0.009 C 
ENDBRANCH  26  27
ENDBRANCH  24  26
ENDBRANCH  22  24
ENDBRANCH  16  22
ENDBRANCH   1  16
TORSDOF 7
