REMARK  Name = ZINC35404579
REMARK  13 active torsions:
REMARK  status: ('A' for Active; 'I' for Inactive)
REMARK    1  A    between atoms: C_1  and  C_2
REMARK    2  A    between atoms: N_8  and  C_9
REMARK    3  A    between atoms: C_9  and  C_10
REMARK    4  A    between atoms: C_10  and  C_11
REMARK    5  A    between atoms: C_11  and  N_12
REMARK    6  A    between atoms: C_13  and  C_15
REMARK    7  A    between atoms: C_15  and  C_16
REMARK    8  A    between atoms: C_22  and  C_24
REMARK    9  A    between atoms: C_24  and  N_25
REMARK   10  A    between atoms: N_25  and  C_26
REMARK   11  A    between atoms: C_26  and  C_27
REMARK   12  A    between atoms: C_26  and  C_28
REMARK   13  A    between atoms: C_29  and  C_31
REMARK                            x       y       z     vdW  Elec       q    Type
REMARK                         _______ _______ _______ _____ _____    ______ ____
ROOT
ATOM      1  C   UNL     1       0.058   0.703   9.089  0.00  0.00    +0.059 A 
ATOM      2  C   UNL     1      -0.333  -0.181  10.040  0.00  0.00    +0.072 A 
ATOM      3  S   UNL     1      -0.874   0.932  11.327  0.00  0.00    -0.060 S 
ATOM      4  C   UNL     1      -0.552   2.380  10.533  0.00  0.00    +0.165 A 
ATOM      5  N   UNL     1      -0.064   1.986   9.377  0.00  0.00    -0.229 NA
ATOM      6  N   UNL     1      -0.750   3.678  10.990  0.00  0.00    -0.263 N 
ATOM      7  C   UNL     1      -1.262   3.889  12.219  0.00  0.00    +0.236 C 
ATOM      8  O   UNL     1      -1.550   2.947  12.926  0.00  0.00    -0.274 OA
ATOM      9  H   UNL     1      -0.520   4.432  10.424  0.00  0.00    +0.157 HD
ENDROOT
BRANCH   1  10
ATOM     10  C   UNL     1       0.611   0.242   7.766  0.00  0.00    +0.151 C 
BRANCH  10  12
ATOM     11  N   UNL     1       0.134   0.592   5.364  0.00  0.00    -0.315 N 
ATOM     12  C   UNL     1      -0.183   0.863   6.646  0.00  0.00    +0.219 C 
ATOM     13  O   UNL     1      -1.108   1.606   6.897  0.00  0.00    -0.275 OA
ATOM     14  H   UNL     1       0.873  -0.002   5.163  0.00  0.00    +0.149 HD
BRANCH  11  15
ATOM     15  C   UNL     1      -0.639   1.196   4.275  0.00  0.00    +0.102 C 
BRANCH  15  16
ATOM     16  C   UNL     1      -0.077   0.728   2.931  0.00  0.00    +0.000 C 
BRANCH  16  17
ATOM     17  C   UNL     1      -0.883   1.358   1.794  0.00  0.00    -0.077 C 
BRANCH  17  24
ATOM     18  C   UNL     1      -0.899   3.117  -0.395  0.00  0.00    -0.013 C 
ATOM     19  C   UNL     1      -1.040   1.605  -0.585  0.00  0.00    -0.072 C 
ATOM     20  C   UNL     1      -0.426   1.201  -1.927  0.00  0.00    -0.016 C 
ATOM     21  C   UNL     1      -0.570  -0.312  -2.114  0.00  0.00    -0.003 C 
ATOM     22  C   UNL     1       0.095  -1.027  -0.933  0.00  0.00    -0.019 C 
ATOM     23  C   UNL     1      -0.538  -0.540   0.372  0.00  0.00    -0.078 C 
ATOM     24  N   UNL     1      -0.344   0.909   0.504  0.00  0.00    +0.381 N 
ATOM     25  H   UNL     1       0.642   1.120   0.461  0.00  0.00    -0.081 HD
ENDBRANCH  17  24
ENDBRANCH  16  17
ENDBRANCH  15  16
ENDBRANCH  11  15
ENDBRANCH  10  12
ENDBRANCH   1  10
BRANCH   7  26
ATOM     26  C   UNL     1      -1.477   5.297  12.714  0.00  0.00    +0.204 C 
BRANCH  26  27
ATOM     27  N   UNL     1      -2.039   5.258  14.066  0.00  0.00    -0.284 N 
ATOM     28  C   UNL     1      -3.368   5.124  14.240  0.00  0.00    +0.283 C 
ATOM     29  O   UNL     1      -3.845   5.184  15.358  0.00  0.00    -0.267 OA
BRANCH  28  30
ATOM     30  C   UNL     1      -4.241   4.907  13.081  0.00  0.00    +0.189 A 
ATOM     31  C   UNL     1      -5.606   4.862  13.102  0.00  0.00    +0.054 A 
ATOM     32  C   UNL     1      -6.022   4.635  11.781  0.00  0.00    +0.042 A 
ATOM     33  C   UNL     1      -4.907   4.552  11.021  0.00  0.00    +0.196 A 
ATOM     34  O   UNL     1      -3.837   4.722  11.808  0.00  0.00    -0.458 OA
ENDBRANCH  28  30
BRANCH  27  35
ATOM     35  C   UNL     1      -1.155   5.365  15.230  0.00  0.00    +0.071 C 
ATOM     36  C   UNL     1      -1.511   6.622  16.027  0.00  0.00    +0.028 C 
ATOM     37  C   UNL     1      -1.329   4.131  16.118  0.00  0.00    +0.028 C 
ENDBRANCH  27  35
ENDBRANCH  26  27
ENDBRANCH   7  26
TORSDOF 10
