REMARK  Name = ZINC63289589
REMARK  9 active torsions:
REMARK  status: ('A' for Active; 'I' for Inactive)
REMARK    1  A    between atoms: C_1  and  C_2
REMARK    2  A    between atoms: C_4  and  N_10
REMARK    3  A    between atoms: C_8  and  C_9
REMARK    4  A    between atoms: N_10  and  S_11
REMARK    5  A    between atoms: S_11  and  C_14
REMARK    6  A    between atoms: C_17  and  N_20
REMARK    7  A    between atoms: C_21  and  C_23
REMARK    8  A    between atoms: C_23  and  S_24
REMARK    9  A    between atoms: S_24  and  C_25
REMARK                            x       y       z     vdW  Elec       q    Type
REMARK                         _______ _______ _______ _____ _____    ______ ____
ROOT
ATOM      1  C   UNL     1      -3.325  -1.096  -2.625  0.00  0.00    +0.105 A 
ATOM      2  C   UNL     1      -4.184  -0.040  -2.381  0.00  0.00    +0.030 A 
ATOM      3  C   UNL     1      -4.442   0.885  -3.373  0.00  0.00    +0.025 A 
ATOM      4  C   UNL     1      -3.838   0.754  -4.617  0.00  0.00    +0.034 A 
ATOM      5  C   UNL     1      -2.976  -0.307  -4.859  0.00  0.00    +0.025 A 
ATOM      6  C   UNL     1      -2.718  -1.227  -3.861  0.00  0.00    +0.030 A 
ENDROOT
BRANCH   4   7
ATOM      7  N   UNL     1      -4.098   1.690  -5.625  0.00  0.00    -0.285 N 
ATOM      8  C   UNL     1      -4.324   2.979  -5.305  0.00  0.00    +0.227 C 
ATOM      9  O   UNL     1      -4.209   3.348  -4.155  0.00  0.00    -0.275 OA
ATOM     10  H   UNL     1      -4.114   1.410  -6.553  0.00  0.00    +0.155 HD
BRANCH   8  11
ATOM     11  C   UNL     1      -4.721   3.963  -6.376  0.00  0.00    +0.169 C 
BRANCH  11  12
ATOM     12  S   UNL     1      -4.952   5.602  -5.635  0.00  0.00    -0.106 S 
BRANCH  12  13
ATOM     13  C   UNL     1      -5.420   6.655  -7.037  0.00  0.00    +0.236 C 
ATOM     14  N   UNL     1      -6.614   6.112  -7.698  0.00  0.00    -0.355 N 
ATOM     15  C   UNL     1      -6.287   5.834  -8.927  0.00  0.00    +0.061 A 
ATOM     16  C   UNL     1      -7.039   5.276 -10.059  0.00  0.00    +0.027 A 
ATOM     17  C   UNL     1      -6.421   5.094 -11.243  0.00  0.00    +0.002 A 
ATOM     18  C   UNL     1      -5.069   5.419 -11.451  0.00  0.00    +0.002 A 
ATOM     19  C   UNL     1      -4.289   5.937 -10.481  0.00  0.00    +0.027 A 
ATOM     20  C   UNL     1      -4.855   6.178  -9.147  0.00  0.00    +0.061 A 
ATOM     21  N   UNL     1      -4.352   6.655  -8.045  0.00  0.00    -0.355 N 
ATOM     22  H   UNL     1      -7.486   5.985  -7.293  0.00  0.00    +0.162 HD
ATOM     23  H   UNL     1      -3.440   6.957  -7.914  0.00  0.00    +0.162 HD
ENDBRANCH  12  13
ENDBRANCH  11  12
ENDBRANCH   8  11
ENDBRANCH   4   7
BRANCH   1  24
ATOM     24  S   UNL     1      -2.999  -2.274  -1.356  0.00  0.00    +0.061 S 
ATOM     25  O   UNL     1      -2.583  -3.467  -2.007  0.00  0.00    -0.153 OA
ATOM     26  O   UNL     1      -4.110  -2.237  -0.472  0.00  0.00    -0.153 OA
BRANCH  24  27
ATOM     27  N   UNL     1      -1.693  -1.722  -0.500  0.00  0.00    -0.149 NA
ATOM     28  H   UNL     1      -0.862  -2.222  -0.507  0.00  0.00    +0.152 HD
BRANCH  27  31
ATOM     29  C   UNL     1      -0.604   1.753   0.393  0.00  0.00    +0.019 C 
ATOM     30  C   UNL     1      -0.424   0.235   0.352  0.00  0.00    +0.093 C 
ATOM     31  C   UNL     1      -1.794  -0.480   0.270  0.00  0.00    +0.301 C 
ATOM     32  O   UNL     1      -2.062  -0.752   1.661  0.00  0.00    -0.373 OA
ATOM     33  N   UNL     1      -0.818  -0.809   2.330  0.00  0.00    -0.092 NA
ATOM     34  C   UNL     1       0.139  -0.277   1.665  0.00  0.00    +0.062 C 
ATOM     35  C   UNL     1       1.576  -0.175   2.106  0.00  0.00    +0.064 C 
ENDBRANCH  27  31
ENDBRANCH  24  27
ENDBRANCH   1  24
TORSDOF 7
