REMARK  Name = ZINC24804820
REMARK  15 active torsions:
REMARK  status: ('A' for Active; 'I' for Inactive)
REMARK    1  A    between atoms: C_1  and  C_2
REMARK    2  A    between atoms: C_5  and  C_9
REMARK    3  A    between atoms: C_7  and  C_8
REMARK    4  A    between atoms: C_9  and  C_11
REMARK    5  A    between atoms: C_9  and  N_12
REMARK    6  A    between atoms: C_13  and  C_15
REMARK    7  A    between atoms: C_15  and  O_16
REMARK    8  A    between atoms: O_16  and  C_17
REMARK    9  A    between atoms: C_17  and  C_19
REMARK   10  A    between atoms: C_22  and  S_25
REMARK   11  A    between atoms: S_25  and  N_28
REMARK   12  A    between atoms: N_28  and  C_29
REMARK   13  A    between atoms: C_29  and  C_30
REMARK   14  A    between atoms: C_29  and  C_31
REMARK   15  A    between atoms: C_29  and  C_32
REMARK                            x       y       z     vdW  Elec       q    Type
REMARK                         _______ _______ _______ _____ _____    ______ ____
ROOT
ATOM      1  C   UNL     1      -2.122   4.247   4.694  0.00  0.00    +0.340 C 
ATOM      2  O   UNL     1      -3.101   3.926   5.338  0.00  0.00    -0.245 OA
ENDROOT
BRANCH   1   3
ATOM      3  C   UNL     1      -1.706   3.439   3.530  0.00  0.00    +0.059 A 
ATOM      4  C   UNL     1      -2.436   2.306   3.166  0.00  0.00    +0.017 A 
ATOM      5  C   UNL     1      -2.042   1.556   2.077  0.00  0.00    +0.029 A 
ATOM      6  C   UNL     1      -0.927   1.925   1.345  0.00  0.00    +0.105 A 
ATOM      7  C   UNL     1      -0.196   3.044   1.704  0.00  0.00    +0.029 A 
ATOM      8  C   UNL     1      -0.582   3.806   2.788  0.00  0.00    +0.017 A 
BRANCH   6   9
ATOM      9  S   UNL     1      -0.431   0.962  -0.044  0.00  0.00    +0.059 S 
ATOM     10  O   UNL     1      -0.625  -0.399   0.316  0.00  0.00    -0.153 OA
ATOM     11  O   UNL     1       0.830   1.468  -0.459  0.00  0.00    -0.153 OA
BRANCH   9  12
ATOM     12  N   UNL     1      -1.497   1.284  -1.269  0.00  0.00    -0.185 NA
ATOM     13  H   UNL     1      -2.298   0.563  -1.488  0.00  0.00    +0.149 HD
BRANCH  12  14
ATOM     14  C   UNL     1      -1.508   2.605  -1.902  0.00  0.00    +0.032 C 
ATOM     15  C   UNL     1      -0.146   2.874  -2.545  0.00  0.00    +0.029 C 
ATOM     16  C   UNL     1      -2.596   2.647  -2.977  0.00  0.00    +0.029 C 
ATOM     17  C   UNL     1      -1.793   3.675  -0.846  0.00  0.00    +0.029 C 
ENDBRANCH  12  14
ENDBRANCH   9  12
ENDBRANCH   6   9
ENDBRANCH   1   3
BRANCH   1  18
ATOM     18  O   UNL     1      -1.416   5.340   5.043  0.00  0.00    -0.452 OA
BRANCH  18  19
ATOM     19  C   UNL     1      -1.883   6.085   6.198  0.00  0.00    +0.328 C 
BRANCH  19  21
ATOM     20  N   UNL     1      -1.216   8.106   7.460  0.00  0.00    -0.306 N 
ATOM     21  C   UNL     1      -0.976   7.265   6.434  0.00  0.00    +0.251 C 
ATOM     22  O   UNL     1      -0.029   7.459   5.701  0.00  0.00    -0.272 OA
ATOM     23  H   UNL     1      -2.075   7.930   8.125  0.00  0.00    +0.149 HD
BRANCH  20  24
ATOM     24  C   UNL     1      -0.334   9.253   7.690  0.00  0.00    +0.100 C 
ATOM     25  C   UNL     1       0.869   8.812   8.525  0.00  0.00    +0.033 C 
BRANCH  24  30
ATOM     26  C   UNL     1      -3.233  13.377  10.515  0.00  0.00    +0.044 C 
ATOM     27  C   UNL     1      -2.478  12.301   9.778  0.00  0.00    -0.048 A 
ATOM     28  C   UNL     1      -2.659  10.973  10.117  0.00  0.00    +0.004 A 
ATOM     29  C   UNL     1      -1.968   9.986   9.438  0.00  0.00    +0.006 A 
ATOM     30  C   UNL     1      -1.090  10.328   8.427  0.00  0.00    -0.027 A 
ATOM     31  C   UNL     1      -0.910  11.656   8.087  0.00  0.00    +0.009 A 
ATOM     32  C   UNL     1      -1.604  12.642   8.763  0.00  0.00    -0.047 A 
ATOM     33  C   UNL     1      -1.406  14.090   8.394  0.00  0.00    +0.044 C 
ENDBRANCH  24  30
ENDBRANCH  20  24
ENDBRANCH  19  21
ENDBRANCH  18  19
ENDBRANCH   1  18
TORSDOF 9
