REMARK  Name = ZINC32514307
REMARK  7 active torsions:
REMARK  status: ('A' for Active; 'I' for Inactive)
REMARK    1  A    between atoms: C_1  and  C_2
REMARK    2  A    between atoms: C_9  and  C_16
REMARK    3  A    between atoms: C_11  and  O_12
REMARK    4  A    between atoms: C_16  and  S_17
REMARK    5  A    between atoms: S_17  and  C_18
REMARK    6  A    between atoms: N_19  and  C_20
REMARK    7  A    between atoms: N_21  and  C_22
REMARK                            x       y       z     vdW  Elec       q    Type
REMARK                         _______ _______ _______ _____ _____    ______ ____
ROOT
ATOM      1  C   UNL     1      -2.198   1.468   0.613  0.00  0.00    +0.109 C 
ATOM      2  C   UNL     1      -2.172  -0.038   0.613  0.00  0.00    +0.214 C 
ATOM      3  O   UNL     1      -3.062  -0.660   1.153  0.00  0.00    -0.276 OA
ATOM      4  N   UNL     1      -1.159  -0.695   0.012  0.00  0.00    -0.286 N 
ATOM      5  C   UNL     1      -1.084  -2.086   0.094  0.00  0.00    +0.037 A 
ATOM      6  C   UNL     1       0.162  -2.708   0.168  0.00  0.00    +0.024 A 
ATOM      7  C   UNL     1       0.251  -4.067   0.255  0.00  0.00    +0.013 A 
ATOM      8  C   UNL     1      -0.915  -4.842   0.256  0.00  0.00    +0.022 A 
ATOM      9  C   UNL     1      -0.848  -6.303   0.342  0.00  0.00    -0.020 A 
ATOM     10  C   UNL     1      -2.014  -7.000   0.340  0.00  0.00    +0.092 A 
ATOM     11  C   UNL     1      -3.242  -6.312   0.257  0.00  0.00    +0.285 A 
ATOM     12  O   UNL     1      -3.296  -4.973   0.178  0.00  0.00    -0.425 OA
ATOM     13  C   UNL     1      -2.175  -4.221   0.175  0.00  0.00    +0.141 A 
ATOM     14  C   UNL     1      -2.249  -2.839   0.095  0.00  0.00    +0.070 A 
ATOM     15  H   UNL     1      -0.392  -0.134  -0.542  0.00  0.00    +0.155 HD
ENDROOT
BRANCH  11  16
ATOM     16  O   UNL     1      -4.280  -6.949   0.256  0.00  0.00    -0.480 OA
ATOM     17  H   UNL     1      -5.246  -6.426   0.191  0.00  0.00    +0.295 HD
ENDBRANCH  11  16
BRANCH   9  18
ATOM     18  C   UNL     1       0.478  -7.013   0.430  0.00  0.00    +0.113 C 
BRANCH  18  19
ATOM     19  S   UNL     1       1.070  -7.394  -1.237  0.00  0.00    -0.088 S 
BRANCH  19  20
ATOM     20  C   UNL     1       2.589  -8.197  -0.847  0.00  0.00    +0.128 C 
ATOM     21  N   UNL     1       2.948  -8.344   0.399  0.00  0.00    -0.371 N 
ATOM     22  C   UNL     1       4.154  -9.107   0.729  0.00  0.00    +0.141 C 
ATOM     23  N   UNL     1       3.396  -8.670  -1.855  0.00  0.00    -0.329 N 
ATOM     24  C   UNL     1       3.049  -8.410  -3.254  0.00  0.00    +0.127 C 
ATOM     25  H   UNL     1       4.303  -9.243  -1.611  0.00  0.00    +0.148 HD
ATOM     26  H   UNL     1       2.345  -7.894   1.201  0.00  0.00    +0.161 HD
ENDBRANCH  19  20
ENDBRANCH  18  19
ENDBRANCH   9  18
TORSDOF 4
