REMARK  Name = ZINC19290369
REMARK  6 active torsions:
REMARK  status: ('A' for Active; 'I' for Inactive)
REMARK    1  A    between atoms: C_1  and  N_2
REMARK    2  A    between atoms: C_4  and  C_11
REMARK    3  A    between atoms: C_11  and  C_13
REMARK    4  A    between atoms: C_11  and  O_32
REMARK    5  A    between atoms: C_13  and  N_14
REMARK    6  A    between atoms: C_21  and  O_31
REMARK                            x       y       z     vdW  Elec       q    Type
REMARK                         _______ _______ _______ _____ _____    ______ ____
ROOT
ATOM      1  N   UNL     1      -2.107   1.071   1.277  0.00  0.00    +0.382 N 
ATOM      2  C   UNL     1      -2.135  -0.380   1.051  0.00  0.00    -0.075 C 
ATOM      3  C   UNL     1      -3.585  -0.850   0.921  0.00  0.00    +0.029 C 
ATOM      4  C   UNL     1      -4.349  -0.496   2.197  0.00  0.00    +0.110 C 
ATOM      5  C   UNL     1      -4.260   1.011   2.443  0.00  0.00    +0.029 C 
ATOM      6  C   UNL     1      -2.789   1.425   2.528  0.00  0.00    -0.075 C 
ATOM      7  C   UNL     1      -5.820  -0.901   2.043  0.00  0.00    +0.084 C 
ATOM      8  C   UNL     1      -5.876  -2.391   1.696  0.00  0.00    +0.152 C 
ATOM      9  C   UNL     1      -4.991  -3.166   2.638  0.00  0.00    +0.024 A 
ATOM     10  C   UNL     1      -5.176  -4.534   2.750  0.00  0.00    +0.029 A 
ATOM     11  C   UNL     1      -4.375  -5.279   3.596  0.00  0.00    +0.042 A 
ATOM     12  C   UNL     1      -3.384  -4.657   4.334  0.00  0.00    +0.023 A 
ATOM     13  C   UNL     1      -3.198  -3.294   4.228  0.00  0.00    +0.047 A 
ATOM     14  C   UNL     1      -4.004  -2.541   3.380  0.00  0.00    +0.127 A 
ATOM     15  O   UNL     1      -3.795  -1.201   3.307  0.00  0.00    -0.485 OA
ATOM     16 CL   UNL     1      -4.613  -6.993   3.732  0.00  0.00    -0.084 Cl
ATOM     17  H   UNL     1      -2.652   1.550   0.450  0.00  0.00    -0.082 HD
ENDROOT
BRANCH   8  18
ATOM     18  O   UNL     1      -7.222  -2.856   1.816  0.00  0.00    -0.387 OA
ATOM     19  H   UNL     1      -7.461  -3.909   1.604  0.00  0.00    +0.210 HD
ENDBRANCH   8  18
BRANCH   1  20
ATOM     20  C   UNL     1      -0.729   1.579   1.267  0.00  0.00    -0.042 C 
BRANCH  20  21
ATOM     21  C   UNL     1      -0.022   1.110  -0.006  0.00  0.00    +0.130 C 
BRANCH  21  25
ATOM     22  C   UNL     1       3.923   4.071  -0.975  0.00  0.00    +0.149 C 
ATOM     23  N   UNL     1       3.135   2.953  -0.451  0.00  0.00    -0.349 N 
ATOM     24  C   UNL     1       1.793   2.775  -0.649  0.00  0.00    +0.092 A 
ATOM     25  C   UNL     1       1.383   1.656  -0.031  0.00  0.00    +0.004 A 
ATOM     26  C   UNL     1       2.560   1.064   0.608  0.00  0.00    +0.005 A 
ATOM     27  C   UNL     1       3.635   1.922   0.312  0.00  0.00    +0.049 A 
ATOM     28  C   UNL     1       4.904   1.614   0.793  0.00  0.00    +0.026 A 
ATOM     29  C   UNL     1       5.092   0.479   1.550  0.00  0.00    +0.002 A 
ATOM     30  C   UNL     1       4.028  -0.364   1.839  0.00  0.00    +0.001 A 
ATOM     31  C   UNL     1       2.773  -0.081   1.378  0.00  0.00    +0.010 A 
ENDBRANCH  21  25
BRANCH  21  32
ATOM     32  O   UNL     1      -0.737   1.581  -1.150  0.00  0.00    -0.389 OA
ATOM     33  H   UNL     1      -1.785   1.284  -1.304  0.00  0.00    +0.210 HD
ENDBRANCH  21  32
ENDBRANCH  20  21
ENDBRANCH   1  20
TORSDOF 5
