REMARK  Name = ZINC41781038
REMARK  7 active torsions:
REMARK  status: ('A' for Active; 'I' for Inactive)
REMARK    1  A    between atoms: C_1  and  C_2
REMARK    2  A    between atoms: C_7  and  N_12
REMARK    3  A    between atoms: C_9  and  C_11
REMARK    4  A    between atoms: C_13  and  C_15
REMARK    5  A    between atoms: C_15  and  C_16
REMARK    6  A    between atoms: C_16  and  C_18
REMARK    7  A    between atoms: C_16  and  N_25
REMARK                            x       y       z     vdW  Elec       q    Type
REMARK                         _______ _______ _______ _____ _____    ______ ____
ROOT
ATOM      1  C   UNL     1       3.348  -5.626   3.353  0.00  0.00    +0.113 C 
ENDROOT
BRANCH   1   2
ATOM      2  C   UNL     1       4.072  -5.969   4.629  0.00  0.00    -0.026 A 
ATOM      3  C   UNL     1       3.354  -6.278   5.770  0.00  0.00    +0.005 A 
ATOM      4  C   UNL     1       4.018  -6.593   6.941  0.00  0.00    +0.001 A 
ATOM      5  C   UNL     1       5.400  -6.599   6.972  0.00  0.00    +0.015 A 
ATOM      6  C   UNL     1       6.119  -6.290   5.831  0.00  0.00    +0.018 A 
ATOM      7  C   UNL     1       5.454  -5.980   4.658  0.00  0.00    +0.020 A 
ATOM      8 BR   UNL     1       8.009  -6.296   5.873  0.00  0.00    -0.050 Br
ENDBRANCH   1   2
BRANCH   1   9
ATOM      9  N   UNL     1       2.268  -6.591   3.130  0.00  0.00    -0.292 N 
ATOM     10  C   UNL     1       2.522  -7.752   2.496  0.00  0.00    +0.298 C 
ATOM     11  O   UNL     1       3.663  -8.041   2.190  0.00  0.00    -0.253 OA
ATOM     12  N   UNL     1       1.512  -8.595   2.202  0.00  0.00    -0.313 N 
ATOM     13  H   UNL     1       1.370  -6.393   3.439  0.00  0.00    +0.151 HD
ATOM     14  H   UNL     1       0.602  -8.364   2.446  0.00  0.00    +0.146 HD
ATOM     15  H   UNL     1       1.695  -9.431   1.745  0.00  0.00    +0.146 HD
ENDBRANCH   1   9
BRANCH   1  16
ATOM     16  C   UNL     1       2.759  -4.218   3.463  0.00  0.00    +0.123 C 
BRANCH  16  18
ATOM     17  N   UNL     1       1.558  -2.620   2.006  0.00  0.00    -0.312 N 
ATOM     18  C   UNL     1       2.141  -3.827   2.146  0.00  0.00    +0.215 C 
ATOM     19  O   UNL     1       2.169  -4.599   1.210  0.00  0.00    -0.276 OA
ATOM     20  H   UNL     1       1.536  -2.003   2.754  0.00  0.00    +0.149 HD
BRANCH  17  26
ATOM     21  C   UNL     1       0.289   1.206  -0.855  0.00  0.00    +0.008 C 
ATOM     22  C   UNL     1       0.309  -0.319  -0.734  0.00  0.00    -0.009 C 
ATOM     23  C   UNL     1      -1.122  -0.855  -0.805  0.00  0.00    +0.003 C 
ATOM     24  C   UNL     1      -1.101  -2.380  -0.684  0.00  0.00    +0.002 C 
ATOM     25  C   UNL     1      -0.474  -2.777   0.654  0.00  0.00    +0.022 C 
ATOM     26  C   UNL     1       0.957  -2.240   0.725  0.00  0.00    +0.076 C 
ATOM     27  C   UNL     1       0.937  -0.715   0.604  0.00  0.00    +0.009 C 
ATOM     28  C   UNL     1       0.113  -0.123   1.749  0.00  0.00    +0.009 C 
ENDBRANCH  17  26
ENDBRANCH  16  18
ENDBRANCH   1  16
TORSDOF 5
