REMARK  Name = ZINC12603047
REMARK  6 active torsions:
REMARK  status: ('A' for Active; 'I' for Inactive)
REMARK    1  A    between atoms: C_1  and  O_2
REMARK    2  A    between atoms: O_2  and  C_3
REMARK    3  A    between atoms: C_3  and  C_5
REMARK    4  A    between atoms: C_21  and  C_34
REMARK    5  A    between atoms: C_24  and  N_27
REMARK    6  A    between atoms: C_30  and  O_33
REMARK                            x       y       z     vdW  Elec       q    Type
REMARK                         _______ _______ _______ _____ _____    ______ ____
ROOT
ATOM      1  C   UNL     1       0.643  -2.110  -0.966  0.00  0.00    +0.172 C 
ATOM      2  C   UNL     1       1.514  -2.660   0.173  0.00  0.00    +0.068 C 
ATOM      3  C   UNL     1       1.794  -4.114  -0.109  0.00  0.00    -0.016 A 
ATOM      4  C   UNL     1       2.291  -5.140   0.781  0.00  0.00    +0.003 A 
ATOM      5  C   UNL     1       2.658  -5.131   2.130  0.00  0.00    +0.010 A 
ATOM      6  C   UNL     1       3.096  -6.319   2.663  0.00  0.00    +0.001 A 
ATOM      7  C   UNL     1       3.176  -7.478   1.908  0.00  0.00    +0.002 A 
ATOM      8  C   UNL     1       2.820  -7.516   0.572  0.00  0.00    +0.026 A 
ATOM      9  C   UNL     1       2.370  -6.325   0.004  0.00  0.00    +0.047 A 
ATOM     10  N   UNL     1       1.947  -6.015  -1.257  0.00  0.00    -0.356 N 
ATOM     11  H   UNL     1       1.898  -6.639  -1.998  0.00  0.00    +0.166 HD
ATOM     12  C   UNL     1       1.603  -4.692  -1.318  0.00  0.00    +0.038 A 
ATOM     13  C   UNL     1       1.082  -3.934  -2.513  0.00  0.00    +0.103 C 
ATOM     14  N   UNL     1       1.227  -2.494  -2.256  0.00  0.00    -0.274 NA
ATOM     15  C   UNL     1       0.669  -1.705  -3.361  0.00  0.00    +0.087 C 
ATOM     16  C   UNL     1       1.449  -2.010  -4.643  0.00  0.00    +0.008 C 
ATOM     17  C   UNL     1       1.357  -3.506  -4.953  0.00  0.00    -0.065 C 
ATOM     18  C   UNL     1       1.882  -4.313  -3.761  0.00  0.00    +0.010 C 
ENDROOT
BRANCH  15  19
ATOM     19  C   UNL     1      -0.781  -2.066  -3.555  0.00  0.00    -0.027 A 
ATOM     20  C   UNL     1      -1.496  -1.514  -4.602  0.00  0.00    +0.008 A 
ATOM     21  C   UNL     1      -2.826  -1.843  -4.782  0.00  0.00    +0.041 A 
ATOM     22  C   UNL     1      -3.443  -2.727  -3.915  0.00  0.00    +0.158 A 
ATOM     23  C   UNL     1      -2.726  -3.281  -2.865  0.00  0.00    +0.159 A 
ATOM     24  C   UNL     1      -1.393  -2.953  -2.690  0.00  0.00    +0.046 A 
ATOM     25  F   UNL     1      -3.327  -4.144  -2.017  0.00  0.00    -0.202 F 
ATOM     26  F   UNL     1      -4.744  -3.050  -4.090  0.00  0.00    -0.202 F 
ENDBRANCH  15  19
BRANCH  17  27
ATOM     27  N   UNL     1      -0.044  -3.869  -5.204  0.00  0.00    +0.383 N 
ATOM     28  C   UNL     1      -0.157  -5.335  -5.364  0.00  0.00    -0.076 C 
ATOM     29  C   UNL     1      -1.247  -5.531  -6.448  0.00  0.00    +0.011 C 
ATOM     30  C   UNL     1      -0.953  -4.347  -7.406  0.00  0.00    +0.096 C 
ATOM     31  C   UNL     1      -0.509  -3.224  -6.446  0.00  0.00    -0.047 C 
ATOM     32  H   UNL     1      -0.617  -3.569  -4.430  0.00  0.00    -0.081 HD
BRANCH  30  33
ATOM     33  O   UNL     1      -2.132  -3.970  -8.120  0.00  0.00    -0.394 OA
ATOM     34  H   UNL     1      -2.493  -4.670  -8.681  0.00  0.00    +0.210 HD
ENDBRANCH  30  33
ENDBRANCH  17  27
BRANCH   1  35
ATOM     35  C   UNL     1       0.580  -0.608  -0.870  0.00  0.00    +0.325 C 
ATOM     36  O   UNL     1      -0.299  -0.080  -0.231  0.00  0.00    -0.249 OA
BRANCH  35  38
ATOM     37  C   UNL     1       1.380   1.562  -1.360  0.00  0.00    +0.280 C 
ATOM     38  O   UNL     1       1.501   0.144  -1.494  0.00  0.00    -0.467 OA
ENDBRANCH  35  38
ENDBRANCH   1  35
TORSDOF 5
