REMARK  Name = ZINC66755031
REMARK  8 active torsions:
REMARK  status: ('A' for Active; 'I' for Inactive)
REMARK    1  A    between atoms: C_1  and  C_2
REMARK    2  A    between atoms: C_2  and  C_3
REMARK    3  A    between atoms: C_3  and  C_5
REMARK    4  A    between atoms: C_3  and  C_6
REMARK    5  A    between atoms: C_6  and  C_8
REMARK    6  A    between atoms: C_6  and  N_11
REMARK    7  A    between atoms: C_12  and  C_14
REMARK    8  A    between atoms: C_17  and  C_19
REMARK                            x       y       z     vdW  Elec       q    Type
REMARK                         _______ _______ _______ _____ _____    ______ ____
ROOT
ATOM      1  C   UNL     1       3.380  -4.386   2.980  0.00  0.00    +0.133 A 
ATOM      2  C   UNL     1       4.159  -5.470   2.671  0.00  0.00    +0.080 A 
ATOM      3  S   UNL     1       4.878  -5.834   4.148  0.00  0.00    -0.075 S 
ATOM      4  C   UNL     1       4.126  -4.543   5.123  0.00  0.00    +0.109 A 
ATOM      5  N   UNL     1       3.379  -3.927   4.224  0.00  0.00    -0.234 NA
ENDROOT
BRANCH   4   6
ATOM      6  C   UNL     1       4.297  -4.238   6.559  0.00  0.00    +0.011 A 
ATOM      7  C   UNL     1       3.603  -3.174   7.137  0.00  0.00    +0.014 A 
ATOM      8  C   UNL     1       3.766  -2.892   8.476  0.00  0.00    +0.050 A 
ATOM      9  C   UNL     1       4.619  -3.663   9.256  0.00  0.00    +0.162 A 
ATOM     10  C   UNL     1       5.311  -4.727   8.686  0.00  0.00    +0.163 A 
ATOM     11  C   UNL     1       5.149  -5.017   7.343  0.00  0.00    +0.060 A 
ATOM     12  O   UNL     1       6.145  -5.498   9.438  0.00  0.00    -0.485 OA
ATOM     13  C   UNL     1       6.565  -4.955  10.694  0.00  0.00    +0.270 C 
ATOM     14  C   UNL     1       5.332  -4.382  11.407  0.00  0.00    +0.270 C 
ATOM     15  O   UNL     1       4.766  -3.364  10.575  0.00  0.00    -0.485 OA
ENDBRANCH   4   6
BRANCH   1  17
ATOM     16  N   UNL     1       1.801  -2.668   2.256  0.00  0.00    -0.299 N 
ATOM     17  C   UNL     1       2.560  -3.736   1.943  0.00  0.00    +0.264 C 
ATOM     18  O   UNL     1       2.567  -4.164   0.804  0.00  0.00    -0.268 OA
ATOM     19  H   UNL     1       1.794  -2.326   3.164  0.00  0.00    +0.150 HD
BRANCH  16  20
ATOM     20  C   UNL     1       0.985  -2.021   1.225  0.00  0.00    +0.162 C 
BRANCH  20  21
ATOM     21  C   UNL     1      -0.334  -2.741   1.103  0.00  0.00    +0.231 C 
ATOM     22  O   UNL     1      -0.727  -3.443   2.011  0.00  0.00    -0.274 OA
ATOM     23  N   UNL     1      -1.075  -2.604  -0.013  0.00  0.00    -0.328 N 
ATOM     24  H   UNL     1      -0.797  -1.987  -0.708  0.00  0.00    +0.145 HD
ATOM     25  H   UNL     1      -1.888  -3.123  -0.123  0.00  0.00    +0.145 HD
ENDBRANCH  20  21
BRANCH  20  26
ATOM     26  C   UNL     1       0.736  -0.562   1.612  0.00  0.00    +0.015 C 
ATOM     27  C   UNL     1       2.075   0.166   1.743  0.00  0.00    +0.010 C 
BRANCH  26  29
ATOM     28  C   UNL     1      -0.364   0.943   3.275  0.00  0.00    +0.004 C 
ATOM     29  C   UNL     1      -0.007  -0.509   2.949  0.00  0.00    +0.002 C 
ENDBRANCH  26  29
ENDBRANCH  20  26
ENDBRANCH  16  20
ENDBRANCH   1  17
TORSDOF 6
