REMARK  Name = ZINC14511329
REMARK  12 active torsions:
REMARK  status: ('A' for Active; 'I' for Inactive)
REMARK    1  A    between atoms: C_1  and  O_2
REMARK    2  A    between atoms: O_2  and  C_3
REMARK    3  A    between atoms: C_3  and  C_4
REMARK    4  A    between atoms: C_4  and  N_5
REMARK    5  A    between atoms: N_5  and  C_6
REMARK    6  A    between atoms: C_7  and  N_22
REMARK    7  A    between atoms: N_8  and  C_15
REMARK    8  A    between atoms: C_15  and  C_16
REMARK    9  A    between atoms: C_23  and  C_25
REMARK   10  A    between atoms: C_26  and  C_27
REMARK   11  A    between atoms: C_30  and  O_33
REMARK   12  A    between atoms: O_33  and  C_34
REMARK                            x       y       z     vdW  Elec       q    Type
REMARK                         _______ _______ _______ _____ _____    ______ ____
ROOT
ATOM      1  N   UNL     1      -2.673   6.646  -4.054  0.00  0.00    -0.259 N 
ATOM      2  C   UNL     1      -1.823   7.516  -3.473  0.00  0.00    +0.244 C 
ATOM      3  O   UNL     1      -1.449   7.330  -2.329  0.00  0.00    -0.270 OA
ENDROOT
BRANCH   1   4
ATOM      4  C   UNL     1      -3.219   5.585  -3.302  0.00  0.00    +0.140 A 
ATOM      5  C   UNL     1      -2.904   4.276  -3.604  0.00  0.00    +0.128 A 
ATOM      6  N   UNL     1      -3.456   3.263  -2.855  0.00  0.00    -0.276 N 
ATOM      7  C   UNL     1      -4.285   3.545  -1.834  0.00  0.00    +0.331 A 
ATOM      8  O   UNL     1      -4.759   2.635  -1.181  0.00  0.00    -0.246 OA
ATOM      9  N   UNL     1      -4.599   4.815  -1.522  0.00  0.00    -0.273 N 
ATOM     10  H   UNL     1      -5.218   4.997  -0.757  0.00  0.00    +0.173 HD
ATOM     11  C   UNL     1      -4.090   5.844  -2.227  0.00  0.00    +0.277 A 
ATOM     12  O   UNL     1      -4.381   6.992  -1.935  0.00  0.00    -0.266 OA
BRANCH   5  13
ATOM     13  N   UNL     1      -2.052   3.988  -4.643  0.00  0.00    -0.343 N 
ATOM     14  H   UNL     1      -1.797   3.069  -4.820  0.00  0.00    +0.144 HD
ATOM     15  H   UNL     1      -1.707   4.703  -5.200  0.00  0.00    +0.144 HD
ENDBRANCH   5  13
BRANCH   6  16
ATOM     16  C   UNL     1      -3.135   1.868  -3.168  0.00  0.00    +0.163 C 
BRANCH  16  17
ATOM     17  C   UNL     1      -4.134   1.333  -4.160  0.00  0.00    -0.028 A 
ATOM     18  C   UNL     1      -5.295   0.729  -3.715  0.00  0.00    +0.005 A 
ATOM     19  C   UNL     1      -6.210   0.234  -4.625  0.00  0.00    +0.000 A 
ATOM     20  C   UNL     1      -5.968   0.351  -5.981  0.00  0.00    +0.000 A 
ATOM     21  C   UNL     1      -4.810   0.960  -6.427  0.00  0.00    +0.000 A 
ATOM     22  C   UNL     1      -3.893   1.450  -5.516  0.00  0.00    +0.005 A 
ENDBRANCH  16  17
ENDBRANCH   6  16
ENDBRANCH   1   4
BRANCH   2  23
ATOM     23  C   UNL     1      -1.349   8.682  -4.218  0.00  0.00    +0.068 C 
ATOM     24  C   UNL     1      -0.497   9.553  -3.636  0.00  0.00    +0.013 C 
BRANCH  24  25
ATOM     25  C   UNL     1      -0.021  10.726  -4.384  0.00  0.00    -0.025 A 
ATOM     26  C   UNL     1      -0.445  10.938  -5.701  0.00  0.00    +0.011 A 
ATOM     27  C   UNL     1       0.001  12.040  -6.396  0.00  0.00    +0.046 A 
ATOM     28  C   UNL     1       0.877  12.936  -5.795  0.00  0.00    +0.127 A 
ATOM     29  C   UNL     1       1.306  12.727  -4.489  0.00  0.00    +0.046 A 
ATOM     30  C   UNL     1       0.862  11.630  -3.784  0.00  0.00    +0.011 A 
BRANCH  28  31
ATOM     31  O   UNL     1       1.317  14.019  -6.485  0.00  0.00    -0.434 OA
BRANCH  31  32
ATOM     32  C   UNL     1       0.838  14.174  -7.823  0.00  0.00    +0.541 C 
ATOM     33  F   UNL     1       1.215  13.063  -8.585  0.00  0.00    -0.166 F 
ATOM     34  F   UNL     1      -0.557  14.278  -7.809  0.00  0.00    -0.166 F 
ENDBRANCH  31  32
ENDBRANCH  28  31
ENDBRANCH  24  25
ENDBRANCH   2  23
BRANCH   1  35
ATOM     35  C   UNL     1      -3.031   6.803  -5.466  0.00  0.00    +0.142 C 
BRANCH  35  36
ATOM     36  C   UNL     1      -4.327   7.607  -5.577  0.00  0.00    +0.179 C 
BRANCH  36  38
ATOM     37  C   UNL     1      -5.263   9.773  -5.154  0.00  0.00    +0.194 C 
ATOM     38  O   UNL     1      -4.108   8.934  -5.093  0.00  0.00    -0.381 OA
ENDBRANCH  36  38
ENDBRANCH  35  36
ENDBRANCH   1  35
TORSDOF 11
