REMARK  Name = ZINC03659733
REMARK  3 active torsions:
REMARK  status: ('A' for Active; 'I' for Inactive)
REMARK    1  A    between atoms: C_6  and  C_7
REMARK    2  A    between atoms: N_9  and  N_10
REMARK    3  A    between atoms: C_11  and  C_12
REMARK                            x       y       z     vdW  Elec       q    Type
REMARK                         _______ _______ _______ _____ _____    ______ ____
ROOT
ATOM      1  C   UNL     1       3.690  -0.696  -0.047  0.00  0.00    +0.263 C 
ATOM      2  O   UNL     1       4.736  -0.076  -0.056  0.00  0.00    -0.268 OA
ATOM      3  N   UNL     1       3.705  -2.043  -0.056  0.00  0.00    -0.203 N 
ATOM      4  H   UNL     1       2.871  -2.538  -0.048  0.00  0.00    +0.178 HD
ENDROOT
BRANCH   1  10
ATOM      5  C   UNL     1       1.201  -0.682  -0.016  0.00  0.00    +0.017 A 
ATOM      6  C   UNL     1       0.002  -0.004   0.002  0.00  0.00    +0.050 A 
ATOM      7  C   UNL     1      -0.017   1.385   0.010  0.00  0.00    +0.162 A 
ATOM      8  C   UNL     1       1.179   2.099   0.002  0.00  0.00    +0.163 A 
ATOM      9  C   UNL     1       2.386   1.425  -0.017  0.00  0.00    +0.062 A 
ATOM     10  C   UNL     1       2.404   0.028  -0.027  0.00  0.00    +0.042 A 
ATOM     11  O   UNL     1       1.178   3.461   0.018  0.00  0.00    -0.485 OA
ATOM     12  C   UNL     1      -0.049   4.107  -0.339  0.00  0.00    +0.270 C 
ATOM     13  C   UNL     1      -1.194   3.411   0.409  0.00  0.00    +0.270 C 
ATOM     14  O   UNL     1      -1.212   2.034   0.019  0.00  0.00    -0.485 OA
ENDBRANCH   1  10
BRANCH   3  15
ATOM     15  N   UNL     1       4.926  -2.730  -0.075  0.00  0.00    -0.187 NA
ATOM     16  C   UNL     1       4.941  -4.028  -0.083  0.00  0.00    +0.139 C 
BRANCH  16  17
ATOM     17  C   UNL     1       6.226  -4.751  -0.104  0.00  0.00    +0.013 A 
ATOM     18  C   UNL     1       6.245  -6.148  -0.113  0.00  0.00    +0.012 A 
ATOM     19  C   UNL     1       7.450  -6.817  -0.132  0.00  0.00    +0.021 A 
ATOM     20  C   UNL     1       8.640  -6.109  -0.143  0.00  0.00    +0.042 A 
ATOM     21  C   UNL     1       8.629  -4.725  -0.134  0.00  0.00    +0.040 A 
ATOM     22  C   UNL     1       7.430  -4.041  -0.120  0.00  0.00    +0.051 A 
ATOM     23 CL   UNL     1       7.418  -2.305  -0.117  0.00  0.00    -0.083 Cl
ATOM     24 CL   UNL     1      10.153  -6.961  -0.167  0.00  0.00    -0.083 Cl
ENDBRANCH  16  17
ENDBRANCH   3  15
TORSDOF 3
