REMARK  Name = ZINC04591310
REMARK  15 active torsions:
REMARK  status: ('A' for Active; 'I' for Inactive)
REMARK    1  A    between atoms: C_1  and  C_2
REMARK    2  A    between atoms: C_2  and  C_3
REMARK    3  A    between atoms: C_3  and  C_4
REMARK    4  A    between atoms: C_4  and  C_5
REMARK    5  A    between atoms: C_5  and  C_6
REMARK    6  A    between atoms: C_6  and  O_7
REMARK    7  A    between atoms: O_7  and  C_8
REMARK    8  A    between atoms: C_8  and  C_10
REMARK    9  A    between atoms: C_11  and  C_29
REMARK   10  A    between atoms: C_16  and  C_18
REMARK   11  A    between atoms: C_20  and  O_27
REMARK   12  A    between atoms: C_21  and  O_26
REMARK   13  A    between atoms: C_22  and  O_24
REMARK   14  A    between atoms: O_24  and  C_25
REMARK   15  A    between atoms: O_27  and  C_28
REMARK                            x       y       z     vdW  Elec       q    Type
REMARK                         _______ _______ _______ _____ _____    ______ ____
ROOT
ATOM      1  C   UNL     1      -0.694   2.024   5.771  0.00  0.00    +0.078 C 
ATOM      2  C   UNL     1       0.032   1.410   6.730  0.00  0.00    +0.021 C 
ATOM      3  N   UNL     1      -0.281   1.555   8.051  0.00  0.00    -0.273 N 
ATOM      4  C   UNL     1      -1.302   2.297   8.495  0.00  0.00    +0.304 C 
ATOM      5  O   UNL     1      -1.502   2.367   9.693  0.00  0.00    -0.252 OA
ATOM      6  N   UNL     1      -2.116   2.971   7.659  0.00  0.00    -0.288 N 
ATOM      7  C   UNL     1      -1.861   2.884   6.211  0.00  0.00    +0.144 C 
ATOM      8  C   UNL     1       1.205   0.550   6.335  0.00  0.00    +0.061 C 
ATOM      9  H   UNL     1       0.269   1.094   8.705  0.00  0.00    +0.156 HD
ATOM     10  H   UNL     1      -2.851   3.503   8.002  0.00  0.00    +0.151 HD
ENDROOT
BRANCH   7  11
ATOM     11  C   UNL     1      -1.632   4.280   5.691  0.00  0.00    -0.015 A 
ATOM     12  C   UNL     1      -0.662   5.080   6.267  0.00  0.00    +0.055 A 
ATOM     13  C   UNL     1      -0.445   6.362   5.787  0.00  0.00    +0.165 A 
ATOM     14  C   UNL     1      -1.210   6.848   4.734  0.00  0.00    +0.201 A 
ATOM     15  C   UNL     1      -2.188   6.043   4.162  0.00  0.00    +0.165 A 
ATOM     16  C   UNL     1      -2.395   4.759   4.643  0.00  0.00    +0.055 A 
BRANCH  15  17
ATOM     17  O   UNL     1      -2.940   6.513   3.131  0.00  0.00    -0.491 OA
ATOM     18  C   UNL     1      -3.998   5.674   2.664  0.00  0.00    +0.277 C 
ENDBRANCH  15  17
BRANCH  14  19
ATOM     19  O   UNL     1      -1.004   8.109   4.265  0.00  0.00    -0.501 OA
ATOM     20  H   UNL     1      -1.538   8.784   4.705  0.00  0.00    +0.292 HD
ENDBRANCH  14  19
BRANCH  13  21
ATOM     21  O   UNL     1       0.513   7.146   6.351  0.00  0.00    -0.491 OA
ATOM     22  C   UNL     1       1.262   6.582   7.429  0.00  0.00    +0.277 C 
ENDBRANCH  13  21
ENDBRANCH   7  11
BRANCH   1  23
ATOM     23  C   UNL     1      -0.371   1.874   4.401  0.00  0.00    +0.339 C 
ATOM     24  O   UNL     1       0.653   1.304   4.076  0.00  0.00    -0.245 OA
BRANCH  23  25
ATOM     25  O   UNL     1      -1.200   2.364   3.456  0.00  0.00    -0.461 OA
BRANCH  25  26
ATOM     26  C   UNL     1      -0.872   2.078   2.095  0.00  0.00    +0.232 C 
BRANCH  26  27
ATOM     27  C   UNL     1      -1.850   2.808   1.171  0.00  0.00    +0.041 C 
BRANCH  27  28
ATOM     28  C   UNL     1      -1.426   2.601  -0.285  0.00  0.00    +0.003 C 
BRANCH  28  29
ATOM     29  C   UNL     1      -2.404   3.330  -1.209  0.00  0.00    -0.000 C 
BRANCH  29  31
ATOM     30  C   UNL     1      -2.958   3.853  -3.589  0.00  0.00    +0.004 C 
ATOM     31  C   UNL     1      -1.980   3.124  -2.665  0.00  0.00    -0.003 C 
ENDBRANCH  29  31
ENDBRANCH  28  29
ENDBRANCH  27  28
ENDBRANCH  26  27
ENDBRANCH  25  26
ENDBRANCH  23  25
ENDBRANCH   1  23
TORSDOF 11
