REMARK  Name = ZINC36789868
REMARK  10 active torsions:
REMARK  status: ('A' for Active; 'I' for Inactive)
REMARK    1  A    between atoms: C_1  and  C_2
REMARK    2  A    between atoms: C_2  and  C_3
REMARK    3  A    between atoms: C_3  and  C_4
REMARK    4  A    between atoms: C_4  and  C_6
REMARK    5  A    between atoms: C_4  and  N_7
REMARK    6  A    between atoms: N_7  and  C_8
REMARK    7  A    between atoms: N_7  and  C_9
REMARK    8  A    between atoms: C_9  and  C_10
REMARK    9  A    between atoms: N_12  and  C_13
REMARK   10  A    between atoms: C_16  and  N_20
REMARK                            x       y       z     vdW  Elec       q    Type
REMARK                         _______ _______ _______ _____ _____    ______ ____
ROOT
ATOM      1  C   UNL     1       1.173  -3.206  -2.707  0.00  0.00    +0.201 C 
ATOM      2  O   UNL     1       0.583  -4.071  -3.319  0.00  0.00    -0.278 OA
ATOM      3  N   UNL     1       2.270  -2.632  -3.239  0.00  0.00    -0.285 N 
ATOM      4  H   UNL     1       2.768  -1.974  -2.730  0.00  0.00    +0.155 HD
ENDROOT
BRANCH   3   5
ATOM      5  C   UNL     1       2.690  -2.986  -4.529  0.00  0.00    +0.070 A 
ATOM      6  C   UNL     1       1.760  -3.113  -5.553  0.00  0.00    +0.065 A 
ATOM      7  C   UNL     1       2.175  -3.462  -6.824  0.00  0.00    +0.044 A 
ATOM      8  C   UNL     1       3.522  -3.686  -7.078  0.00  0.00    +0.027 A 
ATOM      9  C   UNL     1       4.452  -3.560  -6.055  0.00  0.00    +0.044 A 
ATOM     10  C   UNL     1       4.038  -3.205  -4.785  0.00  0.00    +0.065 A 
ATOM     11 CL   UNL     1       5.202  -3.040  -3.507  0.00  0.00    -0.082 Cl
ATOM     12 CL   UNL     1       0.076  -2.833  -5.236  0.00  0.00    -0.082 Cl
BRANCH   8  13
ATOM     13  N   UNL     1       3.941  -4.039  -8.365  0.00  0.00    -0.358 N 
ATOM     14  H   UNL     1       3.292  -4.127  -9.080  0.00  0.00    +0.142 HD
ATOM     15  H   UNL     1       4.882  -4.196  -8.543  0.00  0.00    +0.142 HD
ENDBRANCH   8  13
ENDBRANCH   3   5
BRANCH   1  16
ATOM     16  C   UNL     1       0.678  -2.773  -1.351  0.00  0.00    +0.019 C 
BRANCH  16  17
ATOM     17  N   UNL     1      -0.522  -3.543  -0.998  0.00  0.00    +0.385 N 
ATOM     18  C   UNL     1      -0.163  -4.957  -0.823  0.00  0.00    -0.095 C 
ATOM     19  H   UNL     1      -1.205  -3.459  -1.736  0.00  0.00    -0.081 HD
BRANCH  17  20
ATOM     20  C   UNL     1      -1.087  -3.023   0.254  0.00  0.00    -0.071 C 
ATOM     21  C   UNL     1      -0.107  -3.279   1.401  0.00  0.00    -0.013 C 
BRANCH  20  22
ATOM     22  C   UNL     1      -2.412  -3.729   0.548  0.00  0.00    -0.016 C 
BRANCH  22  24
ATOM     23  C   UNL     1      -4.729  -4.147  -0.288  0.00  0.00    +0.004 C 
ATOM     24  C   UNL     1      -3.424  -3.393  -0.549  0.00  0.00    -0.005 C 
ENDBRANCH  22  24
ENDBRANCH  20  22
ENDBRANCH  17  20
ENDBRANCH  16  17
ENDBRANCH   1  16
TORSDOF 7
