REMARK  Name = ZINC31434583
REMARK  7 active torsions:
REMARK  status: ('A' for Active; 'I' for Inactive)
REMARK    1  A    between atoms: C_1  and  C_2
REMARK    2  A    between atoms: C_2  and  C_3
REMARK    3  A    between atoms: C_2  and  C_4
REMARK    4  A    between atoms: C_4  and  N_5
REMARK    5  A    between atoms: C_9  and  N_10
REMARK    6  A    between atoms: N_10  and  C_11
REMARK    7  A    between atoms: C_14  and  N_17
REMARK                            x       y       z     vdW  Elec       q    Type
REMARK                         _______ _______ _______ _____ _____    ______ ____
ROOT
ATOM      1  N   UNL     1      -2.101  -0.146  -1.234  0.00  0.00    -0.249 N 
ATOM      2  C   UNL     1      -2.756   1.031  -1.290  0.00  0.00    +0.258 C 
ATOM      3  O   UNL     1      -2.781   1.779  -0.331  0.00  0.00    -0.269 OA
ATOM      4  C   UNL     1      -3.440   1.388  -2.546  0.00  0.00    +0.113 C 
ATOM      5  C   UNL     1      -4.132   2.578  -2.678  0.00  0.00    +0.090 C 
ATOM      6  C   UNL     1      -3.355   0.421  -3.655  0.00  0.00    +0.256 C 
ATOM      7  O   UNL     1      -3.894   0.645  -4.723  0.00  0.00    -0.270 OA
ATOM      8  N   UNL     1      -2.663  -0.720  -3.454  0.00  0.00    -0.263 N 
ATOM      9  C   UNL     1      -2.060  -0.977  -2.285  0.00  0.00    +0.146 C 
ATOM     10  S   UNL     1      -1.198  -2.447  -2.124  0.00  0.00    -0.018 S 
ATOM     11  H   UNL     1      -2.597  -1.367  -4.174  0.00  0.00    +0.157 HD
ENDROOT
BRANCH   5  12
ATOM     12  N   UNL     1      -4.298   3.384  -1.609  0.00  0.00    -0.320 N 
ATOM     13  H   UNL     1      -3.868   3.167  -0.767  0.00  0.00    +0.152 HD
BRANCH  12  14
ATOM     14  C   UNL     1      -5.091   4.532  -1.715  0.00  0.00    +0.031 A 
ATOM     15  C   UNL     1      -5.711   4.839  -2.919  0.00  0.00    +0.025 A 
ATOM     16  C   UNL     1      -6.494   5.972  -3.023  0.00  0.00    +0.025 A 
ATOM     17  C   UNL     1      -6.660   6.804  -1.924  0.00  0.00    +0.030 A 
ATOM     18  C   UNL     1      -6.039   6.497  -0.720  0.00  0.00    +0.025 A 
ATOM     19  C   UNL     1      -5.261   5.362  -0.614  0.00  0.00    +0.025 A 
BRANCH  17  20
ATOM     20  N   UNL     1      -7.452   7.952  -2.030  0.00  0.00    -0.330 N 
ATOM     21  C   UNL     1      -8.168   8.391  -3.237  0.00  0.00    +0.105 C 
ATOM     22  C   UNL     1      -8.883   9.714  -2.890  0.00  0.00    +0.020 C 
ATOM     23  C   UNL     1      -8.070  10.240  -1.678  0.00  0.00    +0.020 C 
ATOM     24  C   UNL     1      -7.713   8.919  -0.948  0.00  0.00    +0.105 C 
ENDBRANCH  17  20
ENDBRANCH  12  14
ENDBRANCH   5  12
BRANCH   1  25
ATOM     25  C   UNL     1      -1.412  -0.524   0.003  0.00  0.00    +0.118 C 
BRANCH  25  27
ATOM     26  C   UNL     1       0.015   1.527  -0.042  0.00  0.00    +0.009 C 
ATOM     27  C   UNL     1       0.026  -0.003  -0.035  0.00  0.00    +0.001 C 
ATOM     28  C   UNL     1       0.782  -0.502   1.198  0.00  0.00    +0.009 C 
ENDBRANCH  25  27
ENDBRANCH   1  25
TORSDOF 5
