REMARK  Name = ZINC28198877
REMARK  4 active torsions:
REMARK  status: ('A' for Active; 'I' for Inactive)
REMARK    1  A    between atoms: C_1  and  C_2
REMARK    2  A    between atoms: C_7  and  C_8
REMARK    3  A    between atoms: N_10  and  N_11
REMARK    4  A    between atoms: C_12  and  C_14
REMARK                            x       y       z     vdW  Elec       q    Type
REMARK                         _______ _______ _______ _____ _____    ______ ____
ROOT
ATOM      1  C   UNL     1      -7.281   1.168   2.100  0.00  0.00    +0.277 C 
ATOM      2  O   UNL     1      -6.884   1.868   3.012  0.00  0.00    -0.267 OA
ATOM      3  N   UNL     1      -6.457   0.859   1.079  0.00  0.00    -0.229 N 
ATOM      4  H   UNL     1      -6.816   0.226   0.254  0.00  0.00    +0.173 HD
ENDROOT
BRANCH   1  11
ATOM      5  C   UNL     1      -9.398   1.712   4.334  0.00  0.00    +0.047 C 
ATOM      6  C   UNL     1      -9.590   0.894   3.084  0.00  0.00    -0.010 A 
ATOM      7  C   UNL     1     -10.757   0.227   2.691  0.00  0.00    +0.042 A 
ATOM      8  C   UNL     1     -10.493  -0.410   1.479  0.00  0.00    +0.027 A 
ATOM      9  N   UNL     1      -9.232  -0.141   1.140  0.00  0.00    -0.354 N 
ATOM     10  H   UNL     1      -8.814  -0.548   0.207  0.00  0.00    +0.166 HD
ATOM     11  C   UNL     1      -8.659   0.659   2.110  0.00  0.00    +0.107 A 
ATOM     12  C   UNL     1     -11.519  -1.241   0.751  0.00  0.00    +0.054 C 
ATOM     13  C   UNL     1     -12.608  -1.675   1.736  0.00  0.00    +0.014 C 
ATOM     14  C   UNL     1     -13.177  -0.465   2.482  0.00  0.00    +0.080 C 
ATOM     15  C   UNL     1     -12.073   0.133   3.342  0.00  0.00    +0.165 C 
ATOM     16  O   UNL     1     -12.264   0.505   4.481  0.00  0.00    -0.292 OA
ENDBRANCH   1  11
BRANCH   3  17
ATOM     17  N   UNL     1      -5.143   1.344   1.069  0.00  0.00    -0.234 N 
ATOM     18  C   UNL     1      -4.318   1.035   0.049  0.00  0.00    +0.235 C 
ATOM     19  O   UNL     1      -4.714   0.337  -0.861  0.00  0.00    -0.274 OA
ATOM     20  H   UNL     1      -4.784   1.976   1.894  0.00  0.00    +0.173 HD
BRANCH  18  21
ATOM     21  C   UNL     1      -2.904   1.556   0.038  0.00  0.00    +0.049 C 
ATOM     22  C   UNL     1      -2.188   1.063  -1.221  0.00  0.00    +0.019 C 
ATOM     23  C   UNL     1      -0.753   1.593  -1.232  0.00  0.00    -0.009 C 
ATOM     24  C   UNL     1      -0.013   1.086   0.008  0.00  0.00    +0.007 C 
ATOM     25  C   UNL     1      -0.729   1.579   1.267  0.00  0.00    -0.009 C 
ATOM     26  C   UNL     1      -2.164   1.050   1.278  0.00  0.00    +0.019 C 
ATOM     27  C   UNL     1      -0.750   3.109   1.275  0.00  0.00    +0.007 C 
ATOM     28  C   UNL     1      -1.490   3.616   0.036  0.00  0.00    -0.009 C 
ATOM     29  C   UNL     1      -0.773   3.123  -1.223  0.00  0.00    +0.007 C 
ATOM     30  C   UNL     1      -2.925   3.086   0.047  0.00  0.00    +0.019 C 
ENDBRANCH  18  21
ENDBRANCH   3  17
TORSDOF 3
