REMARK  Name = ZINC28428960
REMARK  3 active torsions:
REMARK  status: ('A' for Active; 'I' for Inactive)
REMARK    1  A    between atoms: C_1  and  C_2
REMARK    2  A    between atoms: C_2  and  C_3
REMARK    3  A    between atoms: C_6  and  C_9
REMARK                            x       y       z     vdW  Elec       q    Type
REMARK                         _______ _______ _______ _____ _____    ______ ____
ROOT
ATOM      1  C   UNL     1       0.059  -4.275  -0.021  0.00  0.00    +0.123 C 
ATOM      2  C   UNL     1      -1.316  -4.796  -0.285  0.00  0.00    +0.036 A 
ATOM      3  C   UNL     1      -1.667  -5.770  -1.138  0.00  0.00    +0.058 A 
ATOM      4  N   UNL     1      -3.009  -6.103  -1.233  0.00  0.00    -0.210 N 
ATOM      5  C   UNL     1      -3.897  -5.427  -0.458  0.00  0.00    +0.196 A 
ATOM      6  S   UNL     1      -2.857  -4.293   0.434  0.00  0.00    -0.051 S 
ATOM      7  N   UNL     1      -5.103  -5.873  -0.679  0.00  0.00    -0.208 NA
ATOM      8  C   UNL     1      -5.052  -6.840  -1.593  0.00  0.00    +0.246 A 
ATOM      9  N   UNL     1      -3.811  -7.019  -1.961  0.00  0.00    -0.153 NA
ATOM     10  C   UNL     1      -0.589  -6.470  -1.963  0.00  0.00    +0.071 C 
ATOM     11  C   UNL     1       0.767  -6.199  -1.309  0.00  0.00    +0.088 C 
ATOM     12  N   UNL     1       0.948  -4.755  -1.097  0.00  0.00    -0.305 NA
ATOM     13  H   UNL     1       0.712  -4.225  -2.031  0.00  0.00    +0.123 HD
ENDROOT
BRANCH   1  17
ATOM     14  C   UNL     1       0.002  -0.004   0.002  0.00  0.00    -0.048 A 
ATOM     15  C   UNL     1      -0.006  -0.689  -1.199  0.00  0.00    +0.004 A 
ATOM     16  C   UNL     1       0.018  -2.071  -1.206  0.00  0.00    +0.006 A 
ATOM     17  C   UNL     1       0.039  -2.768  -0.013  0.00  0.00    -0.026 A 
ATOM     18  C   UNL     1       0.041  -2.084   1.188  0.00  0.00    +0.006 A 
ATOM     19  C   UNL     1       0.023  -0.702   1.195  0.00  0.00    +0.004 A 
BRANCH  14  21
ATOM     20  C   UNL     1       1.417   2.032  -0.001  0.00  0.00    +0.009 C 
ATOM     21  C   UNL     1      -0.018   1.503   0.010  0.00  0.00    +0.032 C 
ENDBRANCH  14  21
ENDBRANCH   1  17
TORSDOF 2
