REMARK  Name = ZINC28059058
REMARK  8 active torsions:
REMARK  status: ('A' for Active; 'I' for Inactive)
REMARK    1  A    between atoms: C_1  and  C_2
REMARK    2  A    between atoms: C_2  and  C_3
REMARK    3  A    between atoms: C_6  and  C_9
REMARK    4  A    between atoms: C_26  and  C_28
REMARK    5  A    between atoms: C_30  and  O_36
REMARK    6  A    between atoms: C_33  and  O_34
REMARK    7  A    between atoms: O_34  and  C_35
REMARK    8  A    between atoms: O_36  and  C_37
REMARK                            x       y       z     vdW  Elec       q    Type
REMARK                         _______ _______ _______ _____ _____    ______ ____
ROOT
ATOM      1  C   UNL     1       0.720   5.452  -0.626  0.00  0.00    +0.234 C 
ATOM      2  C   UNL     1       0.377   4.019  -0.287  0.00  0.00    +0.026 C 
ATOM      3  C   UNL     1      -0.904   3.648  -0.256  0.00  0.00    +0.050 C 
ATOM      4  C   UNL     1      -1.943   4.671  -0.523  0.00  0.00    +0.038 A 
ATOM      5  C   UNL     1      -3.249   4.316  -0.833  0.00  0.00    +0.013 A 
ATOM      6  C   UNL     1      -4.186   5.303  -1.070  0.00  0.00    +0.001 A 
ATOM      7  C   UNL     1      -3.826   6.638  -1.000  0.00  0.00    +0.004 A 
ATOM      8  C   UNL     1      -2.527   7.000  -0.693  0.00  0.00    +0.046 A 
ATOM      9  C   UNL     1      -1.580   6.022  -0.454  0.00  0.00    +0.131 A 
ATOM     10  O   UNL     1      -0.294   6.337  -0.151  0.00  0.00    -0.479 OA
ATOM     11  N   UNL     1      -1.294   2.330   0.013  0.00  0.00    -0.282 N 
ATOM     12  C   UNL     1      -0.308   1.358  -0.009  0.00  0.00    +0.240 A 
ATOM     13  N   UNL     1      -0.385   0.058  -0.024  0.00  0.00    -0.092 NA
ATOM     14  N   UNL     1       0.797  -0.458  -0.053  0.00  0.00    -0.021 NA
ATOM     15  N   UNL     1       1.695   0.473  -0.057  0.00  0.00    -0.042 NA
ATOM     16  N   UNL     1       1.010   1.687  -0.026  0.00  0.00    -0.201 N 
ATOM     17  C   UNL     1       1.505   3.056  -0.008  0.00  0.00    +0.178 C 
ATOM     18  H   UNL     1      -2.348   2.103   0.231  0.00  0.00    +0.155 HD
ENDROOT
BRANCH   1  22
ATOM     19  C   UNL     1       1.067   5.854  -4.864  0.00  0.00    -0.048 A 
ATOM     20  C   UNL     1      -0.181   5.759  -4.279  0.00  0.00    +0.004 A 
ATOM     21  C   UNL     1      -0.294   5.629  -2.907  0.00  0.00    +0.008 A 
ATOM     22  C   UNL     1       0.843   5.594  -2.121  0.00  0.00    -0.003 A 
ATOM     23  C   UNL     1       2.091   5.694  -2.706  0.00  0.00    +0.008 A 
ATOM     24  C   UNL     1       2.204   5.819  -4.078  0.00  0.00    +0.004 A 
BRANCH  19  26
ATOM     25  C   UNL     1       1.184   7.479  -6.734  0.00  0.00    +0.009 C 
ATOM     26  C   UNL     1       1.190   5.995  -6.359  0.00  0.00    +0.032 C 
ENDBRANCH  19  26
ENDBRANCH   1  22
BRANCH  17  27
ATOM     27  C   UNL     1       2.095   3.356   1.346  0.00  0.00    +0.026 A 
ATOM     28  C   UNL     1       1.306   3.275   2.477  0.00  0.00    +0.055 A 
ATOM     29  C   UNL     1       1.850   3.548   3.723  0.00  0.00    +0.121 A 
ATOM     30  C   UNL     1       3.185   3.910   3.832  0.00  0.00    +0.049 A 
ATOM     31  C   UNL     1       3.972   3.996   2.701  0.00  0.00    +0.049 A 
ATOM     32  C   UNL     1       3.429   3.719   1.455  0.00  0.00    +0.126 A 
BRANCH  32  33
ATOM     33  O   UNL     1       4.204   3.804   0.341  0.00  0.00    -0.495 OA
ATOM     34  C   UNL     1       5.569   4.184   0.528  0.00  0.00    +0.277 C 
ENDBRANCH  32  33
BRANCH  29  35
ATOM     35  O   UNL     1       1.075   3.463   4.837  0.00  0.00    -0.495 OA
ATOM     36  C   UNL     1       1.700   3.762   6.087  0.00  0.00    +0.277 C 
ENDBRANCH  29  35
ENDBRANCH  17  27
TORSDOF 5
