REMARK  Name = ZINC66347797
REMARK  10 active torsions:
REMARK  status: ('A' for Active; 'I' for Inactive)
REMARK    1  A    between atoms: C_1  and  C_2
REMARK    2  A    between atoms: C_2  and  C_3
REMARK    3  A    between atoms: C_3  and  C_4
REMARK    4  A    between atoms: C_4  and  N_5
REMARK    5  A    between atoms: N_5  and  C_6
REMARK    6  A    between atoms: C_6  and  C_7
REMARK    7  A    between atoms: C_7  and  O_8
REMARK    8  A    between atoms: N_11  and  C_12
REMARK    9  A    between atoms: C_12  and  C_14
REMARK   10  A    between atoms: C_12  and  C_21
REMARK                            x       y       z     vdW  Elec       q    Type
REMARK                         _______ _______ _______ _____ _____    ______ ____
ROOT
ATOM      1  N   UNL     1       1.425  -2.500  -2.470  0.00  0.00    -0.283 N 
ATOM      2  C   UNL     1       0.724  -2.728  -3.599  0.00  0.00    +0.303 C 
ATOM      3  O   UNL     1      -0.477  -2.541  -3.617  0.00  0.00    -0.253 OA
ATOM      4  N   UNL     1       1.355  -3.162  -4.708  0.00  0.00    -0.288 N 
ATOM      5  H   UNL     1       2.313  -3.311  -4.694  0.00  0.00    +0.151 HD
ENDROOT
BRANCH   1   6
ATOM      6  C   UNL     1       0.739  -2.027  -1.265  0.00  0.00    +0.109 C 
BRANCH   6   7
ATOM      7  C   UNL     1       0.718  -0.497  -1.257  0.00  0.00    +0.019 C 
BRANCH   7   9
ATOM      8  C   UNL     1      -0.019   1.526   0.010  0.00  0.00    +0.004 C 
ATOM      9  C   UNL     1       0.002  -0.004   0.002  0.00  0.00    -0.002 C 
ENDBRANCH   7   9
ENDBRANCH   6   7
ENDBRANCH   1   6
BRANCH   1  10
ATOM     10  C   UNL     1       2.872  -2.724  -2.449  0.00  0.00    +0.137 C 
BRANCH  10  11
ATOM     11  C   UNL     1       3.158  -4.168  -2.031  0.00  0.00    +0.175 C 
BRANCH  11  12
ATOM     12  O   UNL     1       2.651  -5.061  -3.024  0.00  0.00    -0.393 OA
ATOM     13  H   UNL     1       2.798  -5.996  -2.824  0.00  0.00    +0.209 HD
ENDBRANCH  11  12
ENDBRANCH  10  11
ENDBRANCH   1  10
BRANCH   4  14
ATOM     14  C   UNL     1       0.593  -3.410  -5.934  0.00  0.00    +0.136 C 
BRANCH  14  15
ATOM     15  C   UNL     1       1.505  -3.280  -7.127  0.00  0.00    -0.023 A 
ATOM     16  C   UNL     1       2.792  -3.783  -7.071  0.00  0.00    +0.007 A 
ATOM     17  C   UNL     1       3.628  -3.665  -8.164  0.00  0.00    +0.020 A 
ATOM     18  C   UNL     1       3.179  -3.043  -9.315  0.00  0.00    +0.041 A 
ATOM     19  C   UNL     1       1.891  -2.540  -9.371  0.00  0.00    +0.020 A 
ATOM     20  C   UNL     1       1.053  -2.664  -8.279  0.00  0.00    +0.007 A 
ATOM     21 CL   UNL     1       4.229  -2.893 -10.689  0.00  0.00    -0.084 Cl
ENDBRANCH  14  15
BRANCH  14  22
ATOM     22  C   UNL     1       0.014  -4.801  -5.894  0.00  0.00    -0.016 A 
ATOM     23  C   UNL     1      -1.264  -5.042  -6.362  0.00  0.00    +0.013 A 
ATOM     24  C   UNL     1      -1.755  -6.305  -6.311  0.00  0.00    +0.045 A 
ATOM     25  S   UNL     1      -0.393  -7.202  -5.584  0.00  0.00    -0.105 S 
ATOM     26  C   UNL     1       0.740  -5.835  -5.403  0.00  0.00    +0.051 A 
ENDBRANCH  14  22
ENDBRANCH   4  14
TORSDOF 9
