REMARK  Name = ZINC46801548
REMARK  9 active torsions:
REMARK  status: ('A' for Active; 'I' for Inactive)
REMARK    1  A    between atoms: C_1  and  C_2
REMARK    2  A    between atoms: C_2  and  C_3
REMARK    3  A    between atoms: C_2  and  C_4
REMARK    4  A    between atoms: C_2  and  C_5
REMARK    5  A    between atoms: C_11  and  N_13
REMARK    6  A    between atoms: N_13  and  S_14
REMARK    7  A    between atoms: S_14  and  C_17
REMARK    8  A    between atoms: C_20  and  S_23
REMARK    9  A    between atoms: S_23  and  N_26
REMARK                            x       y       z     vdW  Elec       q    Type
REMARK                         _______ _______ _______ _____ _____    ______ ____
ROOT
ATOM      1  S   UNL     1       4.014  -0.602   0.366  0.00  0.00    +0.059 S 
ATOM      2  O   UNL     1       4.365  -1.378   1.504  0.00  0.00    -0.153 OA
ATOM      3  O   UNL     1       4.887  -0.438  -0.743  0.00  0.00    -0.153 OA
ENDROOT
BRANCH   1   4
ATOM      4  C   UNL     1       3.638   1.015   0.956  0.00  0.00    +0.105 A 
ATOM      5  C   UNL     1       3.736   2.101   0.106  0.00  0.00    +0.030 A 
ATOM      6  C   UNL     1       3.441   3.369   0.568  0.00  0.00    +0.030 A 
ATOM      7  C   UNL     1       3.048   3.553   1.881  0.00  0.00    +0.105 A 
ATOM      8  C   UNL     1       2.949   2.467   2.731  0.00  0.00    +0.030 A 
ATOM      9  C   UNL     1       3.240   1.197   2.267  0.00  0.00    +0.030 A 
BRANCH   7  10
ATOM     10  S   UNL     1       2.673   5.170   2.471  0.00  0.00    +0.056 S 
ATOM     11  O   UNL     1       2.857   5.141   3.880  0.00  0.00    -0.153 OA
ATOM     12  O   UNL     1       3.369   6.080   1.630  0.00  0.00    -0.153 OA
BRANCH  10  13
ATOM     13  N   UNL     1       1.058   5.425   2.210  0.00  0.00    -0.204 NA
ATOM     14  H   UNL     1       0.518   4.732   1.798  0.00  0.00    +0.144 HD
ATOM     15  H   UNL     1       0.651   6.266   2.469  0.00  0.00    +0.144 HD
ENDBRANCH  10  13
ENDBRANCH   7  10
ENDBRANCH   1   4
BRANCH   1  16
ATOM     16  N   UNL     1       2.609  -1.245  -0.229  0.00  0.00    -0.187 NA
ATOM     17  H   UNL     1       2.210  -2.019   0.198  0.00  0.00    +0.148 HD
BRANCH  16  23
ATOM     18  C   UNL     1       0.447  -0.747  -1.259  0.00  0.00    +0.013 C 
ATOM     19  C   UNL     1       0.043  -2.219  -1.154  0.00  0.00    +0.005 C 
ATOM     20  C   UNL     1       0.488  -2.961  -2.416  0.00  0.00    +0.000 C 
ATOM     21  C   UNL     1       2.008  -2.859  -2.558  0.00  0.00    +0.002 C 
ATOM     22  C   UNL     1       2.413  -1.387  -2.663  0.00  0.00    +0.020 C 
ATOM     23  C   UNL     1       1.967  -0.645  -1.401  0.00  0.00    +0.080 C 
BRANCH  18  25
ATOM     24  C   UNL     1       0.527   1.432  -0.040  0.00  0.00    +0.011 C 
ATOM     25  C   UNL     1       0.002  -0.004   0.002  0.00  0.00    -0.033 C 
ATOM     26  C   UNL     1       0.560  -0.715   1.236  0.00  0.00    +0.011 C 
ATOM     27  C   UNL     1      -1.526   0.013   0.071  0.00  0.00    +0.011 C 
ENDBRANCH  18  25
ENDBRANCH  16  23
ENDBRANCH   1  16
TORSDOF 6
