REMARK  Name = ZINC39710760
REMARK  10 active torsions:
REMARK  status: ('A' for Active; 'I' for Inactive)
REMARK    1  A    between atoms: C_1  and  C_2
REMARK    2  A    between atoms: C_7  and  C_15
REMARK    3  A    between atoms: C_13  and  C_14
REMARK    4  A    between atoms: C_15  and  C_17
REMARK    5  A    between atoms: C_15  and  N_27
REMARK    6  A    between atoms: N_22  and  C_23
REMARK    7  A    between atoms: C_23  and  C_24
REMARK    8  A    between atoms: C_23  and  C_25
REMARK    9  A    between atoms: C_23  and  C_26
REMARK   10  A    between atoms: N_30  and  C_33
REMARK                            x       y       z     vdW  Elec       q    Type
REMARK                         _______ _______ _______ _____ _____    ______ ____
ROOT
ATOM      1  C   UNL     1      -1.147  -5.718   1.336  0.00  0.00    -0.009 C 
ENDROOT
BRANCH   1   8
ATOM      2  C   UNL     1      -0.145   1.186  -1.410  0.00  0.00    +0.044 C 
ATOM      3  C   UNL     1      -0.133  -0.297  -1.143  0.00  0.00    -0.046 A 
ATOM      4  C   UNL     1      -0.278  -1.173  -2.219  0.00  0.00    +0.004 A 
ATOM      5  C   UNL     1      -0.275  -2.519  -2.041  0.00  0.00    +0.010 A 
ATOM      6  C   UNL     1      -0.115  -3.051  -0.688  0.00  0.00    -0.007 A 
ATOM      7  C   UNL     1      -0.106  -4.396  -0.461  0.00  0.00    -0.006 C 
ATOM      8  C   UNL     1       0.065  -4.858   0.973  0.00  0.00    +0.088 C 
ATOM      9  C   UNL     1       0.211  -3.791   2.034  0.00  0.00    +0.223 C 
ATOM     10  O   UNL     1       0.351  -4.105   3.201  0.00  0.00    -0.275 OA
ATOM     11  N   UNL     1       0.186  -2.514   1.689  0.00  0.00    -0.284 N 
ATOM     12  C   UNL     1       0.036  -2.104   0.430  0.00  0.00    +0.043 A 
ATOM     13  C   UNL     1       0.024  -0.728   0.136  0.00  0.00    -0.026 A 
ATOM     14  C   UNL     1       0.180   0.276   1.249  0.00  0.00    +0.046 C 
ATOM     15  H   UNL     1       0.281  -1.846   2.385  0.00  0.00    +0.155 HD
ENDBRANCH   1   8
BRANCH   1  16
ATOM     16  N   UNL     1      -0.950  -6.303   2.670  0.00  0.00    +0.387 N 
ATOM     17  C   UNL     1       0.360  -6.964   2.724  0.00  0.00    -0.059 C 
ATOM     18  C   UNL     1       0.615  -7.474   4.146  0.00  0.00    +0.086 C 
ATOM     19  N   UNL     1      -0.514  -8.329   4.544  0.00  0.00    -0.331 N 
ATOM     20  C   UNL     1      -1.877  -7.805   4.368  0.00  0.00    +0.086 C 
ATOM     21  C   UNL     1      -2.014  -7.279   2.936  0.00  0.00    -0.059 C 
ATOM     22  H   UNL     1      -0.984  -5.572   3.364  0.00  0.00    -0.081 HD
BRANCH  19  23
ATOM     23  C   UNL     1      -0.297  -9.606   5.073  0.00  0.00    +0.065 A 
ATOM     24  C   UNL     1      -0.158  -9.776   6.444  0.00  0.00    +0.026 A 
ATOM     25  C   UNL     1       0.056 -11.037   6.964  0.00  0.00    +0.002 A 
ATOM     26  C   UNL     1       0.131 -12.132   6.122  0.00  0.00    +0.003 A 
ATOM     27  C   UNL     1      -0.006 -11.967   4.756  0.00  0.00    +0.040 A 
ATOM     28  C   UNL     1      -0.226 -10.708   4.228  0.00  0.00    +0.144 A 
ATOM     29  F   UNL     1      -0.367 -10.548   2.894  0.00  0.00    -0.204 F 
ENDBRANCH  19  23
ENDBRANCH   1  16
BRANCH   1  30
ATOM     30  C   UNL     1      -2.406  -4.849   1.341  0.00  0.00    +0.205 C 
ATOM     31  N   UNL     1      -2.407  -3.955   2.507  0.00  0.00    -0.152 NA
ATOM     32  N   UNL     1      -3.390  -4.211   3.206  0.00  0.00    -0.070 NA
ATOM     33  N   UNL     1      -4.171  -5.242   2.685  0.00  0.00    -0.179 N 
ATOM     34  N   UNL     1      -3.611  -5.688   1.513  0.00  0.00    -0.183 NA
ATOM     35  H   UNL     1      -4.983  -5.590   3.087  0.00  0.00    +0.191 HD
BRANCH  34  36
ATOM     36  C   UNL     1      -4.537  -5.516   0.386  0.00  0.00    +0.035 C 
ATOM     37  C   UNL     1      -3.828  -5.890  -0.918  0.00  0.00    +0.029 C 
ATOM     38  C   UNL     1      -5.753  -6.423   0.583  0.00  0.00    +0.029 C 
ATOM     39  C   UNL     1      -4.994  -4.058   0.318  0.00  0.00    +0.029 C 
ENDBRANCH  34  36
ENDBRANCH   1  30
TORSDOF 5
