REMARK  Name = ZINC13688882
REMARK  7 active torsions:
REMARK  status: ('A' for Active; 'I' for Inactive)
REMARK    1  A    between atoms: C_1  and  C_2
REMARK    2  A    between atoms: C_2  and  O_3
REMARK    3  A    between atoms: O_3  and  C_4
REMARK    4  A    between atoms: C_6  and  C_11
REMARK    5  A    between atoms: C_9  and  O_10
REMARK    6  A    between atoms: C_16  and  N_18
REMARK    7  A    between atoms: N_18  and  C_19
REMARK                            x       y       z     vdW  Elec       q    Type
REMARK                         _______ _______ _______ _____ _____    ______ ____
ROOT
ATOM      1  C   UNL     1      -0.298  -4.954   0.378  0.00  0.00    +0.028 C 
ATOM      2  C   UNL     1      -0.249  -6.296   0.183  0.00  0.00    +0.079 C 
ATOM      3  C   UNL     1      -0.782  -7.397   1.019  0.00  0.00    +0.276 C 
ATOM      4  O   UNL     1      -1.373  -7.183   2.065  0.00  0.00    -0.267 OA
ATOM      5  N   UNL     1      -0.582  -8.618   0.572  0.00  0.00    -0.152 NA
ATOM      6  C   UNL     1       0.057  -8.864  -0.560  0.00  0.00    +0.175 C 
ATOM      7  S   UNL     1       0.469  -7.233  -1.161  0.00  0.00    -0.050 S 
ENDROOT
BRANCH   1  10
ATOM      8  C   UNL     1       1.034  -1.831  -1.213  0.00  0.00    +0.162 A 
ATOM      9  C   UNL     1       0.310  -2.669  -0.389  0.00  0.00    +0.057 A 
ATOM     10  C   UNL     1       0.468  -4.057  -0.495  0.00  0.00    -0.020 A 
ATOM     11  C   UNL     1       1.360  -4.585  -1.436  0.00  0.00    +0.012 A 
ATOM     12  C   UNL     1       2.078  -3.741  -2.254  0.00  0.00    +0.050 A 
ATOM     13  C   UNL     1       1.916  -2.365  -2.151  0.00  0.00    +0.158 A 
BRANCH  13  14
ATOM     14  O   UNL     1       2.623  -1.538  -2.965  0.00  0.00    -0.503 OA
ATOM     15  H   UNL     1       3.479  -1.269  -2.604  0.00  0.00    +0.292 HD
ENDBRANCH  13  14
BRANCH   8  16
ATOM     16  O   UNL     1       0.883  -0.483  -1.113  0.00  0.00    -0.489 OA
BRANCH  16  18
ATOM     17  C   UNL     1      -0.073   1.525  -0.166  0.00  0.00    +0.048 C 
ATOM     18  C   UNL     1      -0.038  -0.004  -0.130  0.00  0.00    +0.226 C 
ENDBRANCH  16  18
ENDBRANCH   8  16
ENDBRANCH   1  10
BRANCH   6  19
ATOM     19  N   UNL     1       0.331 -10.077  -1.136  0.00  0.00    -0.190 NA
BRANCH  19  20
ATOM     20  C   UNL     1      -0.225 -11.245  -0.605  0.00  0.00    +0.075 A 
ATOM     21  C   UNL     1      -1.400 -11.183   0.133  0.00  0.00    +0.027 A 
ATOM     22  C   UNL     1      -1.947 -12.338   0.657  0.00  0.00    +0.003 A 
ATOM     23  C   UNL     1      -1.326 -13.556   0.449  0.00  0.00    +0.021 A 
ATOM     24  C   UNL     1      -0.155 -13.623  -0.285  0.00  0.00    +0.061 A 
ATOM     25  C   UNL     1       0.395 -12.471  -0.819  0.00  0.00    +0.082 A 
ATOM     26 CL   UNL     1       1.859 -12.555  -1.746  0.00  0.00    -0.080 Cl
ATOM     27 CL   UNL     1       0.621 -15.154  -0.544  0.00  0.00    -0.082 Cl
ENDBRANCH  19  20
ENDBRANCH   6  19
TORSDOF 6
