REMARK  Name = ZINC39623877
REMARK  7 active torsions:
REMARK  status: ('A' for Active; 'I' for Inactive)
REMARK    1  A    between atoms: C_1  and  C_2
REMARK    2  A    between atoms: C_2  and  C_3
REMARK    3  A    between atoms: C_3  and  C_4
REMARK    4  A    between atoms: C_4  and  N_5
REMARK    5  A    between atoms: C_6  and  C_8
REMARK    6  A    between atoms: C_19  and  C_21
REMARK    7  A    between atoms: C_25  and  C_27
REMARK                            x       y       z     vdW  Elec       q    Type
REMARK                         _______ _______ _______ _____ _____    ______ ____
ROOT
ATOM      1  C   UNL     1       2.593  -4.268  -4.541  0.00  0.00    +0.100 C 
ATOM      2  C   UNL     1       3.979  -3.653  -4.245  0.00  0.00    +0.121 C 
ATOM      3  N   UNL     1       4.745  -4.747  -3.604  0.00  0.00    -0.296 N 
ATOM      4  C   UNL     1       4.351  -5.963  -4.356  0.00  0.00    +0.115 C 
ATOM      5  C   UNL     1       2.841  -5.784  -4.616  0.00  0.00    -0.004 C 
ATOM      6  C   UNL     1       2.033  -6.506  -3.542  0.00  0.00    -0.010 C 
ATOM      7  C   UNL     1       2.253  -8.016  -3.673  0.00  0.00    -0.082 C 
ATOM      8  N   UNL     1       1.836  -8.459  -5.009  0.00  0.00    +0.379 N 
ATOM      9  C   UNL     1       2.680  -7.829  -6.032  0.00  0.00    -0.082 C 
ATOM     10  C   UNL     1       2.478  -6.312  -6.000  0.00  0.00    -0.010 C 
ATOM     11  C   UNL     1       5.607  -4.657  -2.572  0.00  0.00    +0.247 C 
ATOM     12  O   UNL     1       5.734  -3.606  -1.976  0.00  0.00    -0.270 OA
ATOM     13  H   UNL     1       1.924  -9.462  -5.072  0.00  0.00    -0.086 HD
ATOM     14  H   UNL     1       0.873  -8.198  -5.163  0.00  0.00    -0.086 HD
ENDROOT
BRANCH  11  15
ATOM     15  C   UNL     1       6.399  -5.837  -2.166  0.00  0.00    +0.038 A 
ATOM     16  C   UNL     1       6.603  -6.887  -3.064  0.00  0.00    +0.016 A 
ATOM     17  C   UNL     1       7.342  -7.985  -2.680  0.00  0.00    +0.039 A 
ATOM     18  C   UNL     1       7.882  -8.048  -1.404  0.00  0.00    +0.135 A 
ATOM     19  C   UNL     1       7.682  -7.009  -0.509  0.00  0.00    +0.091 A 
ATOM     20  C   UNL     1       6.949  -5.903  -0.885  0.00  0.00    +0.028 A 
ATOM     21  F   UNL     1       8.605  -9.127  -1.032  0.00  0.00    -0.205 F 
BRANCH  19  22
ATOM     22  C   UNL     1       8.271  -7.085   0.876  0.00  0.00    +0.420 C 
ATOM     23  F   UNL     1       7.937  -5.929   1.590  0.00  0.00    -0.166 F 
ATOM     24  F   UNL     1       7.761  -8.207   1.539  0.00  0.00    -0.166 F 
ATOM     25  F   UNL     1       9.663  -7.191   0.785  0.00  0.00    -0.166 F 
ENDBRANCH  19  22
ENDBRANCH  11  15
BRANCH   1  27
ATOM     26  N   UNL     1       0.302  -3.953  -3.663  0.00  0.00    -0.315 N 
ATOM     27  C   UNL     1       1.629  -3.949  -3.427  0.00  0.00    +0.218 C 
ATOM     28  O   UNL     1       2.047  -3.689  -2.319  0.00  0.00    -0.275 OA
ATOM     29  H   UNL     1      -0.033  -4.161  -4.549  0.00  0.00    +0.149 HD
BRANCH  26  30
ATOM     30  C   UNL     1      -0.636  -3.643  -2.580  0.00  0.00    +0.104 C 
BRANCH  30  31
ATOM     31  C   UNL     1      -2.069  -3.716  -3.110  0.00  0.00    +0.018 C 
BRANCH  31  33
ATOM     32  C   UNL     1      -4.481  -3.465  -2.510  0.00  0.00    +0.004 C 
ATOM     33  C   UNL     1      -3.048  -3.392  -1.980  0.00  0.00    -0.002 C 
ENDBRANCH  31  33
ENDBRANCH  30  31
ENDBRANCH  26  30
ENDBRANCH   1  27
TORSDOF 6
