REMARK  Name = ZINC01201176
REMARK  8 active torsions:
REMARK  status: ('A' for Active; 'I' for Inactive)
REMARK    1  A    between atoms: C_1  and  C_2
REMARK    2  A    between atoms: C_7  and  O_10
REMARK    3  A    between atoms: O_10  and  C_11
REMARK    4  A    between atoms: C_11  and  C_13
REMARK    5  A    between atoms: C_14  and  C_29
REMARK    6  A    between atoms: C_19  and  C_21
REMARK    7  A    between atoms: C_26  and  O_27
REMARK    8  A    between atoms: O_27  and  C_28
REMARK                            x       y       z     vdW  Elec       q    Type
REMARK                         _______ _______ _______ _____ _____    ______ ____
ROOT
ATOM      1  C   UNL     1       1.489  -4.193   4.612  0.00  0.00    +0.078 C 
ATOM      2  C   UNL     1       1.287  -5.335   5.303  0.00  0.00    +0.021 C 
ATOM      3  N   UNL     1       2.121  -5.701   6.320  0.00  0.00    -0.273 N 
ATOM      4  C   UNL     1       3.180  -4.979   6.708  0.00  0.00    +0.304 C 
ATOM      5  O   UNL     1       3.865  -5.386   7.625  0.00  0.00    -0.252 OA
ATOM      6  N   UNL     1       3.510  -3.815   6.114  0.00  0.00    -0.288 N 
ATOM      7  C   UNL     1       2.676  -3.335   5.000  0.00  0.00    +0.147 C 
ATOM      8  C   UNL     1       0.121  -6.221   4.946  0.00  0.00    +0.061 C 
ATOM      9  H   UNL     1       1.937  -6.530   6.788  0.00  0.00    +0.156 HD
ATOM     10  H   UNL     1       4.282  -3.307   6.412  0.00  0.00    +0.151 HD
ENDROOT
BRANCH   7  11
ATOM     11  C   UNL     1       2.160  -1.967   5.368  0.00  0.00    +0.019 A 
ATOM     12  C   UNL     1       2.354  -0.901   4.511  0.00  0.00    +0.009 A 
ATOM     13  C   UNL     1       1.881   0.353   4.848  0.00  0.00    +0.001 A 
ATOM     14  C   UNL     1       1.213   0.544   6.044  0.00  0.00    +0.004 A 
ATOM     15  C   UNL     1       1.017  -0.518   6.904  0.00  0.00    +0.046 A 
ATOM     16  C   UNL     1       1.486  -1.779   6.566  0.00  0.00    +0.125 A 
BRANCH  16  17
ATOM     17  O   UNL     1       1.288  -2.827   7.408  0.00  0.00    -0.495 OA
ATOM     18  C   UNL     1       0.505  -2.582   8.578  0.00  0.00    +0.277 C 
ENDBRANCH  16  17
ENDBRANCH   7  11
BRANCH   1  19
ATOM     19  C   UNL     1       0.626  -3.813   3.558  0.00  0.00    +0.339 C 
ATOM     20  O   UNL     1      -0.252  -4.570   3.187  0.00  0.00    -0.245 OA
BRANCH  19  21
ATOM     21  O   UNL     1       0.775  -2.611   2.963  0.00  0.00    -0.458 OA
BRANCH  21  27
ATOM     22  C   UNL     1      -1.471   1.177   0.782  0.00  0.00    +0.007 C 
ATOM     23  C   UNL     1      -1.347  -0.346   0.847  0.00  0.00    -0.011 C 
ATOM     24  C   UNL     1      -0.901  -0.880  -0.516  0.00  0.00    +0.003 C 
ATOM     25  C   UNL     1      -0.777  -2.403  -0.452  0.00  0.00    +0.004 C 
ATOM     26  C   UNL     1       0.256  -2.787   0.609  0.00  0.00    +0.045 C 
ATOM     27  C   UNL     1      -0.190  -2.253   1.972  0.00  0.00    +0.177 C 
ATOM     28  C   UNL     1      -0.314  -0.730   1.907  0.00  0.00    +0.048 C 
ENDBRANCH  21  27
ENDBRANCH  19  21
ENDBRANCH   1  19
TORSDOF 5
