REMARK  Name = ZINC34774045
REMARK  7 active torsions:
REMARK  status: ('A' for Active; 'I' for Inactive)
REMARK    1  A    between atoms: C_4  and  C_7
REMARK    2  A    between atoms: C_7  and  C_8
REMARK    3  A    between atoms: C_8  and  C_9
REMARK    4  A    between atoms: C_9  and  N_10
REMARK    5  A    between atoms: C_18  and  C_32
REMARK    6  A    between atoms: C_23  and  C_25
REMARK    7  A    between atoms: C_25  and  C_26
REMARK                            x       y       z     vdW  Elec       q    Type
REMARK                         _______ _______ _______ _____ _____    ______ ____
ROOT
ATOM      1  N   UNL     1       5.773  -0.643   4.812  0.00  0.00    +0.382 N 
ATOM      2  C   UNL     1       6.697  -0.658   5.953  0.00  0.00    -0.060 C 
ATOM      3  C   UNL     1       7.754  -1.746   5.739  0.00  0.00    +0.088 C 
ATOM      4  N   UNL     1       7.067  -3.023   5.498  0.00  0.00    -0.318 N 
ATOM      5  C   UNL     1       6.007  -3.059   4.479  0.00  0.00    +0.088 C 
ATOM      6  C   UNL     1       5.032  -1.909   4.752  0.00  0.00    -0.060 C 
ATOM      7  C   UNL     1       7.408  -4.160   6.209  0.00  0.00    +0.134 A 
ATOM      8  C   UNL     1       8.616  -4.852   5.923  0.00  0.00    +0.055 A 
ATOM      9  C   UNL     1       9.646  -4.555   4.933  0.00  0.00    +0.002 A 
ATOM     10  C   UNL     1      10.722  -5.372   4.848  0.00  0.00    +0.056 A 
ATOM     11  S   UNL     1      10.412  -6.600   6.103  0.00  0.00    -0.076 S 
ATOM     12  C   UNL     1       8.860  -5.995   6.710  0.00  0.00    +0.114 A 
ATOM     13  N   UNL     1       8.011  -6.381   7.643  0.00  0.00    -0.224 NA
ATOM     14  C   UNL     1       6.905  -5.699   7.863  0.00  0.00    +0.137 A 
ATOM     15  N   UNL     1       6.616  -4.613   7.168  0.00  0.00    -0.216 NA
ATOM     16  H   UNL     1       6.298  -0.522   3.959  0.00  0.00    -0.082 HD
ENDROOT
BRANCH   9  17
ATOM     17  C   UNL     1       9.517  -3.381   4.037  0.00  0.00    -0.017 A 
ATOM     18  C   UNL     1       8.427  -3.276   3.174  0.00  0.00    +0.008 A 
ATOM     19  C   UNL     1       8.312  -2.180   2.343  0.00  0.00    +0.001 A 
ATOM     20  C   UNL     1       9.276  -1.188   2.364  0.00  0.00    +0.000 A 
ATOM     21  C   UNL     1      10.360  -1.288   3.218  0.00  0.00    +0.001 A 
ATOM     22  C   UNL     1      10.482  -2.375   4.059  0.00  0.00    +0.008 A 
ENDBRANCH   9  17
BRANCH   1  23
ATOM     23  C   UNL     1       4.827   0.470   4.964  0.00  0.00    -0.078 C 
BRANCH  23  24
ATOM     24  C   UNL     1       5.585   1.797   4.902  0.00  0.00    -0.014 C 
BRANCH  24  25
ATOM     25  C   UNL     1       4.600   2.956   5.060  0.00  0.00    +0.033 C 
BRANCH  25  29
ATOM     26  C   UNL     1       6.717   6.662   4.886  0.00  0.00    +0.000 A 
ATOM     27  C   UNL     1       6.221   6.094   3.727  0.00  0.00    +0.000 A 
ATOM     28  C   UNL     1       5.536   4.895   3.784  0.00  0.00    +0.003 A 
ATOM     29  C   UNL     1       5.347   4.263   4.999  0.00  0.00    -0.047 A 
ATOM     30  C   UNL     1       5.843   4.831   6.157  0.00  0.00    +0.003 A 
ATOM     31  C   UNL     1       6.527   6.031   6.101  0.00  0.00    +0.000 A 
ENDBRANCH  25  29
ENDBRANCH  24  25
ENDBRANCH  23  24
ENDBRANCH   1  23
BRANCH  14  32
ATOM     32  C   UNL     1       5.953  -6.162   8.935  0.00  0.00    +0.111 C 
BRANCH  32  33
ATOM     33  C   UNL     1       6.320  -5.514  10.246  0.00  0.00    -0.040 A 
ATOM     34  C   UNL     1       7.220  -6.132  11.094  0.00  0.00    +0.004 A 
ATOM     35  C   UNL     1       7.556  -5.539  12.296  0.00  0.00    +0.000 A 
ATOM     36  C   UNL     1       6.993  -4.327  12.650  0.00  0.00    +0.000 A 
ATOM     37  C   UNL     1       6.093  -3.709  11.802  0.00  0.00    +0.000 A 
ATOM     38  C   UNL     1       5.760  -4.300  10.598  0.00  0.00    +0.004 A 
ENDBRANCH  32  33
ENDBRANCH  14  32
TORSDOF 7
