REMARK  Name = ZINC20703257
REMARK  5 active torsions:
REMARK  status: ('A' for Active; 'I' for Inactive)
REMARK    1  A    between atoms: C_4  and  C_7
REMARK    2  A    between atoms: C_7  and  O_8
REMARK    3  A    between atoms: O_8  and  C_9
REMARK    4  A    between atoms: C_12  and  C_15
REMARK    5  A    between atoms: C_28  and  N_31
REMARK                            x       y       z     vdW  Elec       q    Type
REMARK                         _______ _______ _______ _____ _____    ______ ____
ROOT
ATOM      1  C   UNL     1       2.619   7.728  -0.372  0.00  0.00    +0.105 C 
ATOM      2  C   UNL     1       2.527   8.118   1.105  0.00  0.00    +0.029 C 
ATOM      3  C   UNL     1       3.882   7.763   1.777  0.00  0.00    +0.033 C 
ATOM      4  C   UNL     1       4.768   8.945   1.440  0.00  0.00    -0.030 C 
ATOM      5  C   UNL     1       4.042   9.992   1.137  0.00  0.00    -0.023 C 
ATOM      6  C   UNL     1       2.570   9.657   1.220  0.00  0.00    +0.049 C 
ATOM      7  C   UNL     1       1.815  10.315   0.103  0.00  0.00    -0.017 A 
ATOM      8  C   UNL     1       1.637  11.691   0.159  0.00  0.00    +0.006 A 
ATOM      9  C   UNL     1       0.953  12.352  -0.840  0.00  0.00    +0.003 A 
ATOM     10  C   UNL     1       0.437  11.646  -1.911  0.00  0.00    +0.034 A 
ATOM     11  C   UNL     1       0.608  10.279  -1.975  0.00  0.00    +0.147 A 
ATOM     12  C   UNL     1       1.298   9.607  -0.967  0.00  0.00    +0.062 A 
ATOM     13  N   UNL     1       1.438   8.224  -1.081  0.00  0.00    -0.335 N 
ATOM     14  H   UNL     1       0.784   7.521  -1.619  0.00  0.00    +0.147 HD
ENDROOT
BRANCH   1  18
ATOM     15  C   UNL     1       2.804   3.473  -0.713  0.00  0.00    +0.121 A 
ATOM     16  C   UNL     1       1.583   4.101  -0.517  0.00  0.00    +0.046 A 
ATOM     17  C   UNL     1       1.526   5.477  -0.401  0.00  0.00    +0.009 A 
ATOM     18  C   UNL     1       2.684   6.228  -0.492  0.00  0.00    -0.027 A 
ATOM     19  C   UNL     1       3.901   5.604  -0.693  0.00  0.00    +0.009 A 
ATOM     20  C   UNL     1       3.964   4.228  -0.804  0.00  0.00    +0.046 A 
BRANCH  15  21
ATOM     21  O   UNL     1       2.863   2.119  -0.821  0.00  0.00    -0.487 OA
BRANCH  21  22
ATOM     22  C   UNL     1       1.629   1.406  -0.718  0.00  0.00    +0.264 C 
BRANCH  22  26
ATOM     23  C   UNL     1       2.367  -2.782  -1.124  0.00  0.00    +0.000 A 
ATOM     24  C   UNL     1       2.398  -2.193   0.126  0.00  0.00    +0.000 A 
ATOM     25  C   UNL     1       2.159  -0.838   0.258  0.00  0.00    +0.007 A 
ATOM     26  C   UNL     1       1.889  -0.072  -0.861  0.00  0.00    -0.010 A 
ATOM     27  C   UNL     1       1.853  -0.662  -2.111  0.00  0.00    +0.007 A 
ATOM     28  C   UNL     1       2.096  -2.016  -2.242  0.00  0.00    +0.000 A 
ENDBRANCH  22  26
ENDBRANCH  21  22
ENDBRANCH  15  21
ENDBRANCH   1  18
BRANCH  11  29
ATOM     29  N   UNL     1       0.057   9.522  -3.121  0.00  0.00    +0.058 N 
ATOM     30  O   UNL     1       0.078  10.007  -4.239  0.00  0.00    -0.126 OA
ATOM     31  O   UNL     1      -0.418   8.414  -2.947  0.00  0.00    -0.126 OA
ENDBRANCH  11  29
TORSDOF 5
