REMARK  Name = ZINC39513324
REMARK  5 active torsions:
REMARK  status: ('A' for Active; 'I' for Inactive)
REMARK    1  A    between atoms: C_1  and  C_2
REMARK    2  A    between atoms: C_2  and  O_3
REMARK    3  A    between atoms: O_3  and  C_4
REMARK    4  A    between atoms: C_10  and  C_17
REMARK    5  A    between atoms: C_22  and  O_23
REMARK                            x       y       z     vdW  Elec       q    Type
REMARK                         _______ _______ _______ _____ _____    ______ ____
ROOT
ATOM      1  C   UNL     1       1.508  -1.359  -1.400  0.00  0.00    +0.120 C 
ATOM      2  C   UNL     1       0.141  -1.926  -1.860  0.00  0.00    +0.033 C 
ATOM      3  C   UNL     1       0.491  -3.383  -2.254  0.00  0.00    +0.027 C 
ATOM      4  C   UNL     1       1.879  -3.273  -2.912  0.00  0.00    +0.046 C 
ATOM      5  C   UNL     1       2.529  -1.988  -2.370  0.00  0.00    +0.055 C 
ATOM      6  C   UNL     1       1.723  -3.181  -4.428  0.00  0.00    +0.044 C 
ATOM      7  C   UNL     1       1.076  -4.468  -4.949  0.00  0.00    +0.011 C 
ATOM      8  C   UNL     1       1.933  -5.666  -4.529  0.00  0.00    +0.017 C 
ATOM      9  C   UNL     1       2.066  -5.685  -3.005  0.00  0.00    +0.103 C 
ATOM     10  N   UNL     1       2.693  -4.436  -2.551  0.00  0.00    -0.213 NA
ATOM     11 CL   UNL     1       2.991  -4.477  -0.868  0.00  0.00    -0.021 Cl
ENDROOT
BRANCH   6  12
ATOM     12  C   UNL     1       0.850  -2.003  -4.774  0.00  0.00    -0.001 A 
ATOM     13  C   UNL     1      -0.525  -2.112  -4.688  0.00  0.00    +0.007 A 
ATOM     14  C   UNL     1      -1.326  -1.031  -5.006  0.00  0.00    +0.001 A 
ATOM     15  C   UNL     1      -0.755   0.162  -5.410  0.00  0.00    +0.004 A 
ATOM     16  C   UNL     1       0.619   0.276  -5.498  0.00  0.00    +0.046 A 
ATOM     17  C   UNL     1       1.426  -0.806  -5.175  0.00  0.00    +0.120 A 
BRANCH  17  18
ATOM     18  O   UNL     1       2.778  -0.694  -5.255  0.00  0.00    -0.506 OA
ATOM     19  H   UNL     1       3.141  -0.930  -6.119  0.00  0.00    +0.292 HD
ENDBRANCH  17  18
ENDBRANCH   6  12
BRANCH   1  20
ATOM     20  O   UNL     1       1.522   0.066  -1.514  0.00  0.00    -0.377 OA
BRANCH  20  22
ATOM     21  C   UNL     1       1.194   2.259  -0.553  0.00  0.00    +0.034 C 
ATOM     22  C   UNL     1       1.144   0.748  -0.317  0.00  0.00    +0.157 C 
ENDBRANCH  20  22
ENDBRANCH   1  20
TORSDOF 4
