REMARK  Name = ZINC09554156
REMARK  5 active torsions:
REMARK  status: ('A' for Active; 'I' for Inactive)
REMARK    1  A    between atoms: C_4  and  C_7
REMARK    2  A    between atoms: C_12  and  C_30
REMARK    3  A    between atoms: C_18  and  C_22
REMARK    4  A    between atoms: C_22  and  C_24
REMARK    5  A    between atoms: C_34  and  N_36
REMARK                            x       y       z     vdW  Elec       q    Type
REMARK                         _______ _______ _______ _____ _____    ______ ____
ROOT
ATOM      1  C   UNL     1       2.162   0.594  -2.927  0.00  0.00    +0.032 C 
ATOM      2  C   UNL     1       3.599   1.010  -2.619  0.00  0.00    +0.059 C 
ATOM      3  C   UNL     1       3.727   1.394  -1.155  0.00  0.00    +0.017 C 
ATOM      4  C   UNL     1       2.964   0.797  -0.223  0.00  0.00    +0.036 C 
ATOM      5  C   UNL     1       2.995   1.078   1.260  0.00  0.00    +0.136 C 
ATOM      6  N   UNL     1       4.114   1.884   1.697  0.00  0.00    -0.331 N 
ATOM      7  C   UNL     1       4.254   3.201   1.283  0.00  0.00    +0.049 A 
ATOM      8  C   UNL     1       4.120   4.257   2.176  0.00  0.00    +0.025 A 
ATOM      9  C   UNL     1       4.152   5.553   1.709  0.00  0.00    +0.013 A 
ATOM     10  C   UNL     1       4.320   5.806   0.343  0.00  0.00    +0.024 A 
ATOM     11  C   UNL     1       4.477   4.740  -0.552  0.00  0.00    +0.036 A 
ATOM     12  C   UNL     1       4.461   3.448  -0.070  0.00  0.00    +0.053 A 
ATOM     13  N   UNL     1       4.658   2.346  -0.895  0.00  0.00    -0.316 N 
ATOM     14  C   UNL     1       2.024  -0.193  -0.599  0.00  0.00    +0.163 C 
ATOM     15  O   UNL     1       1.361  -0.731   0.266  0.00  0.00    -0.292 OA
ATOM     16  C   UNL     1       1.818  -0.599  -2.027  0.00  0.00    +0.088 C 
ATOM     17  H   UNL     1       4.777   1.498   2.290  0.00  0.00    +0.147 HD
ATOM     18  H   UNL     1       5.527   2.251  -1.316  0.00  0.00    +0.152 HD
ENDROOT
BRANCH   1  22
ATOM     19  C   UNL     1       1.833  -0.546  -7.031  0.00  0.00    +0.000 A 
ATOM     20  C   UNL     1       1.049   0.478  -6.533  0.00  0.00    +0.000 A 
ATOM     21  C   UNL     1       1.155   0.847  -5.205  0.00  0.00    +0.004 A 
ATOM     22  C   UNL     1       2.046   0.192  -4.375  0.00  0.00    -0.044 A 
ATOM     23  C   UNL     1       2.834  -0.828  -4.874  0.00  0.00    +0.004 A 
ATOM     24  C   UNL     1       2.724  -1.200  -6.201  0.00  0.00    +0.000 A 
ENDBRANCH   1  22
BRANCH   5  25
ATOM     25  C   UNL     1       1.720   1.787   1.638  0.00  0.00    -0.021 A 
ATOM     26  C   UNL     1       1.440   3.034   1.111  0.00  0.00    +0.006 A 
ATOM     27  C   UNL     1       0.271   3.685   1.458  0.00  0.00    +0.003 A 
ATOM     28  C   UNL     1      -0.620   3.087   2.330  0.00  0.00    +0.033 A 
ATOM     29  C   UNL     1      -0.342   1.838   2.854  0.00  0.00    +0.127 A 
ATOM     30  C   UNL     1       0.830   1.190   2.511  0.00  0.00    +0.038 A 
BRANCH  29  31
ATOM     31  N   UNL     1      -1.298   1.197   3.784  0.00  0.00    +0.056 N 
ATOM     32  O   UNL     1      -1.052   0.098   4.248  0.00  0.00    -0.126 OA
ATOM     33  O   UNL     1      -2.331   1.768   4.086  0.00  0.00    -0.126 OA
ENDBRANCH  29  31
ENDBRANCH   5  25
BRANCH  10  34
ATOM     34  C   UNL     1       4.332   7.194  -0.153  0.00  0.00    +0.193 C 
ATOM     35  O   UNL     1       5.069   7.505  -1.069  0.00  0.00    -0.287 OA
BRANCH  34  36
ATOM     36  C   UNL     1       3.449   8.206   0.462  0.00  0.00    +0.022 A 
ATOM     37  C   UNL     1       2.485   7.822   1.396  0.00  0.00    +0.012 A 
ATOM     38  C   UNL     1       1.667   8.773   1.970  0.00  0.00    +0.001 A 
ATOM     39  C   UNL     1       1.793  10.104   1.614  0.00  0.00    +0.000 A 
ATOM     40  C   UNL     1       2.742  10.491   0.684  0.00  0.00    +0.001 A 
ATOM     41  C   UNL     1       3.570   9.552   0.106  0.00  0.00    +0.012 A 
ENDBRANCH  34  36
ENDBRANCH  10  34
TORSDOF 5
