REMARK  Name = ZINC03225801
REMARK  5 active torsions:
REMARK  status: ('A' for Active; 'I' for Inactive)
REMARK    1  A    between atoms: C_5  and  N_7
REMARK    2  A    between atoms: N_7  and  C_8
REMARK    3  A    between atoms: C_8  and  C_9
REMARK    4  A    between atoms: N_11  and  N_12
REMARK    5  A    between atoms: C_13  and  C_14
REMARK                            x       y       z     vdW  Elec       q    Type
REMARK                         _______ _______ _______ _____ _____    ______ ____
ROOT
ATOM      1  C   UNL     1      -0.742   1.585  -1.213  0.00  0.00    +0.249 C 
ATOM      2  O   UNL     1      -1.736   2.268  -1.088  0.00  0.00    -0.272 OA
ATOM      3  N   UNL     1      -0.288   1.272  -2.443  0.00  0.00    -0.206 N 
ATOM      4  H   UNL     1       0.507   0.726  -2.543  0.00  0.00    +0.177 HD
ENDROOT
BRANCH   3   5
ATOM      5  N   UNL     1      -0.966   1.736  -3.578  0.00  0.00    -0.188 NA
ATOM      6  C   UNL     1      -0.530   1.435  -4.763  0.00  0.00    +0.138 C 
BRANCH   6   7
ATOM      7  C   UNL     1      -1.243   1.924  -5.957  0.00  0.00    -0.005 A 
ATOM      8  C   UNL     1      -2.392   2.706  -5.817  0.00  0.00    +0.010 A 
ATOM      9  C   UNL     1      -3.051   3.164  -6.939  0.00  0.00    +0.016 A 
ATOM     10  C   UNL     1      -2.583   2.841  -8.201  0.00  0.00    +0.018 A 
ATOM     11  C   UNL     1      -1.448   2.061  -8.347  0.00  0.00    +0.016 A 
ATOM     12  C   UNL     1      -0.776   1.602  -7.234  0.00  0.00    +0.010 A 
ATOM     13 BR   UNL     1      -3.499   3.466  -9.733  0.00  0.00    -0.050 Br
ENDBRANCH   6   7
ENDBRANCH   3   5
BRANCH   1  14
ATOM     14  C   UNL     1      -0.013   1.086   0.008  0.00  0.00    +0.199 C 
BRANCH  14  15
ATOM     15  N   UNL     1      -0.698   1.558   1.213  0.00  0.00    -0.333 N 
ATOM     16  H   UNL     1      -1.495   2.106   1.135  0.00  0.00    +0.147 HD
BRANCH  15  21
ATOM     17  C   UNL     1       1.421   0.103   3.841  0.00  0.00    +0.002 A 
ATOM     18  C   UNL     1       0.774   0.549   4.978  0.00  0.00    +0.003 A 
ATOM     19  C   UNL     1      -0.362   1.331   4.870  0.00  0.00    +0.040 A 
ATOM     20  C   UNL     1      -0.854   1.668   3.622  0.00  0.00    +0.144 A 
ATOM     21  C   UNL     1      -0.204   1.220   2.477  0.00  0.00    +0.063 A 
ATOM     22  C   UNL     1       0.933   0.432   2.591  0.00  0.00    +0.026 A 
ATOM     23  F   UNL     1      -1.964   2.430   3.516  0.00  0.00    -0.204 F 
ENDBRANCH  15  21
ENDBRANCH  14  15
ENDBRANCH   1  14
TORSDOF 5
