REMARK  Name = ZINC59021389
REMARK  10 active torsions:
REMARK  status: ('A' for Active; 'I' for Inactive)
REMARK    1  A    between atoms: C_1  and  C_2
REMARK    2  A    between atoms: C_5  and  C_8
REMARK    3  A    between atoms: C_8  and  C_27
REMARK    4  A    between atoms: N_9  and  N_10
REMARK    5  A    between atoms: C_13  and  S_16
REMARK    6  A    between atoms: S_16  and  C_17
REMARK    7  A    between atoms: C_17  and  C_18
REMARK    8  A    between atoms: C_19  and  C_26
REMARK    9  A    between atoms: C_21  and  C_25
REMARK   10  A    between atoms: C_23  and  C_24
REMARK                            x       y       z     vdW  Elec       q    Type
REMARK                         _______ _______ _______ _____ _____    ______ ____
ROOT
ATOM      1  N   UNL     1      -0.050  -4.189  -2.356  0.00  0.00    -0.205 N 
ATOM      2  C   UNL     1      -0.255  -4.865  -3.545  0.00  0.00    +0.232 A 
ATOM      3  N   UNL     1      -0.452  -6.160  -3.675  0.00  0.00    -0.186 NA
ATOM      4  C   UNL     1      -0.613  -6.463  -4.967  0.00  0.00    +0.210 A 
ATOM      5  N   UNL     1      -0.520  -5.364  -5.678  0.00  0.00    -0.144 NA
ATOM      6  N   UNL     1      -0.293  -4.312  -4.776  0.00  0.00    -0.245 N 
ATOM      7  H   UNL     1       0.082  -3.228  -2.361  0.00  0.00    +0.177 HD
ATOM      8  H   UNL     1      -0.184  -3.373  -4.995  0.00  0.00    +0.192 HD
ENDROOT
BRANCH   1  10
ATOM      9  C   UNL     1       0.272  -4.279  -0.042  0.00  0.00    +0.063 C 
ATOM     10  N   UNL     1      -0.034  -4.892  -1.144  0.00  0.00    -0.184 NA
ATOM     11  C   UNL     1       0.125  -4.987   1.280  0.00  0.00    +0.068 C 
BRANCH   9  16
ATOM     12  C   UNL     1       2.193   1.140  -0.204  0.00  0.00    +0.044 C 
ATOM     13  C   UNL     1       1.690  -0.280  -0.161  0.00  0.00    -0.050 A 
ATOM     14  C   UNL     1       0.884  -0.694   0.885  0.00  0.00    +0.004 A 
ATOM     15  C   UNL     1       0.420  -1.992   0.930  0.00  0.00    +0.010 A 
ATOM     16  C   UNL     1       0.764  -2.889  -0.084  0.00  0.00    -0.003 A 
ATOM     17  C   UNL     1       1.578  -2.464  -1.137  0.00  0.00    +0.010 A 
ATOM     18  C   UNL     1       2.031  -1.162  -1.172  0.00  0.00    +0.004 A 
ENDBRANCH   9  16
ENDBRANCH   1  10
BRANCH   4  19
ATOM     19  S   UNL     1      -0.903  -8.077  -5.612  0.00  0.00    -0.080 S 
BRANCH  19  20
ATOM     20  C   UNL     1      -1.028  -7.818  -7.403  0.00  0.00    +0.113 C 
BRANCH  20  21
ATOM     21  C   UNL     1      -1.280  -9.139  -8.085  0.00  0.00    -0.031 A 
ATOM     22  C   UNL     1      -0.214  -9.916  -8.500  0.00  0.00    -0.046 A 
ATOM     23  C   UNL     1      -0.445 -11.127  -9.125  0.00  0.00    +0.007 A 
ATOM     24  C   UNL     1      -1.740 -11.561  -9.336  0.00  0.00    -0.050 A 
ATOM     25  C   UNL     1      -2.805 -10.784  -8.920  0.00  0.00    +0.007 A 
ATOM     26  C   UNL     1      -2.575  -9.575  -8.291  0.00  0.00    -0.046 A 
ATOM     27  C   UNL     1      -3.736  -8.730  -7.833  0.00  0.00    +0.044 C 
ATOM     28  C   UNL     1      -1.991 -12.881 -10.019  0.00  0.00    +0.044 C 
ATOM     29  C   UNL     1       1.198  -9.443  -8.271  0.00  0.00    +0.044 C 
ENDBRANCH  20  21
ENDBRANCH  19  20
ENDBRANCH   4  19
TORSDOF 5
