REMARK  Name = ZINC39916528
REMARK  3 active torsions:
REMARK  status: ('A' for Active; 'I' for Inactive)
REMARK    1  A    between atoms: C_6  and  S_11
REMARK    2  A    between atoms: S_11  and  N_14
REMARK    3  A    between atoms: C_23  and  C_25
REMARK                            x       y       z     vdW  Elec       q    Type
REMARK                         _______ _______ _______ _____ _____    ______ ____
ROOT
ATOM      1  N   UNL     1       5.484  -2.960   1.586  0.00  0.00    -0.160 NA
ATOM      2  C   UNL     1       6.349  -2.001   2.280  0.00  0.00    +0.145 C 
ATOM      3  C   UNL     1       5.936  -1.898   3.727  0.00  0.00    -0.028 A 
ATOM      4  C   UNL     1       6.476  -0.867   4.484  0.00  0.00    +0.005 A 
ATOM      5  C   UNL     1       6.144  -0.727   5.815  0.00  0.00    +0.000 A 
ATOM      6  C   UNL     1       5.267  -1.622   6.401  0.00  0.00    +0.000 A 
ATOM      7  C   UNL     1       4.727  -2.644   5.649  0.00  0.00    +0.004 A 
ATOM      8  C   UNL     1       5.055  -2.784   4.306  0.00  0.00    -0.041 A 
ATOM      9  C   UNL     1       4.405  -3.908   3.542  0.00  0.00    +0.065 C 
ATOM     10  C   UNL     1       5.189  -4.227   2.276  0.00  0.00    +0.170 C 
ENDROOT
BRANCH  10  11
ATOM     11  C   UNL     1       4.364  -5.115   1.381  0.00  0.00    +0.238 C 
ATOM     12  O   UNL     1       3.185  -4.881   1.214  0.00  0.00    -0.274 OA
ATOM     13  N   UNL     1       4.935  -6.170   0.766  0.00  0.00    -0.263 N 
ATOM     14  C   UNL     1       4.174  -6.989  -0.059  0.00  0.00    +0.165 A 
ATOM     15  N   UNL     1       2.898  -6.887  -0.360  0.00  0.00    -0.229 NA
ATOM     16  C   UNL     1       2.296  -7.751  -1.173  0.00  0.00    +0.054 A 
ATOM     17  C   UNL     1       3.098  -8.733  -1.657  0.00  0.00    +0.014 A 
ATOM     18  S   UNL     1       4.664  -8.350  -0.924  0.00  0.00    -0.057 S 
ATOM     19  C   UNL     1       2.724  -9.843  -2.580  0.00  0.00    +0.044 C 
ATOM     20  C   UNL     1       1.190  -9.933  -2.625  0.00  0.00    +0.006 C 
ATOM     21  C   UNL     1       0.618  -8.527  -2.826  0.00  0.00    +0.006 C 
ATOM     22  C   UNL     1       0.825  -7.689  -1.562  0.00  0.00    +0.056 C 
ATOM     23  H   UNL     1       5.877  -6.357   0.900  0.00  0.00    +0.157 HD
ENDBRANCH  10  11
BRANCH   1  24
ATOM     24  S   UNL     1       4.858  -2.629   0.089  0.00  0.00    +0.062 S 
ATOM     25  O   UNL     1       4.480  -3.876  -0.478  0.00  0.00    -0.153 OA
ATOM     26  O   UNL     1       5.773  -1.748  -0.548  0.00  0.00    -0.153 OA
BRANCH  24  32
ATOM     27  C   UNL     1      -0.131   1.767   0.985  0.00  0.00    +0.001 A 
ATOM     28  C   UNL     1       1.078   2.449   0.855  0.00  0.00    +0.001 A 
ATOM     29  C   UNL     1       2.245   1.775   0.663  0.00  0.00    +0.008 A 
ATOM     30  C   UNL     1       2.234   0.371   0.594  0.00  0.00    -0.016 A 
ATOM     31  C   UNL     1       3.419  -0.359   0.398  0.00  0.00    +0.037 A 
ATOM     32  C   UNL     1       3.370  -1.718   0.337  0.00  0.00    +0.106 A 
ATOM     33  C   UNL     1       2.161  -2.399   0.467  0.00  0.00    +0.029 A 
ATOM     34  C   UNL     1       0.994  -1.725   0.658  0.00  0.00    +0.010 A 
ATOM     35  C   UNL     1       1.005  -0.321   0.726  0.00  0.00    -0.018 A 
ATOM     36  C   UNL     1      -0.180   0.409   0.923  0.00  0.00    +0.008 A 
ENDBRANCH  24  32
ENDBRANCH   1  24
TORSDOF 3
