REMARK  Name = ZINC13122233
REMARK  6 active torsions:
REMARK  status: ('A' for Active; 'I' for Inactive)
REMARK    1  A    between atoms: C_1  and  C_2
REMARK    2  A    between atoms: C_2  and  C_4
REMARK    3  A    between atoms: C_2  and  O_19
REMARK    4  A    between atoms: N_6  and  N_7
REMARK    5  A    between atoms: C_16  and  O_17
REMARK    6  A    between atoms: O_19  and  C_20
REMARK                            x       y       z     vdW  Elec       q    Type
REMARK                         _______ _______ _______ _____ _____    ______ ____
ROOT
ATOM      1  C   UNL     1       0.627  -0.283  -1.345  0.00  0.00    +0.273 C 
ATOM      2  O   UNL     1      -0.043  -0.755  -2.238  0.00  0.00    -0.270 OA
ATOM      3  N   UNL     1       1.927  -0.000  -1.555  0.00  0.00    -0.203 N 
ATOM      4  H   UNL     1       2.463   0.378  -0.841  0.00  0.00    +0.177 HD
ENDROOT
BRANCH   3   5
ATOM      5  N   UNL     1       2.459  -0.232  -2.707  0.00  0.00    -0.174 NA
ATOM      6  C   UNL     1       3.726   0.043  -2.912  0.00  0.00    +0.152 C 
ATOM      7  C   UNL     1       4.508  -0.145  -4.156  0.00  0.00    +0.034 A 
ATOM      8  C   UNL     1       4.207  -0.632  -5.419  0.00  0.00    +0.027 A 
ATOM      9  C   UNL     1       5.191  -0.677  -6.389  0.00  0.00    +0.019 A 
ATOM     10  C   UNL     1       6.475  -0.239  -6.101  0.00  0.00    +0.017 A 
ATOM     11  C   UNL     1       6.790   0.247  -4.850  0.00  0.00    +0.029 A 
ATOM     12  C   UNL     1       5.810   0.303  -3.854  0.00  0.00    +0.077 A 
ATOM     13  N   UNL     1       5.849   0.728  -2.563  0.00  0.00    -0.211 NA
ATOM     14  C   UNL     1       4.696   0.617  -1.958  0.00  0.00    +0.241 C 
ATOM     15 BR   UNL     1       4.786  -1.340  -8.113  0.00  0.00    -0.050 Br
BRANCH  14  16
ATOM     16  O   UNL     1       4.436   0.965  -0.675  0.00  0.00    -0.491 OA
ATOM     17  H   UNL     1       5.199   1.326  -0.203  0.00  0.00    +0.294 HD
ENDBRANCH  14  16
ENDBRANCH   3   5
BRANCH   1  19
ATOM     18  C   UNL     1       0.004   1.495   0.268  0.00  0.00    +0.062 C 
ATOM     19  C   UNL     1       0.005  -0.012   0.001  0.00  0.00    +0.257 C 
BRANCH  19  20
ATOM     20  O   UNL     1      -1.339  -0.499   0.012  0.00  0.00    -0.480 OA
BRANCH  20  21
ATOM     21  C   UNL     1      -1.869  -0.818   1.222  0.00  0.00    +0.122 A 
ATOM     22  C   UNL     1      -3.124  -1.405   1.297  0.00  0.00    +0.045 A 
ATOM     23  C   UNL     1      -3.661  -1.729   2.528  0.00  0.00    +0.004 A 
ATOM     24  C   UNL     1      -2.950  -1.468   3.684  0.00  0.00    +0.000 A 
ATOM     25  C   UNL     1      -1.699  -0.881   3.612  0.00  0.00    +0.004 A 
ATOM     26  C   UNL     1      -1.155  -0.561   2.383  0.00  0.00    +0.045 A 
ENDBRANCH  20  21
ENDBRANCH  19  20
ENDBRANCH   1  19
TORSDOF 5
