REMARK  Name = ZINC04853291
REMARK  8 active torsions:
REMARK  status: ('A' for Active; 'I' for Inactive)
REMARK    1  A    between atoms: C_1  and  C_2
REMARK    2  A    between atoms: C_5  and  C_8
REMARK    3  A    between atoms: C_11  and  C_13
REMARK    4  A    between atoms: C_13  and  C_24
REMARK    5  A    between atoms: C_14  and  C_15
REMARK    6  A    between atoms: C_18  and  O_23
REMARK    7  A    between atoms: C_19  and  O_21
REMARK    8  A    between atoms: O_21  and  C_22
REMARK                            x       y       z     vdW  Elec       q    Type
REMARK                         _______ _______ _______ _____ _____    ______ ____
ROOT
ATOM      1  C   UNL     1       2.065   0.650   0.953  0.00  0.00    +0.084 C 
ATOM      2  C   UNL     1       0.867   1.255   0.704  0.00  0.00    +0.029 C 
ENDROOT
BRANCH   2   3
ATOM      3  C   UNL     1       0.808   2.431  -0.171  0.00  0.00    -0.020 A 
ATOM      4  C   UNL     1       1.906   3.297  -0.260  0.00  0.00    +0.012 A 
ATOM      5  C   UNL     1       1.849   4.397  -1.086  0.00  0.00    +0.050 A 
ATOM      6  C   UNL     1       0.701   4.658  -1.823  0.00  0.00    +0.158 A 
ATOM      7  C   UNL     1      -0.399   3.805  -1.736  0.00  0.00    +0.162 A 
ATOM      8  C   UNL     1      -0.349   2.696  -0.915  0.00  0.00    +0.057 A 
BRANCH   7   9
ATOM      9  O   UNL     1      -1.520   4.065  -2.459  0.00  0.00    -0.491 OA
ATOM     10  C   UNL     1      -2.608   3.149  -2.322  0.00  0.00    +0.277 C 
ENDBRANCH   7   9
BRANCH   6  11
ATOM     11  O   UNL     1       0.649   5.748  -2.632  0.00  0.00    -0.503 OA
ATOM     12  H   UNL     1       0.314   6.545  -2.197  0.00  0.00    +0.292 HD
ENDBRANCH   6  11
ENDBRANCH   2   3
BRANCH   1  16
ATOM     13  C   UNL     1       5.421   1.855  -0.097  0.00  0.00    +0.079 A 
ATOM     14  C   UNL     1       5.243   1.777  -1.454  0.00  0.00    +0.075 A 
ATOM     15  S   UNL     1       3.566   1.162  -1.535  0.00  0.00    -0.074 S 
ATOM     16  C   UNL     1       3.274   1.081   0.227  0.00  0.00    +0.119 A 
ATOM     17  N   UNL     1       4.434   1.505   0.707  0.00  0.00    -0.238 NA
BRANCH  13  22
ATOM     18  C   UNL     1      10.428   3.686   2.079  0.00  0.00    +0.044 C 
ATOM     19  C   UNL     1       9.118   3.207   1.510  0.00  0.00    -0.050 A 
ATOM     20  C   UNL     1       8.089   2.843   2.360  0.00  0.00    +0.004 A 
ATOM     21  C   UNL     1       6.887   2.404   1.844  0.00  0.00    +0.010 A 
ATOM     22  C   UNL     1       6.711   2.326   0.464  0.00  0.00    +0.001 A 
ATOM     23  C   UNL     1       7.753   2.688  -0.388  0.00  0.00    +0.010 A 
ATOM     24  C   UNL     1       8.948   3.132   0.139  0.00  0.00    +0.004 A 
ENDBRANCH  13  22
ENDBRANCH   1  16
BRANCH   1  25
ATOM     25  C   UNL     1       2.147  -0.403   1.920  0.00  0.00    +0.102 C 
ATOM     26  N   UNL     1       2.213  -1.238   2.687  0.00  0.00    -0.191 NA
ENDBRANCH   1  25
TORSDOF 6
