REMARK  Name = ZINC08733747
REMARK  5 active torsions:
REMARK  status: ('A' for Active; 'I' for Inactive)
REMARK    1  A    between atoms: C_1  and  C_2
REMARK    2  A    between atoms: C_2  and  C_28
REMARK    3  A    between atoms: N_5  and  C_9
REMARK    4  A    between atoms: C_9  and  C_10
REMARK    5  A    between atoms: C_16  and  C_19
REMARK                            x       y       z     vdW  Elec       q    Type
REMARK                         _______ _______ _______ _____ _____    ______ ____
ROOT
ATOM      1  C   UNL     1      -3.261  -3.046  -4.679  0.00  0.00    +0.047 C 
ATOM      2  C   UNL     1      -3.233  -1.634  -5.267  0.00  0.00    +0.135 C 
ATOM      3  C   UNL     1      -3.332  -0.596  -4.166  0.00  0.00    +0.251 C 
ATOM      4  O   UNL     1      -4.246  -0.442  -3.385  0.00  0.00    -0.272 OA
ATOM      5  N   UNL     1      -2.192   0.119  -4.237  0.00  0.00    -0.215 N 
ATOM      6  C   UNL     1      -1.397  -0.315  -5.223  0.00  0.00    +0.310 C 
ATOM      7  O   UNL     1      -0.316   0.175  -5.484  0.00  0.00    -0.252 OA
ATOM      8  N   UNL     1      -1.927  -1.357  -5.888  0.00  0.00    -0.281 N 
ATOM      9  H   UNL     1      -1.528  -1.831  -6.635  0.00  0.00    +0.152 HD
ENDROOT
BRANCH   2  10
ATOM     10  C   UNL     1      -4.348  -1.455  -6.266  0.00  0.00    -0.015 A 
ATOM     11  C   UNL     1      -5.572  -0.939  -5.843  0.00  0.00    +0.007 A 
ATOM     12  C   UNL     1      -6.597  -0.760  -6.720  0.00  0.00    +0.009 A 
ATOM     13  C   UNL     1      -6.426  -1.109  -8.070  0.00  0.00    -0.018 A 
ATOM     14  C   UNL     1      -7.463  -0.944  -9.004  0.00  0.00    +0.008 A 
ATOM     15  C   UNL     1      -7.261  -1.294 -10.304  0.00  0.00    +0.001 A 
ATOM     16  C   UNL     1      -6.039  -1.815 -10.725  0.00  0.00    +0.001 A 
ATOM     17  C   UNL     1      -5.012  -1.989  -9.849  0.00  0.00    +0.008 A 
ATOM     18  C   UNL     1      -5.183  -1.639  -8.499  0.00  0.00    -0.018 A 
ATOM     19  C   UNL     1      -4.146  -1.804  -7.565  0.00  0.00    +0.014 A 
ENDBRANCH   2  10
BRANCH   5  20
ATOM     20  C   UNL     1      -1.865   1.237  -3.349  0.00  0.00    +0.213 C 
BRANCH  20  21
ATOM     21  C   UNL     1      -1.132   0.720  -2.138  0.00  0.00    +0.234 C 
ATOM     22  O   UNL     1      -0.904  -0.466  -2.028  0.00  0.00    -0.274 OA
ATOM     23  N   UNL     1      -0.729   1.575  -1.178  0.00  0.00    -0.300 N 
ATOM     24  C   UNL     1      -0.997   3.015  -1.297  0.00  0.00    +0.108 C 
ATOM     25  C   UNL     1      -1.712   3.490  -0.028  0.00  0.00    +0.020 C 
ATOM     26  C   UNL     1      -0.878   3.105   1.196  0.00  0.00    +0.013 C 
ATOM     27  C   UNL     1      -0.736   1.583   1.264  0.00  0.00    +0.062 C 
ATOM     28  C   UNL     1      -0.013   1.086   0.008  0.00  0.00    +0.118 C 
BRANCH  27  29
ATOM     29  C   UNL     1       0.061   1.203   2.486  0.00  0.00    +0.084 A 
ATOM     30  N   UNL     1      -0.305   0.455   3.489  0.00  0.00    -0.244 NA
ATOM     31  C   UNL     1       0.511   0.189   4.530  0.00  0.00    +0.078 A 
ATOM     32  C   UNL     1       0.263  -0.595   5.678  0.00  0.00    +0.029 A 
ATOM     33  C   UNL     1       1.219  -0.750   6.633  0.00  0.00    +0.002 A 
ATOM     34  C   UNL     1       2.466  -0.150   6.520  0.00  0.00    +0.001 A 
ATOM     35  C   UNL     1       2.748   0.626   5.411  0.00  0.00    +0.017 A 
ATOM     36  C   UNL     1       1.789   0.788   4.441  0.00  0.00    +0.039 A 
ATOM     37  S   UNL     1       1.688   1.651   2.893  0.00  0.00    -0.072 S 
ENDBRANCH  27  29
ENDBRANCH  20  21
ENDBRANCH   5  20
TORSDOF 4
