REMARK  Name = ZINC33306456
REMARK  10 active torsions:
REMARK  status: ('A' for Active; 'I' for Inactive)
REMARK    1  A    between atoms: C_1  and  C_2
REMARK    2  A    between atoms: C_3  and  N_27
REMARK    3  A    between atoms: C_4  and  C_7
REMARK    4  A    between atoms: C_8  and  C_9
REMARK    5  A    between atoms: C_12  and  S_14
REMARK    6  A    between atoms: S_14  and  N_17
REMARK    7  A    between atoms: N_17  and  C_18
REMARK    8  A    between atoms: C_23  and  O_24
REMARK    9  A    between atoms: O_24  and  C_25
REMARK   10  A    between atoms: C_28  and  C_30
REMARK                            x       y       z     vdW  Elec       q    Type
REMARK                         _______ _______ _______ _____ _____    ______ ____
ROOT
ATOM      1  C   UNL     1      -0.320   1.196  -5.186  0.00  0.00    +0.014 A 
ATOM      2  C   UNL     1      -1.560   0.661  -4.872  0.00  0.00    +0.017 A 
ATOM      3  C   UNL     1      -1.837   0.385  -3.554  0.00  0.00    +0.037 A 
ATOM      4  C   UNL     1      -0.899   0.652  -2.607  0.00  0.00    +0.146 A 
ATOM      5  S   UNL     1       0.447   1.309  -3.578  0.00  0.00    -0.069 S 
ENDROOT
BRANCH   4   6
ATOM      6  S   UNL     1      -0.988   0.406  -0.865  0.00  0.00    +0.079 S 
ATOM      7  O   UNL     1      -2.367   0.409  -0.523  0.00  0.00    -0.149 OA
ATOM      8  O   UNL     1      -0.057   1.307  -0.280  0.00  0.00    -0.149 OA
BRANCH   6   9
ATOM      9  N   UNL     1      -0.427  -1.121  -0.556  0.00  0.00    -0.212 N 
ATOM     10  H   UNL     1      -1.080  -1.859  -0.068  0.00  0.00    +0.174 HD
BRANCH   9  11
ATOM     11  C   UNL     1       0.879  -1.473  -0.918  0.00  0.00    +0.091 A 
ATOM     12  C   UNL     1       1.901  -0.540  -0.828  0.00  0.00    +0.048 A 
ATOM     13  C   UNL     1       3.189  -0.888  -1.192  0.00  0.00    +0.043 A 
ATOM     14  C   UNL     1       3.461  -2.167  -1.646  0.00  0.00    +0.024 A 
ATOM     15  C   UNL     1       2.446  -3.102  -1.738  0.00  0.00    +0.049 A 
ATOM     16  C   UNL     1       1.154  -2.760  -1.375  0.00  0.00    +0.142 A 
ATOM     17 CL   UNL     1       4.468   0.281  -1.080  0.00  0.00    -0.083 Cl
BRANCH  16  18
ATOM     18  O   UNL     1       0.155  -3.679  -1.466  0.00  0.00    -0.493 OA
ATOM     19  C   UNL     1       0.510  -4.978  -1.943  0.00  0.00    +0.277 C 
ENDBRANCH  16  18
ENDBRANCH   9  11
ENDBRANCH   6   9
ENDBRANCH   4   6
BRANCH   1  21
ATOM     20  C   UNL     1       1.468   2.081  -6.589  0.00  0.00    +0.052 C 
ATOM     21  C   UNL     1       0.219   1.569  -6.494  0.00  0.00    +0.019 C 
BRANCH  20  25
ATOM     22  C   UNL     1       4.562   3.762 -10.247  0.00  0.00    +0.071 C 
ATOM     23  C   UNL     1       3.364   3.195  -9.530  0.00  0.00    +0.102 A 
ATOM     24  C   UNL     1       3.259   2.986  -8.144  0.00  0.00    +0.103 A 
ATOM     25  C   UNL     1       2.006   2.454  -7.895  0.00  0.00    +0.182 A 
ATOM     26  O   UNL     1       1.376   2.338  -9.084  0.00  0.00    -0.353 OA
ATOM     27  N   UNL     1       2.249   2.816 -10.090  0.00  0.00    -0.081 NA
BRANCH  24  28
ATOM     28  N   UNL     1       4.245   3.266  -7.187  0.00  0.00    -0.281 N 
ATOM     29  C   UNL     1       5.549   3.181  -7.518  0.00  0.00    +0.214 C 
ATOM     30  O   UNL     1       5.871   2.779  -8.617  0.00  0.00    -0.276 OA
ATOM     31  C   UNL     1       6.606   3.586  -6.524  0.00  0.00    +0.109 C 
ATOM     32  H   UNL     1       3.954   3.554  -6.166  0.00  0.00    +0.155 HD
ENDBRANCH  24  28
ENDBRANCH  20  25
ENDBRANCH   1  21
TORSDOF 7
