REMARK  Name = ZINC06489314
REMARK  8 active torsions:
REMARK  status: ('A' for Active; 'I' for Inactive)
REMARK    1  A    between atoms: C_1  and  C_2
REMARK    2  A    between atoms: C_2  and  O_3
REMARK    3  A    between atoms: O_3  and  C_4
REMARK    4  A    between atoms: C_4  and  C_6
REMARK    5  A    between atoms: C_7  and  C_34
REMARK    6  A    between atoms: C_14  and  C_15
REMARK    7  A    between atoms: C_19  and  O_21
REMARK    8  A    between atoms: C_23  and  C_25
REMARK                            x       y       z     vdW  Elec       q    Type
REMARK                         _______ _______ _______ _____ _____    ______ ____
ROOT
ATOM      1  C   UNL     1      -3.070  -2.788   1.544  0.00  0.00    +0.085 C 
ATOM      2  C   UNL     1      -3.240  -4.050   1.047  0.00  0.00    +0.053 C 
ATOM      3  N   UNL     1      -4.405  -4.420   0.531  0.00  0.00    -0.228 NA
ATOM      4  C   UNL     1      -5.463  -3.654   0.448  0.00  0.00    +0.178 A 
ATOM      5  N   UNL     1      -5.506  -2.351   0.889  0.00  0.00    -0.275 N 
ATOM      6  C   UNL     1      -6.647  -1.663   0.750  0.00  0.00    +0.268 A 
ATOM      7  O   UNL     1      -6.733  -0.508   1.124  0.00  0.00    -0.266 OA
ATOM      8  C   UNL     1      -7.794  -2.347   0.130  0.00  0.00    +0.081 A 
ATOM      9  C   UNL     1      -9.043  -1.880  -0.122  0.00  0.00    +0.028 C 
ATOM     10  S   UNL     1      -7.095  -3.957  -0.199  0.00  0.00    -0.046 S 
ATOM     11  C   UNL     1      -4.245  -1.839   1.493  0.00  0.00    +0.162 C 
ATOM     12  C   UNL     1      -2.095  -5.028   1.085  0.00  0.00    +0.066 C 
ENDROOT
BRANCH  11  13
ATOM     13  C   UNL     1      -3.823  -0.621   0.711  0.00  0.00    -0.016 A 
ATOM     14  C   UNL     1      -3.817  -0.657  -0.671  0.00  0.00    +0.010 A 
ATOM     15  C   UNL     1      -3.432   0.458  -1.392  0.00  0.00    +0.050 A 
ATOM     16  C   UNL     1      -3.050   1.614  -0.731  0.00  0.00    +0.166 A 
ATOM     17  C   UNL     1      -3.056   1.650   0.661  0.00  0.00    +0.167 A 
ATOM     18  C   UNL     1      -3.449   0.531   1.377  0.00  0.00    +0.055 A 
ATOM     19  O   UNL     1      -2.644   2.886   1.067  0.00  0.00    -0.453 OA
ATOM     20  C   UNL     1      -1.996   3.471  -0.078  0.00  0.00    +0.466 C 
ATOM     21  O   UNL     1      -2.634   2.828  -1.197  0.00  0.00    -0.453 OA
ENDBRANCH  11  13
BRANCH   9  22
ATOM     22  C   UNL     1      -9.350  -0.457   0.077  0.00  0.00    -0.020 A 
ATOM     23  C   UNL     1      -8.401   0.519  -0.249  0.00  0.00    +0.008 A 
ATOM     24  C   UNL     1      -8.694   1.853  -0.060  0.00  0.00    +0.004 A 
ATOM     25  C   UNL     1      -9.922   2.231   0.452  0.00  0.00    +0.045 A 
ATOM     26  C   UNL     1     -10.871   1.271   0.779  0.00  0.00    +0.117 A 
ATOM     27  C   UNL     1     -10.593  -0.071   0.588  0.00  0.00    +0.053 A 
BRANCH  26  28
ATOM     28  O   UNL     1     -12.075   1.650   1.282  0.00  0.00    -0.507 OA
ATOM     29  H   UNL     1     -12.752   1.804   0.608  0.00  0.00    +0.292 HD
ENDBRANCH  26  28
ENDBRANCH   9  22
BRANCH   1  30
ATOM     30  C   UNL     1      -1.840  -2.387   2.091  0.00  0.00    +0.339 C 
ATOM     31  O   UNL     1      -0.953  -3.204   2.262  0.00  0.00    -0.245 OA
BRANCH  30  32
ATOM     32  O   UNL     1      -1.640  -1.094   2.429  0.00  0.00    -0.462 OA
BRANCH  32  34
ATOM     33  C   UNL     1      -0.327   0.740   3.298  0.00  0.00    +0.048 C 
ATOM     34  C   UNL     1      -0.366  -0.757   2.980  0.00  0.00    +0.229 C 
ENDBRANCH  32  34
ENDBRANCH  30  32
ENDBRANCH   1  30
TORSDOF 6
