REMARK  Name = ZINC06931381
REMARK  7 active torsions:
REMARK  status: ('A' for Active; 'I' for Inactive)
REMARK    1  A    between atoms: C_1  and  C_2
REMARK    2  A    between atoms: C_7  and  N_8
REMARK    3  A    between atoms: C_9  and  C_11
REMARK    4  A    between atoms: C_11  and  N_12
REMARK    5  A    between atoms: N_12  and  C_13
REMARK    6  A    between atoms: N_12  and  S_14
REMARK    7  A    between atoms: S_14  and  C_17
REMARK                            x       y       z     vdW  Elec       q    Type
REMARK                         _______ _______ _______ _____ _____    ______ ____
ROOT
ATOM      1  S   UNL     1      -7.889  -0.275  -0.849  0.00  0.00    +0.061 S 
ATOM      2  O   UNL     1      -9.030   0.177  -0.133  0.00  0.00    -0.153 OA
ATOM      3  O   UNL     1      -7.616   0.133  -2.183  0.00  0.00    -0.153 OA
ENDROOT
BRANCH   1   4
ATOM      4  C   UNL     1      -6.481   0.172   0.112  0.00  0.00    +0.106 A 
ATOM      5  C   UNL     1      -6.634   0.363   1.476  0.00  0.00    +0.030 A 
ATOM      6  C   UNL     1      -5.575   0.715   2.295  0.00  0.00    +0.028 A 
ATOM      7  C   UNL     1      -4.332   0.872   1.687  0.00  0.00    +0.047 A 
ATOM      8  C   UNL     1      -4.181   0.675   0.290  0.00  0.00    +0.005 A 
ATOM      9  C   UNL     1      -5.269   0.320  -0.514  0.00  0.00    +0.038 A 
ATOM     10  C   UNL     1      -2.782   0.915   0.001  0.00  0.00    -0.019 A 
ATOM     11  C   UNL     1      -2.183   1.226   1.171  0.00  0.00    +0.020 A 
ATOM     12  N   UNL     1      -3.105   1.204   2.184  0.00  0.00    -0.358 N 
ATOM     13  H   UNL     1      -2.914   1.396   3.116  0.00  0.00    +0.166 HD
ATOM     14  C   UNL     1      -0.712   1.543   1.301  0.00  0.00    +0.053 C 
ATOM     15  C   UNL     1       0.009   1.048   0.043  0.00  0.00    +0.006 C 
ATOM     16  C   UNL     1      -0.724   1.563  -1.199  0.00  0.00    +0.005 C 
ATOM     17  C   UNL     1      -2.073   0.845  -1.327  0.00  0.00    +0.037 C 
ENDBRANCH   1   4
BRANCH   1  18
ATOM     18  N   UNL     1      -7.965  -1.929  -0.866  0.00  0.00    -0.171 NA
ATOM     19  C   UNL     1      -8.719  -2.638   0.170  0.00  0.00    +0.132 C 
BRANCH  18  20
ATOM     20  C   UNL     1      -7.278  -2.683  -1.918  0.00  0.00    +0.205 C 
BRANCH  20  22
ATOM     21  N   UNL     1      -5.104  -3.820  -2.228  0.00  0.00    -0.284 N 
ATOM     22  C   UNL     1      -5.920  -3.109  -1.425  0.00  0.00    +0.233 C 
ATOM     23  O   UNL     1      -5.560  -2.812  -0.305  0.00  0.00    -0.274 OA
ATOM     24  H   UNL     1      -5.420  -4.126  -3.093  0.00  0.00    +0.155 HD
BRANCH  21  31
ATOM     25  C   UNL     1      -3.824  -6.099  -3.354  0.00  0.00    +0.045 C 
ATOM     26  C   UNL     1      -3.139  -5.220  -2.340  0.00  0.00    -0.029 A 
ATOM     27  C   UNL     1      -1.852  -5.510  -1.930  0.00  0.00    +0.005 A 
ATOM     28  C   UNL     1      -1.222  -4.704  -1.000  0.00  0.00    +0.000 A 
ATOM     29  C   UNL     1      -1.878  -3.604  -0.477  0.00  0.00    +0.002 A 
ATOM     30  C   UNL     1      -3.163  -3.306  -0.886  0.00  0.00    +0.023 A 
ATOM     31  C   UNL     1      -3.800  -4.117  -1.816  0.00  0.00    +0.036 A 
ENDBRANCH  21  31
ENDBRANCH  20  22
ENDBRANCH  18  20
ENDBRANCH   1  18
TORSDOF 5
