REMARK  Name = ZINC60708301
REMARK  7 active torsions:
REMARK  status: ('A' for Active; 'I' for Inactive)
REMARK    1  A    between atoms: C_1  and  C_2
REMARK    2  A    between atoms: C_2  and  C_3
REMARK    3  A    between atoms: C_3  and  C_4
REMARK    4  A    between atoms: C_4  and  C_24
REMARK    5  A    between atoms: N_7  and  C_11
REMARK    6  A    between atoms: C_11  and  C_12
REMARK    7  A    between atoms: N_14  and  C_15
REMARK                            x       y       z     vdW  Elec       q    Type
REMARK                         _______ _______ _______ _____ _____    ______ ____
ROOT
ATOM      1  C   UNL     1      -5.326  -3.846   1.489  0.00  0.00    +0.214 C 
ENDROOT
BRANCH   1   5
ATOM      2  C   UNL     1      -6.740  -1.373  -0.894  0.00  0.00    +0.110 C 
ATOM      3  C   UNL     1      -6.896  -2.432   0.178  0.00  0.00    +0.247 C 
ATOM      4  O   UNL     1      -7.932  -2.842   0.658  0.00  0.00    -0.273 OA
ATOM      5  N   UNL     1      -5.645  -2.825   0.487  0.00  0.00    -0.215 N 
ATOM      6  C   UNL     1      -4.729  -2.168  -0.234  0.00  0.00    +0.310 C 
ATOM      7  O   UNL     1      -3.532  -2.350  -0.133  0.00  0.00    -0.252 OA
ATOM      8  N   UNL     1      -5.282  -1.283  -1.083  0.00  0.00    -0.285 N 
ATOM      9  C   UNL     1      -7.426  -1.809  -2.191  0.00  0.00    +0.041 C 
ATOM     10  H   UNL     1      -4.812  -0.700  -1.699  0.00  0.00    +0.151 HD
BRANCH   2  11
ATOM     11  C   UNL     1      -7.304  -0.034  -0.414  0.00  0.00    +0.035 C 
BRANCH  11  13
ATOM     12  C   UNL     1      -7.600   2.380  -0.989  0.00  0.00    +0.004 C 
ATOM     13  C   UNL     1      -7.036   1.041  -1.469  0.00  0.00    -0.001 C 
ENDBRANCH  11  13
ENDBRANCH   2  11
ENDBRANCH   1   5
BRANCH   1  14
ATOM     14  C   UNL     1      -5.285  -5.201   0.830  0.00  0.00    +0.235 C 
ATOM     15  O   UNL     1      -5.501  -5.304  -0.359  0.00  0.00    -0.274 OA
ATOM     16  N   UNL     1      -5.009  -6.298   1.562  0.00  0.00    -0.282 N 
ATOM     17  H   UNL     1      -4.765  -6.209   2.497  0.00  0.00    +0.155 HD
BRANCH  16  18
ATOM     18  C   UNL     1      -5.074  -7.568   0.974  0.00  0.00    +0.071 A 
ATOM     19  C   UNL     1      -3.942  -8.124   0.392  0.00  0.00    +0.065 A 
ATOM     20  C   UNL     1      -4.010  -9.377  -0.188  0.00  0.00    +0.042 A 
ATOM     21  C   UNL     1      -5.204 -10.077  -0.189  0.00  0.00    +0.044 A 
ATOM     22  C   UNL     1      -6.333  -9.525   0.390  0.00  0.00    +0.042 A 
ATOM     23  C   UNL     1      -6.270  -8.275   0.976  0.00  0.00    +0.065 A 
ATOM     24 CL   UNL     1      -7.686  -7.586   1.708  0.00  0.00    -0.082 Cl
ATOM     25 CL   UNL     1      -5.285 -11.650  -0.918  0.00  0.00    -0.083 Cl
ATOM     26 CL   UNL     1      -2.445  -7.247   0.392  0.00  0.00    -0.082 Cl
ENDBRANCH  16  18
ENDBRANCH   1  14
TORSDOF 5
