REMARK  Name = ZINC32679265
REMARK  11 active torsions:
REMARK  status: ('A' for Active; 'I' for Inactive)
REMARK    1  A    between atoms: C_1  and  C_2
REMARK    2  A    between atoms: C_2  and  C_3
REMARK    3  A    between atoms: C_2  and  C_4
REMARK    4  A    between atoms: C_4  and  C_5
REMARK    5  A    between atoms: C_5  and  C_7
REMARK    6  A    between atoms: C_5  and  C_19
REMARK    7  A    between atoms: C_8  and  N_18
REMARK    8  A    between atoms: C_19  and  C_21
REMARK    9  A    between atoms: C_19  and  C_34
REMARK   10  A    between atoms: C_34  and  C_35
REMARK   11  A    between atoms: C_34  and  C_36
REMARK                            x       y       z     vdW  Elec       q    Type
REMARK                         _______ _______ _______ _____ _____    ______ ____
ROOT
ATOM      1  C   UNL     1      -0.044  -0.667   2.682  0.00  0.00    +0.035 C 
ENDROOT
BRANCH   1   2
ATOM      2  C   UNL     1      -1.276  -1.514   2.871  0.00  0.00    +0.061 A 
ATOM      3  C   UNL     1      -2.540  -0.996   2.599  0.00  0.00    +0.127 A 
ATOM      4  N   UNL     1      -3.618  -1.757   2.771  0.00  0.00    -0.214 NA
ATOM      5  C   UNL     1      -3.514  -3.012   3.200  0.00  0.00    +0.142 A 
ATOM      6  C   UNL     1      -4.679  -3.784   3.369  0.00  0.00    +0.047 A 
ATOM      7  C   UNL     1      -4.573  -5.069   3.809  0.00  0.00    +0.005 A 
ATOM      8  C   UNL     1      -3.307  -5.603   4.087  0.00  0.00    +0.018 A 
ATOM      9  C   UNL     1      -2.199  -4.847   3.919  0.00  0.00    +0.096 A 
ATOM     10  N   UNL     1      -2.293  -3.561   3.479  0.00  0.00    -0.268 N 
ATOM     11  C   UNL     1      -1.170  -2.830   3.316  0.00  0.00    +0.264 A 
ATOM     12  O   UNL     1      -0.075  -3.314   3.558  0.00  0.00    -0.267 OA
BRANCH   3  13
ATOM     13  N   UNL     1      -2.675   0.306   2.152  0.00  0.00    -0.343 N 
ATOM     14  H   UNL     1      -1.886   0.831   1.944  0.00  0.00    +0.144 HD
ATOM     15  H   UNL     1      -3.557   0.693   2.046  0.00  0.00    +0.144 HD
ENDBRANCH   3  13
ENDBRANCH   1   2
BRANCH   1  16
ATOM     16  C   UNL     1       0.877  -1.329   1.655  0.00  0.00    +0.012 C 
BRANCH  16  18
ATOM     17  C   UNL     1      -0.007   0.084  -0.206  0.00  0.00    +0.007 C 
ATOM     18  C   UNL     1       0.187  -1.350   0.289  0.00  0.00    -0.017 C 
ATOM     19  C   UNL     1       1.053  -2.122  -0.708  0.00  0.00    +0.007 C 
ENDBRANCH  16  18
ENDBRANCH   1  16
BRANCH   1  20
ATOM     20  C   UNL     1       0.693  -0.533   4.016  0.00  0.00    +0.023 C 
BRANCH  20  21
ATOM     21  C   UNL     1       1.874   0.388   3.847  0.00  0.00    -0.006 C 
ATOM     22  C   UNL     1       3.122  -0.072   4.062  0.00  0.00    +0.077 C 
ATOM     23  C   UNL     1       4.271   0.854   4.266  0.00  0.00    +0.159 C 
ATOM     24  N   UNL     1       4.100   2.157   4.244  0.00  0.00    -0.281 NA
ATOM     25  N   UNL     1       5.483   0.322   4.475  0.00  0.00    -0.212 NA
ATOM     26  C   UNL     1       5.696  -0.989   4.505  0.00  0.00    +0.134 C 
ATOM     27  C   UNL     1       7.014  -1.441   4.733  0.00  0.00    +0.044 C 
ATOM     28  C   UNL     1       7.273  -2.776   4.771  0.00  0.00    +0.005 C 
ATOM     29  C   UNL     1       6.226  -3.691   4.584  0.00  0.00    +0.016 C 
ATOM     30  C   UNL     1       4.971  -3.246   4.367  0.00  0.00    +0.085 C 
ATOM     31  N   UNL     1       4.696  -1.907   4.327  0.00  0.00    -0.227 N 
ATOM     32  C   UNL     1       3.418  -1.520   4.112  0.00  0.00    +0.259 C 
ATOM     33  O   UNL     1       2.536  -2.342   3.959  0.00  0.00    -0.269 OA
ATOM     34  H   UNL     1       4.857   2.748   4.379  0.00  0.00    +0.188 HD
ENDBRANCH  20  21
BRANCH  20  35
ATOM     35  C   UNL     1      -0.257   0.043   5.067  0.00  0.00    -0.010 C 
ATOM     36  C   UNL     1       0.421   0.014   6.438  0.00  0.00    +0.008 C 
ATOM     37  C   UNL     1      -0.607   1.487   4.702  0.00  0.00    +0.008 C 
ENDBRANCH  20  35
ENDBRANCH   1  20
TORSDOF 7
