REMARK  Name = ZINC01415787
REMARK  8 active torsions:
REMARK  status: ('A' for Active; 'I' for Inactive)
REMARK    1  A    between atoms: C_1  and  C_2
REMARK    2  A    between atoms: C_2  and  C_3
REMARK    3  A    between atoms: C_2  and  C_4
REMARK    4  A    between atoms: C_7  and  C_9
REMARK    5  A    between atoms: C_7  and  O_13
REMARK    6  A    between atoms: C_16  and  C_19
REMARK    7  A    between atoms: C_22  and  O_25
REMARK    8  A    between atoms: O_25  and  C_26
REMARK                            x       y       z     vdW  Elec       q    Type
REMARK                         _______ _______ _______ _____ _____    ______ ____
ROOT
ATOM      1  C   UNL     1       5.218  -2.017  -0.059  0.00  0.00    +0.044 C 
ATOM      2  N   UNL     1       3.966  -1.808  -0.046  0.00  0.00    -0.184 NA
ATOM      3  N   UNL     1       3.604  -0.463  -0.035  0.00  0.00    -0.160 N 
ATOM      4  C   UNL     1       4.828   0.355  -0.048  0.00  0.00    +0.256 C 
ATOM      5  C   UNL     1       5.956  -0.697  -0.058  0.00  0.00    +0.119 C 
ATOM      6  C   UNL     1       2.307   0.025  -0.020  0.00  0.00    +0.184 A 
ATOM      7  N   UNL     1       1.165  -0.639  -0.013  0.00  0.00    -0.223 NA
ATOM      8  C   UNL     1       0.002  -0.004   0.002  0.00  0.00    +0.080 A 
ATOM      9  C   UNL     1      -0.017   1.362   0.009  0.00  0.00    +0.077 A 
ATOM     10  S   UNL     1       1.736   1.718  -0.005  0.00  0.00    -0.058 S 
ENDROOT
BRANCH   8  11
ATOM     11  C   UNL     1      -1.268  -0.770   0.011  0.00  0.00    +0.001 A 
ATOM     12  C   UNL     1      -1.245  -2.160   0.103  0.00  0.00    +0.013 A 
ATOM     13  C   UNL     1      -2.428  -2.869   0.116  0.00  0.00    +0.046 A 
ATOM     14  C   UNL     1      -3.641  -2.200   0.026  0.00  0.00    +0.120 A 
ATOM     15  C   UNL     1      -3.667  -0.815  -0.071  0.00  0.00    +0.046 A 
ATOM     16  C   UNL     1      -2.488  -0.101  -0.079  0.00  0.00    +0.013 A 
BRANCH  14  17
ATOM     17  O   UNL     1      -4.805  -2.901   0.035  0.00  0.00    -0.495 OA
ATOM     18  C   UNL     1      -4.705  -4.323   0.138  0.00  0.00    +0.277 C 
ENDBRANCH  14  17
ENDBRANCH   8  11
BRANCH   4  19
ATOM     19  C   UNL     1       4.913   1.221   1.211  0.00  0.00    +0.438 C 
ATOM     20  F   UNL     1       4.897   0.400   2.343  0.00  0.00    -0.166 F 
ATOM     21  F   UNL     1       6.099   1.962   1.188  0.00  0.00    -0.166 F 
ATOM     22  F   UNL     1       3.819   2.093   1.251  0.00  0.00    -0.166 F 
ENDBRANCH   4  19
BRANCH   1  24
ATOM     23  C   UNL     1       4.799  -4.458   0.056  0.00  0.00    +0.013 C 
ATOM     24  C   UNL     1       5.872  -3.375  -0.073  0.00  0.00    +0.029 C 
ATOM     25  C   UNL     1       6.630  -3.562  -1.388  0.00  0.00    +0.013 C 
ENDBRANCH   1  24
BRANCH   4  26
ATOM     26  O   UNL     1       4.881   1.166  -1.224  0.00  0.00    -0.363 OA
ATOM     27  H   UNL     1       4.151   1.795  -1.300  0.00  0.00    +0.212 HD
ENDBRANCH   4  26
TORSDOF 5
