REMARK  Name = ZINC07132561
REMARK  6 active torsions:
REMARK  status: ('A' for Active; 'I' for Inactive)
REMARK    1  A    between atoms: C_1  and  C_2
REMARK    2  A    between atoms: C_2  and  C_4
REMARK    3  A    between atoms: C_2  and  O_14
REMARK    4  A    between atoms: N_6  and  C_7
REMARK    5  A    between atoms: O_14  and  C_15
REMARK    6  A    between atoms: C_15  and  C_17
REMARK                            x       y       z     vdW  Elec       q    Type
REMARK                         _______ _______ _______ _____ _____    ______ ____
ROOT
ATOM      1  C   UNL     1      -2.458  -3.463  -1.464  0.00  0.00    +0.062 C 
ATOM      2  C   UNL     1      -2.045  -3.152  -0.024  0.00  0.00    +0.259 C 
ENDROOT
BRANCH   2   3
ATOM      3  C   UNL     1      -1.707  -4.436   0.689  0.00  0.00    +0.258 C 
ATOM      4  O   UNL     1      -0.596  -4.602   1.147  0.00  0.00    -0.271 OA
ATOM      5  N   UNL     1      -2.640  -5.400   0.819  0.00  0.00    -0.280 N 
ATOM      6  H   UNL     1      -3.550  -5.237   0.526  0.00  0.00    +0.155 HD
BRANCH   5   7
ATOM      7  C   UNL     1      -2.296  -6.637   1.377  0.00  0.00    +0.071 A 
ATOM      8  C   UNL     1      -0.980  -7.089   1.334  0.00  0.00    +0.028 A 
ATOM      9  C   UNL     1      -0.688  -8.320   1.899  0.00  0.00    +0.022 A 
ATOM     10  C   UNL     1      -1.703  -9.054   2.483  0.00  0.00    +0.112 A 
ATOM     11  N   UNL     1      -2.941  -8.598   2.509  0.00  0.00    -0.242 NA
ATOM     12  C   UNL     1      -3.261  -7.429   1.987  0.00  0.00    +0.150 A 
ATOM     13 CL   UNL     1      -4.906  -6.879   2.057  0.00  0.00    -0.060 Cl
ENDBRANCH   5   7
ENDBRANCH   2   3
BRANCH   2  14
ATOM     14  O   UNL     1      -0.882  -2.283  -0.031  0.00  0.00    -0.448 OA
BRANCH  14  15
ATOM     15  C   UNL     1      -1.112  -0.953  -0.035  0.00  0.00    +0.347 C 
ATOM     16  O   UNL     1      -2.253  -0.533  -0.032  0.00  0.00    -0.244 OA
BRANCH  15  17
ATOM     17  C   UNL     1       0.013  -0.016  -0.042  0.00  0.00    +0.097 A 
ATOM     18  C   UNL     1      -0.004   1.368  -0.047  0.00  0.00    +0.026 A 
ATOM     19  C   UNL     1       1.214   2.036  -0.059  0.00  0.00    -0.036 A 
ATOM     20  C   UNL     1       2.328   1.267  -0.041  0.00  0.00    -0.006 A 
ATOM     21  S   UNL     1       1.765  -0.359  -0.048  0.00  0.00    -0.086 S 
ATOM     22  C   UNL     1       3.759   1.750   0.011  0.00  0.00    +0.043 C 
ATOM     23  C   UNL     1       4.059   2.430  -1.337  0.00  0.00    +0.005 C 
ATOM     24  C   UNL     1       3.477   3.824  -1.361  0.00  0.00    +0.001 C 
ATOM     25  C   UNL     1       1.977   3.923  -1.456  0.00  0.00    +0.005 C 
ATOM     26  C   UNL     1       1.292   3.565  -0.136  0.00  0.00    +0.036 C 
ENDBRANCH  15  17
ENDBRANCH  14  15
ENDBRANCH   2  14
TORSDOF 5
