REMARK  Name = ZINC12347590
REMARK  9 active torsions:
REMARK  status: ('A' for Active; 'I' for Inactive)
REMARK    1  A    between atoms: C_1  and  C_2
REMARK    2  A    between atoms: C_2  and  N_3
REMARK    3  A    between atoms: N_3  and  C_4
REMARK    4  A    between atoms: N_3  and  C_6
REMARK    5  A    between atoms: C_4  and  C_5
REMARK    6  A    between atoms: C_9  and  C_12
REMARK    7  A    between atoms: C_19  and  O_20
REMARK    8  A    between atoms: C_27  and  C_29
REMARK    9  A    between atoms: C_27  and  C_30
REMARK                            x       y       z     vdW  Elec       q    Type
REMARK                         _______ _______ _______ _____ _____    ______ ____
ROOT
ATOM      1  C   UNL     1      -0.013   1.086   0.008  0.00  0.00    +0.092 C 
ATOM      2  C   UNL     1      -0.714   1.569   1.245  0.00  0.00    +0.067 A 
ATOM      3  C   UNL     1      -1.667   2.552   1.213  0.00  0.00    +0.126 A 
ATOM      4  N   UNL     1      -2.091   2.755   2.475  0.00  0.00    -0.260 N 
ATOM      5  H   UNL     1      -2.785   3.415   2.765  0.00  0.00    +0.190 HD
ATOM      6  N   UNL     1      -1.386   1.874   3.311  0.00  0.00    -0.134 NA
ATOM      7  C   UNL     1      -0.562   1.166   2.569  0.00  0.00    +0.237 A 
ATOM      8  N   UNL     1      -2.044   3.156   0.020  0.00  0.00    -0.303 N 
ATOM      9  C   UNL     1      -1.675   2.562  -1.161  0.00  0.00    +0.017 C 
ATOM     10  C   UNL     1      -0.743   1.586  -1.220  0.00  0.00    +0.024 C 
ATOM     11  C   UNL     1      -0.406   0.983  -2.445  0.00  0.00    +0.162 C 
ATOM     12  O   UNL     1       0.440   0.110  -2.464  0.00  0.00    -0.292 OA
ATOM     13  C   UNL     1      -1.068   1.391  -3.731  0.00  0.00    +0.086 C 
ATOM     14  C   UNL     1      -2.477   1.909  -3.422  0.00  0.00    -0.023 C 
ATOM     15  C   UNL     1      -2.359   3.054  -2.416  0.00  0.00    +0.058 C 
ATOM     16  C   UNL     1      -3.320   0.781  -2.823  0.00  0.00    +0.011 C 
ATOM     17  C   UNL     1      -3.133   2.417  -4.708  0.00  0.00    +0.011 C 
ATOM     18  H   UNL     1      -2.558   3.979   0.021  0.00  0.00    +0.153 HD
ENDROOT
BRANCH   1  22
ATOM     19  C   UNL     1       3.998   2.563  -0.022  0.00  0.00    +0.030 A 
ATOM     20  C   UNL     1       3.760   1.194  -0.027  0.00  0.00    +0.023 A 
ATOM     21  C   UNL     1       2.463   0.720  -0.018  0.00  0.00    +0.006 A 
ATOM     22  C   UNL     1       1.401   1.607  -0.003  0.00  0.00    -0.035 A 
ATOM     23  C   UNL     1       1.635   2.970  -0.003  0.00  0.00    +0.006 A 
ATOM     24  C   UNL     1       2.929   3.450  -0.007  0.00  0.00    +0.023 A 
BRANCH  19  25
ATOM     25  N   UNL     1       5.309   3.045  -0.033  0.00  0.00    -0.330 N 
BRANCH  25  27
ATOM     26  C   UNL     1       5.659   4.984   1.417  0.00  0.00    +0.024 C 
ATOM     27  C   UNL     1       5.558   4.489  -0.027  0.00  0.00    +0.102 C 
ENDBRANCH  25  27
BRANCH  25  28
ATOM     28  C   UNL     1       6.434   2.108  -0.049  0.00  0.00    +0.102 C 
ATOM     29  C   UNL     1       6.812   1.789  -1.497  0.00  0.00    +0.024 C 
ENDBRANCH  25  28
ENDBRANCH  19  25
ENDBRANCH   1  22
BRANCH   7  30
ATOM     30  O   UNL     1       0.290   0.206   3.018  0.00  0.00    -0.491 OA
ATOM     31  H   UNL     1       0.198   0.116   4.010  0.00  0.00    +0.294 HD
ENDBRANCH   7  30
TORSDOF 5
