REMARK  Name = ZINC04164387
REMARK  7 active torsions:
REMARK  status: ('A' for Active; 'I' for Inactive)
REMARK    1  A    between atoms: C_1  and  C_2
REMARK    2  A    between atoms: C_2  and  C_3
REMARK    3  A    between atoms: C_3  and  S_4
REMARK    4  A    between atoms: S_4  and  C_5
REMARK    5  A    between atoms: C_12  and  C_16
REMARK    6  A    between atoms: C_13  and  C_15
REMARK    7  A    between atoms: N_19  and  C_20
REMARK                            x       y       z     vdW  Elec       q    Type
REMARK                         _______ _______ _______ _____ _____    ______ ____
ROOT
ATOM      1  C   UNL     1       4.680   0.299   1.029  0.00  0.00    +0.198 A 
ATOM      2  N   UNL     1       5.556  -0.628   1.329  0.00  0.00    -0.120 NA
ATOM      3  N   UNL     1       5.014  -1.869   0.972  0.00  0.00    -0.109 NA
ATOM      4  C   UNL     1       3.822  -1.662   0.464  0.00  0.00    +0.245 A 
ATOM      5  N   UNL     1       3.581  -0.312   0.485  0.00  0.00    -0.249 N 
ATOM      6  C   UNL     1       2.391   0.186   0.005  0.00  0.00    +0.102 A 
ATOM      7  C   UNL     1       1.400  -0.643  -0.513  0.00  0.00    +0.074 A 
ATOM      8  C   UNL     1       0.204   0.043  -0.978  0.00  0.00    -0.026 A 
ATOM      9  C   UNL     1       0.165   1.380  -0.869  0.00  0.00    -0.008 A 
ATOM     10  S   UNL     1       1.739   1.776  -0.134  0.00  0.00    -0.075 S 
ATOM     11  C   UNL     1      -0.940   2.321  -1.276  0.00  0.00    +0.052 C 
ATOM     12  C   UNL     1      -0.954  -0.723  -1.563  0.00  0.00    +0.045 C 
ATOM     13  C   UNL     1       1.696  -2.094  -0.519  0.00  0.00    +0.268 A 
ATOM     14  O   UNL     1       0.879  -2.883  -0.956  0.00  0.00    -0.266 OA
ATOM     15  N   UNL     1       2.871  -2.536  -0.040  0.00  0.00    -0.245 N 
ENDROOT
BRANCH  15  16
ATOM     16  C   UNL     1       3.141  -3.909  -0.050  0.00  0.00    +0.053 A 
ATOM     17  C   UNL     1       3.758  -4.489  -1.151  0.00  0.00    +0.026 A 
ATOM     18  C   UNL     1       4.028  -5.843  -1.157  0.00  0.00    +0.002 A 
ATOM     19  C   UNL     1       3.674  -6.625  -0.072  0.00  0.00    +0.000 A 
ATOM     20  C   UNL     1       3.055  -6.051   1.024  0.00  0.00    +0.002 A 
ATOM     21  C   UNL     1       2.788  -4.697   1.038  0.00  0.00    +0.026 A 
ENDBRANCH  15  16
BRANCH   1  22
ATOM     22  S   UNL     1       4.880   2.031   1.282  0.00  0.00    -0.086 S 
BRANCH  22  23
ATOM     23  C   UNL     1       6.529   2.179   2.025  0.00  0.00    +0.077 C 
BRANCH  23  25
ATOM     24  C   UNL     1       8.224   3.777   2.927  0.00  0.00    +0.004 C 
ATOM     25  C   UNL     1       6.834   3.652   2.300  0.00  0.00    +0.008 C 
ENDBRANCH  23  25
ENDBRANCH  22  23
ENDBRANCH   1  22
TORSDOF 4
