REMARK  Name = ZINC15894498
REMARK  4 active torsions:
REMARK  status: ('A' for Active; 'I' for Inactive)
REMARK    1  A    between atoms: C_4  and  N_7
REMARK    2  A    between atoms: N_19  and  C_20
REMARK    3  A    between atoms: C_20  and  C_22
REMARK    4  A    between atoms: C_22  and  C_23
REMARK                            x       y       z     vdW  Elec       q    Type
REMARK                         _______ _______ _______ _____ _____    ______ ____
ROOT
ATOM      1  N   UNL     1       3.621  -0.650  -0.036  0.00  0.00    -0.276 N 
ATOM      2  C   UNL     1       3.647  -2.100   0.060  0.00  0.00    +0.116 C 
ATOM      3  C   UNL     1       2.816  -2.701  -1.097  0.00  0.00    +0.190 C 
ATOM      4  S   UNL     1       3.778  -4.222  -1.501  0.00  0.00    -0.028 S 
ATOM      5  O   UNL     1       3.417  -5.260  -0.602  0.00  0.00    -0.174 OA
ATOM      6  O   UNL     1       3.727  -4.453  -2.902  0.00  0.00    -0.174 OA
ATOM      7  C   UNL     1       5.446  -3.573  -1.048  0.00  0.00    +0.182 C 
ATOM      8  C   UNL     1       5.089  -2.623   0.097  0.00  0.00    +0.097 C 
ATOM      9  S   UNL     1       6.039  -1.067  -0.099  0.00  0.00    -0.086 S 
ATOM     10  C   UNL     1       4.781   0.040  -0.147  0.00  0.00    +0.154 C 
ATOM     11  N   UNL     1       4.900   1.355  -0.283  0.00  0.00    -0.159 NA
ENDROOT
BRANCH   1  15
ATOM     12  C   UNL     1      -0.017   1.378   0.010  0.00  0.00    +0.000 A 
ATOM     13  C   UNL     1       0.754   1.371  -1.137  0.00  0.00    +0.002 A 
ATOM     14  C   UNL     1       1.961   0.700  -1.156  0.00  0.00    +0.023 A 
ATOM     15  C   UNL     1       2.400   0.031  -0.021  0.00  0.00    +0.036 A 
ATOM     16  C   UNL     1       1.622   0.040   1.130  0.00  0.00    +0.023 A 
ATOM     17  C   UNL     1       0.416   0.713   1.142  0.00  0.00    +0.002 A 
ENDBRANCH   1  15
BRANCH  11  18
ATOM     18  C   UNL     1       6.107   1.907  -0.382  0.00  0.00    +0.238 C 
ATOM     19  O   UNL     1       7.100   1.208  -0.346  0.00  0.00    -0.274 OA
BRANCH  18  20
ATOM     20  C   UNL     1       6.242   3.400  -0.537  0.00  0.00    +0.101 C 
BRANCH  20  21
ATOM     21  C   UNL     1       7.723   3.772  -0.626  0.00  0.00    -0.002 C 
ATOM     22  C   UNL     1       8.414   3.438   0.697  0.00  0.00    +0.004 C 
ATOM     23  C   UNL     1       9.896   3.810   0.608  0.00  0.00    +0.000 C 
ATOM     24  C   UNL     1      10.030   5.308   0.326  0.00  0.00    +0.000 C 
ATOM     25  C   UNL     1       9.339   5.641  -0.998  0.00  0.00    +0.000 C 
ATOM     26  C   UNL     1       7.857   5.270  -0.908  0.00  0.00    +0.004 C 
ENDBRANCH  20  21
ENDBRANCH  18  20
ENDBRANCH  11  18
TORSDOF 4
