REMARK  Name = ZINC40923239
REMARK  6 active torsions:
REMARK  status: ('A' for Active; 'I' for Inactive)
REMARK    1  A    between atoms: C_1  and  C_2
REMARK    2  A    between atoms: C_2  and  C_32
REMARK    3  A    between atoms: C_6  and  C_14
REMARK    4  A    between atoms: C_19  and  O_20
REMARK    5  A    between atoms: O_20  and  C_21
REMARK    6  A    between atoms: C_21  and  C_22
REMARK                            x       y       z     vdW  Elec       q    Type
REMARK                         _______ _______ _______ _____ _____    ______ ____
ROOT
ATOM      1  C   UNL     1      -0.019   1.526   0.010  0.00  0.00    +0.011 C 
ATOM      2  C   UNL     1       0.002  -0.004   0.002  0.00  0.00    -0.023 C 
ATOM      3  C   UNL     1       0.742  -0.503  -1.241  0.00  0.00    +0.058 C 
ATOM      4  C   UNL     1       2.168  -0.005  -1.216  0.00  0.00    +0.020 C 
ATOM      5  C   UNL     1       2.816   0.183  -0.046  0.00  0.00    +0.041 C 
ATOM      6  C   UNL     1       4.250   0.664   0.012  0.00  0.00    +0.181 C 
ATOM      7  N   UNL     1       4.652   1.183  -1.287  0.00  0.00    -0.201 N 
ATOM      8  C   UNL     1       3.946   0.976  -2.429  0.00  0.00    +0.240 A 
ATOM      9  N   UNL     1       4.589   1.569  -3.393  0.00  0.00    -0.092 NA
ATOM     10  N   UNL     1       5.651   2.139  -2.938  0.00  0.00    -0.021 NA
ATOM     11  N   UNL     1       5.755   1.947  -1.663  0.00  0.00    -0.042 NA
ATOM     12  N   UNL     1       2.766   0.251  -2.427  0.00  0.00    -0.286 N 
ATOM     13  C   UNL     1       2.173  -0.060   1.181  0.00  0.00    +0.164 C 
ATOM     14  O   UNL     1       2.788   0.103   2.216  0.00  0.00    -0.292 OA
ATOM     15  C   UNL     1       0.742  -0.517   1.242  0.00  0.00    +0.086 C 
ATOM     16  C   UNL     1      -1.431  -0.539  -0.001  0.00  0.00    +0.011 C 
ATOM     17  H   UNL     1       2.374  -0.067  -3.255  0.00  0.00    +0.155 HD
ENDROOT
BRANCH   6  18
ATOM     18  C   UNL     1       5.148  -0.485   0.390  0.00  0.00    +0.023 A 
ATOM     19  C   UNL     1       5.209  -1.608  -0.413  0.00  0.00    +0.009 A 
ATOM     20  C   UNL     1       6.033  -2.663  -0.067  0.00  0.00    +0.001 A 
ATOM     21  C   UNL     1       6.798  -2.597   1.083  0.00  0.00    +0.004 A 
ATOM     22  C   UNL     1       6.741  -1.477   1.889  0.00  0.00    +0.046 A 
ATOM     23  C   UNL     1       5.919  -0.415   1.541  0.00  0.00    +0.127 A 
BRANCH  23  24
ATOM     24  O   UNL     1       5.865   0.691   2.329  0.00  0.00    -0.487 OA
BRANCH  24  25
ATOM     25  C   UNL     1       6.686   0.695   3.499  0.00  0.00    +0.266 C 
BRANCH  25  26
ATOM     26  C   UNL     1       6.496   1.992   4.242  0.00  0.00    +0.008 A 
ATOM     27  C   UNL     1       5.621   2.946   3.755  0.00  0.00    +0.008 A 
ATOM     28  C   UNL     1       5.447   4.135   4.437  0.00  0.00    +0.000 A 
ATOM     29  C   UNL     1       6.146   4.372   5.606  0.00  0.00    +0.001 A 
ATOM     30  C   UNL     1       7.021   3.419   6.093  0.00  0.00    +0.020 A 
ATOM     31  C   UNL     1       7.192   2.226   5.414  0.00  0.00    +0.047 A 
ATOM     32 CL   UNL     1       8.285   1.026   6.029  0.00  0.00    -0.083 Cl
ENDBRANCH  25  26
ENDBRANCH  24  25
ENDBRANCH  23  24
ENDBRANCH   6  18
TORSDOF 4
