REMARK  Name = ZINC46865757
REMARK  8 active torsions:
REMARK  status: ('A' for Active; 'I' for Inactive)
REMARK    1  A    between atoms: C_1  and  C_2
REMARK    2  A    between atoms: C_3  and  C_29
REMARK    3  A    between atoms: C_7  and  S_12
REMARK    4  A    between atoms: C_10  and  C_11
REMARK    5  A    between atoms: S_12  and  C_13
REMARK    6  A    between atoms: C_13  and  C_15
REMARK    7  A    between atoms: C_13  and  C_16
REMARK    8  A    between atoms: N_18  and  C_19
REMARK                            x       y       z     vdW  Elec       q    Type
REMARK                         _______ _______ _______ _____ _____    ______ ____
ROOT
ATOM      1  C   UNL     1       0.100  -6.967   0.931  0.00  0.00    +0.137 C 
ATOM      2  C   UNL     1      -1.212  -6.856   0.152  0.00  0.00    +0.029 C 
ENDROOT
BRANCH   1   3
ATOM      3  C   UNL     1       0.244  -8.364   1.476  0.00  0.00    +0.227 C 
ATOM      4  O   UNL     1      -0.112  -8.614   2.608  0.00  0.00    -0.275 OA
ATOM      5  N   UNL     1       0.770  -9.337   0.706  0.00  0.00    -0.309 N 
ATOM      6  H   UNL     1       1.055  -9.138  -0.200  0.00  0.00    +0.149 HD
BRANCH   5   7
ATOM      7  C   UNL     1       0.910 -10.696   1.236  0.00  0.00    +0.035 C 
ATOM      8  C   UNL     1      -0.467 -11.236   1.625  0.00  0.00    +0.029 C 
ATOM      9  C   UNL     1      -0.320 -12.655   2.178  0.00  0.00    -0.008 C 
ATOM     10  C   UNL     1       0.298 -13.558   1.109  0.00  0.00    +0.007 C 
ATOM     11  C   UNL     1       1.676 -13.018   0.720  0.00  0.00    -0.008 C 
ATOM     12  C   UNL     1       1.529 -11.599   0.166  0.00  0.00    +0.029 C 
ATOM     13  C   UNL     1       2.581 -12.993   1.953  0.00  0.00    +0.007 C 
ATOM     14  C   UNL     1       1.963 -12.090   3.022  0.00  0.00    -0.008 C 
ATOM     15  C   UNL     1       0.586 -12.631   3.411  0.00  0.00    +0.007 C 
ATOM     16  C   UNL     1       1.816 -10.671   2.468  0.00  0.00    +0.029 C 
ENDBRANCH   5   7
ENDBRANCH   1   3
BRANCH   1  17
ATOM     17  S   UNL     1       0.090  -5.781   2.304  0.00  0.00    -0.072 S 
BRANCH  17  24
ATOM     18  C   UNL     1      -0.018   1.503   0.010  0.00  0.00    +0.047 C 
ATOM     19  C   UNL     1       0.002  -0.004   0.002  0.00  0.00    -0.008 A 
ATOM     20  C   UNL     1       0.006  -0.705  -1.209  0.00  0.00    +0.047 A 
ATOM     21  N   UNL     1       0.024  -2.019  -1.214  0.00  0.00    -0.216 NA
ATOM     22  C   UNL     1       0.038  -2.710  -0.068  0.00  0.00    +0.254 A 
ATOM     23  N   UNL     1       0.057  -4.013   0.191  0.00  0.00    -0.183 NA
ATOM     24  C   UNL     1       0.066  -4.209   1.508  0.00  0.00    +0.212 A 
ATOM     25  N   UNL     1       0.053  -3.044   2.124  0.00  0.00    -0.137 NA
ATOM     26  N   UNL     1       0.035  -2.055   1.131  0.00  0.00    -0.200 N 
ATOM     27  C   UNL     1       0.023  -0.698   1.170  0.00  0.00    +0.048 A 
ATOM     28  C   UNL     1       0.025   0.029   2.490  0.00  0.00    +0.066 C 
ATOM     29  C   UNL     1      -0.011   0.050  -2.513  0.00  0.00    +0.066 C 
ENDBRANCH  17  24
ENDBRANCH   1  17
TORSDOF 4
