REMARK  Name = ZINC32901015
REMARK  8 active torsions:
REMARK  status: ('A' for Active; 'I' for Inactive)
REMARK    1  A    between atoms: C_1  and  C_2
REMARK    2  A    between atoms: C_2  and  O_3
REMARK    3  A    between atoms: O_3  and  C_4
REMARK    4  A    between atoms: N_6  and  N_7
REMARK    5  A    between atoms: C_8  and  C_10
REMARK    6  A    between atoms: C_11  and  C_25
REMARK    7  A    between atoms: C_13  and  C_24
REMARK    8  A    between atoms: C_15  and  C_19
REMARK                            x       y       z     vdW  Elec       q    Type
REMARK                         _______ _______ _______ _____ _____    ______ ____
ROOT
ATOM      1  C   UNL     1       1.767   1.438   4.031  0.00  0.00    +0.081 A 
ATOM      2  C   UNL     1       1.347   1.457   2.737  0.00  0.00    -0.020 A 
ATOM      3  C   UNL     1       0.068   1.940   2.424  0.00  0.00    +0.032 A 
ATOM      4  C   UNL     1      -0.564   2.048   1.158  0.00  0.00    +0.051 A 
ATOM      5  N   UNL     1      -1.779   2.539   1.082  0.00  0.00    -0.229 NA
ATOM      6  C   UNL     1      -2.455   2.936   2.160  0.00  0.00    +0.197 A 
ATOM      7  N   UNL     1      -1.918   2.860   3.375  0.00  0.00    -0.217 NA
ATOM      8  C   UNL     1      -0.705   2.385   3.531  0.00  0.00    +0.113 A 
ATOM      9  S   UNL     1       0.370   2.110   4.915  0.00  0.00    -0.064 S 
ATOM     10  C   UNL     1       0.156   1.609  -0.090  0.00  0.00    +0.066 C 
ATOM     11  C   UNL     1       2.254   0.958   1.642  0.00  0.00    +0.046 C 
ENDROOT
BRANCH   6  12
ATOM     12  C   UNL     1      -3.819   3.472   2.003  0.00  0.00    +0.172 A 
ATOM     13  C   UNL     1      -4.624   3.918   3.007  0.00  0.00    +0.053 A 
ATOM     14  C   UNL     1      -5.826   4.337   2.407  0.00  0.00    +0.042 A 
ATOM     15  C   UNL     1      -5.699   4.129   1.080  0.00  0.00    +0.196 A 
ATOM     16  O   UNL     1      -4.485   3.613   0.839  0.00  0.00    -0.460 OA
ENDBRANCH   6  12
BRANCH   1  18
ATOM     17  N   UNL     1       3.291   1.036   5.894  0.00  0.00    -0.227 N 
ATOM     18  C   UNL     1       3.054   0.977   4.569  0.00  0.00    +0.267 C 
ATOM     19  O   UNL     1       3.906   0.541   3.817  0.00  0.00    -0.268 OA
ATOM     20  H   UNL     1       2.521   1.430   6.573  0.00  0.00    +0.173 HD
BRANCH  17  23
ATOM     21  C   UNL     1       4.755   0.656   7.732  0.00  0.00    +0.417 C 
ATOM     22  O   UNL     1       5.820   0.275   8.177  0.00  0.00    -0.225 OA
ATOM     23  N   UNL     1       4.518   0.597   6.407  0.00  0.00    -0.199 N 
ATOM     24  H   UNL     1       5.289   0.203   5.727  0.00  0.00    +0.176 HD
BRANCH  21  25
ATOM     25  O   UNL     1       3.813   1.138   8.563  0.00  0.00    -0.450 OA
BRANCH  25  27
ATOM     26  C   UNL     1       2.953   1.747  10.759  0.00  0.00    +0.048 C 
ATOM     27  C   UNL     1       4.137   1.173   9.978  0.00  0.00    +0.230 C 
ENDBRANCH  25  27
ENDBRANCH  21  25
ENDBRANCH  17  23
ENDBRANCH   1  18
TORSDOF 5
