REMARK  Name = ZINC09335975
REMARK  6 active torsions:
REMARK  status: ('A' for Active; 'I' for Inactive)
REMARK    1  A    between atoms: C_7  and  C_11
REMARK    2  A    between atoms: C_14  and  S_19
REMARK    3  A    between atoms: N_15  and  C_16
REMARK    4  A    between atoms: S_19  and  C_20
REMARK    5  A    between atoms: C_20  and  C_21
REMARK    6  A    between atoms: N_23  and  N_24
REMARK                            x       y       z     vdW  Elec       q    Type
REMARK                         _______ _______ _______ _____ _____    ______ ____
ROOT
ATOM      1  S   UNL     1      -5.202   5.990   0.042  0.00  0.00    -0.077 S 
ENDROOT
BRANCH   1   5
ATOM      2  C   UNL     1      -1.729   4.199   0.002  0.00  0.00    +0.167 A 
ATOM      3  N   UNL     1      -1.400   5.465   0.112  0.00  0.00    -0.128 NA
ATOM      4  N   UNL     1      -2.459   6.193   0.139  0.00  0.00    -0.122 NA
ATOM      5  C   UNL     1      -3.529   5.437   0.047  0.00  0.00    +0.193 A 
ATOM      6  N   UNL     1      -3.102   4.141  -0.050  0.00  0.00    -0.299 N 
BRANCH   2  13
ATOM      7  C   UNL     1       2.928   3.882  -0.291  0.00  0.00    +0.001 A 
ATOM      8  C   UNL     1       3.373   2.568  -0.326  0.00  0.00    +0.002 A 
ATOM      9  C   UNL     1       2.478   1.522  -0.275  0.00  0.00    +0.026 A 
ATOM     10  C   UNL     1       1.113   1.784  -0.188  0.00  0.00    +0.047 A 
ATOM     11  C   UNL     1       0.670   3.116  -0.153  0.00  0.00    +0.010 A 
ATOM     12  C   UNL     1       1.592   4.160  -0.207  0.00  0.00    +0.011 A 
ATOM     13  C   UNL     1      -0.799   3.053  -0.062  0.00  0.00    +0.044 A 
ATOM     14  C   UNL     1      -1.132   1.737  -0.054  0.00  0.00    +0.095 A 
ATOM     15  N   UNL     1      -0.001   0.975  -0.123  0.00  0.00    -0.360 N 
ATOM     16  H   UNL     1       0.016   0.005  -0.129  0.00  0.00    +0.165 HD
ENDBRANCH   2  13
BRANCH   6  17
ATOM     17  C   UNL     1      -3.934   2.942  -0.178  0.00  0.00    +0.091 C 
ATOM     18  C   UNL     1      -5.398   3.137  -0.579  0.00  0.00    +0.027 C 
ATOM     19  C   UNL     1      -5.044   2.738   0.856  0.00  0.00    +0.027 C 
ENDBRANCH   6  17
ENDBRANCH   1   5
BRANCH   1  20
ATOM     20  C   UNL     1      -4.944   7.775   0.193  0.00  0.00    +0.174 C 
BRANCH  20  21
ATOM     21  C   UNL     1      -6.277   8.476   0.209  0.00  0.00    +0.240 C 
ATOM     22  O   UNL     1      -7.302   7.832   0.127  0.00  0.00    -0.273 OA
ATOM     23  N   UNL     1      -6.332   9.819   0.315  0.00  0.00    -0.223 N 
ATOM     24  H   UNL     1      -5.513  10.334   0.381  0.00  0.00    +0.174 HD
BRANCH  23  25
ATOM     25  N   UNL     1      -7.572  10.470   0.331  0.00  0.00    -0.137 N 
ATOM     26  C   UNL     1      -8.141  10.991   1.437  0.00  0.00    +0.263 C 
ATOM     27  O   UNL     1      -7.694  10.986   2.564  0.00  0.00    -0.271 OA
ATOM     28  C   UNL     1      -9.453  11.584   0.976  0.00  0.00    +0.114 C 
ATOM     29  C   UNL     1      -9.476  13.087   1.233  0.00  0.00    +0.035 C 
ATOM     30  C   UNL     1     -10.800  13.672   0.734  0.00  0.00    +0.003 C 
ATOM     31  C   UNL     1     -11.963  12.995   1.462  0.00  0.00    +0.000 C 
ATOM     32  C   UNL     1     -11.940  11.492   1.175  0.00  0.00    +0.003 C 
ATOM     33  C   UNL     1     -10.621  10.898   1.676  0.00  0.00    +0.035 C 
ATOM     34  N   UNL     1      -9.482  11.308  -0.466  0.00  0.00    -0.284 N 
ATOM     35  C   UNL     1      -8.337  10.658  -0.752  0.00  0.00    +0.326 C 
ATOM     36  O   UNL     1      -8.034  10.282  -1.867  0.00  0.00    -0.251 OA
ATOM     37  H   UNL     1     -10.184  11.549  -1.090  0.00  0.00    +0.151 HD
ENDBRANCH  23  25
ENDBRANCH  20  21
ENDBRANCH   1  20
TORSDOF 6
