REMARK  Name = ZINC43548628
REMARK  10 active torsions:
REMARK  status: ('A' for Active; 'I' for Inactive)
REMARK    1  A    between atoms: C_1  and  C_2
REMARK    2  A    between atoms: C_2  and  C_3
REMARK    3  A    between atoms: C_3  and  C_4
REMARK    4  A    between atoms: C_4  and  N_5
REMARK    5  A    between atoms: C_12  and  C_36
REMARK    6  A    between atoms: C_15  and  C_25
REMARK    7  A    between atoms: C_17  and  O_24
REMARK    8  A    between atoms: C_21  and  C_23
REMARK    9  A    between atoms: C_25  and  C_27
REMARK   10  A    between atoms: C_25  and  C_28
REMARK                            x       y       z     vdW  Elec       q    Type
REMARK                         _______ _______ _______ _____ _____    ______ ____
ROOT
ATOM      1  N   UNL     1       3.160  -2.334  -2.987  0.00  0.00    -0.325 N 
ATOM      2  C   UNL     1       2.852  -3.686  -2.996  0.00  0.00    +0.136 A 
ATOM      3  N   UNL     1       3.137  -4.583  -3.914  0.00  0.00    -0.340 N 
ATOM      4  C   UNL     1       2.774  -5.858  -3.789  0.00  0.00    +0.031 A 
ATOM      5  C   UNL     1       2.097  -6.148  -2.650  0.00  0.00    +0.013 A 
ATOM      6  S   UNL     1       2.028  -4.580  -1.830  0.00  0.00    -0.059 S 
ATOM      7  C   UNL     1       1.564  -7.472  -2.224  0.00  0.00    +0.051 C 
ATOM      8  C   UNL     1       1.584  -8.421  -3.425  0.00  0.00    -0.022 C 
ATOM      9  C   UNL     1       0.462  -8.073  -4.402  0.00  0.00    +0.008 C 
ATOM     10  C   UNL     1       0.469  -9.087  -5.550  0.00  0.00    +0.007 C 
ATOM     11  C   UNL     1       1.824  -9.059  -6.259  0.00  0.00    +0.029 C 
ATOM     12  C   UNL     1       2.942  -9.380  -5.264  0.00  0.00    +0.123 C 
ATOM     13  C   UNL     1       2.930  -8.318  -4.151  0.00  0.00    +0.033 C 
ATOM     14  C   UNL     1       3.067  -6.942  -4.814  0.00  0.00    +0.039 C 
ATOM     15  C   UNL     1       4.491  -6.771  -5.345  0.00  0.00    +0.014 C 
ATOM     16  C   UNL     1       1.381  -9.857  -2.938  0.00  0.00    +0.012 C 
ATOM     17  H   UNL     1       3.645  -1.942  -3.730  0.00  0.00    +0.148 HD
ATOM     18  H   UNL     1       3.625  -4.308  -4.706  0.00  0.00    +0.167 HD
ENDROOT
BRANCH  12  19
ATOM     19  O   UNL     1       4.202  -9.361  -5.937  0.00  0.00    -0.391 OA
ATOM     20  H   UNL     1       4.249  -9.950  -6.702  0.00  0.00    +0.210 HD
ENDBRANCH  12  19
BRANCH  11  21
ATOM     21  C   UNL     1       1.831 -10.098  -7.381  0.00  0.00    +0.078 C 
ATOM     22  C   UNL     1       0.668  -9.825  -8.337  0.00  0.00    +0.017 C 
BRANCH  21  23
ATOM     23  C   UNL     1       1.683 -11.476  -6.790  0.00  0.00    +0.219 C 
ATOM     24  O   UNL     1       1.452 -11.607  -5.607  0.00  0.00    -0.275 OA
ATOM     25  N   UNL     1       1.808 -12.564  -7.577  0.00  0.00    -0.297 N 
ATOM     26  C   UNL     1       2.203 -12.436  -8.989  0.00  0.00    +0.136 C 
ATOM     27  C   UNL     1       3.363 -13.402  -9.255  0.00  0.00    +0.179 C 
ATOM     28  O   UNL     1       2.997 -14.711  -8.814  0.00  0.00    -0.377 OA
ATOM     29  C   UNL     1       2.745 -14.807  -7.410  0.00  0.00    +0.179 C 
ATOM     30  C   UNL     1       1.558 -13.914  -7.048  0.00  0.00    +0.136 C 
ENDBRANCH  21  23
ENDBRANCH  11  21
BRANCH   1  31
ATOM     31  C   UNL     1       2.754  -1.498  -1.855  0.00  0.00    +0.103 C 
BRANCH  31  32
ATOM     32  C   UNL     1       3.214  -0.058  -2.093  0.00  0.00    +0.018 C 
BRANCH  32  34
ATOM     33  C   UNL     1       3.250   2.255  -1.149  0.00  0.00    +0.004 C 
ATOM     34  C   UNL     1       2.790   0.815  -0.911  0.00  0.00    -0.002 C 
ENDBRANCH  32  34
ENDBRANCH  31  32
ENDBRANCH   1  31
TORSDOF 6
