REMARK  Name = ZINC46728607
REMARK  11 active torsions:
REMARK  status: ('A' for Active; 'I' for Inactive)
REMARK    1  A    between atoms: C_1  and  C_2
REMARK    2  A    between atoms: C_5  and  C_35
REMARK    3  A    between atoms: N_8  and  C_10
REMARK    4  A    between atoms: C_10  and  C_11
REMARK    5  A    between atoms: C_17  and  C_19
REMARK    6  A    between atoms: C_22  and  O_33
REMARK    7  A    between atoms: C_24  and  O_31
REMARK    8  A    between atoms: C_25  and  O_29
REMARK    9  A    between atoms: O_29  and  C_30
REMARK   10  A    between atoms: O_31  and  C_32
REMARK   11  A    between atoms: O_33  and  C_34
REMARK                            x       y       z     vdW  Elec       q    Type
REMARK                         _______ _______ _______ _____ _____    ______ ____
ROOT
ATOM      1  C   UNL     1       2.971  -2.034   2.241  0.00  0.00    +0.034 A 
ATOM      2  C   UNL     1       3.439  -0.905   2.828  0.00  0.00    +0.070 A 
ATOM      3  S   UNL     1       5.146  -0.941   2.305  0.00  0.00    -0.060 S 
ATOM      4  C   UNL     1       5.085  -2.365   1.411  0.00  0.00    +0.165 A 
ATOM      5  N   UNL     1       3.833  -2.747   1.539  0.00  0.00    -0.231 NA
ATOM      6  N   UNL     1       6.110  -2.989   0.711  0.00  0.00    -0.259 N 
ATOM      7  C   UNL     1       7.344  -2.446   0.696  0.00  0.00    +0.266 C 
ATOM      8  O   UNL     1       7.560  -1.410   1.297  0.00  0.00    -0.268 OA
ATOM      9  H   UNL     1       5.938  -3.814   0.232  0.00  0.00    +0.157 HD
ENDROOT
BRANCH   7  10
ATOM     10  C   UNL     1       8.426  -3.105  -0.043  0.00  0.00    +0.103 A 
ATOM     11  C   UNL     1       9.709  -2.660  -0.127  0.00  0.00    +0.044 A 
ATOM     12  C   UNL     1      10.432  -3.574  -0.928  0.00  0.00    +0.046 A 
ATOM     13  C   UNL     1      11.772  -3.631  -1.353  0.00  0.00    +0.133 A 
ATOM     14  C   UNL     1      12.193  -4.674  -2.150  0.00  0.00    +0.095 A 
ATOM     15  C   UNL     1      11.299  -5.670  -2.536  0.00  0.00    +0.167 A 
ATOM     16  C   UNL     1       9.977  -5.628  -2.125  0.00  0.00    +0.186 A 
ATOM     17  C   UNL     1       9.531  -4.583  -1.319  0.00  0.00    +0.096 A 
ATOM     18  N   UNL     1       8.308  -4.281  -0.762  0.00  0.00    -0.348 N 
ATOM     19  H   UNL     1       7.497  -4.805  -0.860  0.00  0.00    +0.166 HD
BRANCH  16  20
ATOM     20  O   UNL     1       9.113  -6.609  -2.509  0.00  0.00    -0.490 OA
ATOM     21  C   UNL     1       9.002  -7.748  -1.653  0.00  0.00    +0.277 C 
ENDBRANCH  16  20
BRANCH  15  22
ATOM     22  O   UNL     1      11.729  -6.693  -3.322  0.00  0.00    -0.491 OA
ATOM     23  C   UNL     1      13.104  -6.678  -3.712  0.00  0.00    +0.277 C 
ENDBRANCH  15  22
BRANCH  13  24
ATOM     24  O   UNL     1      12.648  -2.661  -0.980  0.00  0.00    -0.494 OA
ATOM     25  C   UNL     1      13.991  -2.785  -1.450  0.00  0.00    +0.277 C 
ENDBRANCH  13  24
ENDBRANCH   7  10
BRANCH   1  26
ATOM     26  C   UNL     1       1.534  -2.461   2.390  0.00  0.00    -0.022 C 
BRANCH  26  32
ATOM     27  C   UNL     1      -0.019   1.526   0.010  0.00  0.00    +0.005 C 
ATOM     28  C   UNL     1       0.002  -0.004   0.002  0.00  0.00    -0.031 C 
ATOM     29  C   UNL     1      -1.434  -0.535   0.015  0.00  0.00    +0.003 C 
ATOM     30  C   UNL     1      -1.402  -2.064   0.086  0.00  0.00    -0.031 C 
ATOM     31  C   UNL     1      -0.613  -2.496   1.324  0.00  0.00    -0.075 C 
ATOM     32  N   UNL     1       0.758  -1.980   1.239  0.00  0.00    +0.384 N 
ATOM     33  C   UNL     1       0.740  -0.512   1.242  0.00  0.00    -0.075 C 
ATOM     34  C   UNL     1      -0.728  -2.620  -1.170  0.00  0.00    +0.005 C 
ATOM     35  H   UNL     1       1.188  -2.307   0.386  0.00  0.00    -0.081 HD
ENDBRANCH  26  32
ENDBRANCH   1  26
TORSDOF 6
