REMARK  Name = ZINC10062252
REMARK  5 active torsions:
REMARK  status: ('A' for Active; 'I' for Inactive)
REMARK    1  A    between atoms: C_1  and  C_2
REMARK    2  A    between atoms: N_10  and  C_11
REMARK    3  A    between atoms: C_11  and  C_13
REMARK    4  A    between atoms: N_22  and  C_23
REMARK    5  A    between atoms: C_23  and  C_24
REMARK                            x       y       z     vdW  Elec       q    Type
REMARK                         _______ _______ _______ _____ _____    ______ ____
ROOT
ATOM      1  C   UNL     1       4.945   3.470   0.699  0.00  0.00    +0.044 C 
ATOM      2  C   UNL     1       3.895   2.427   0.416  0.00  0.00    -0.049 A 
ATOM      3  C   UNL     1       4.263   1.143   0.050  0.00  0.00    +0.005 A 
ATOM      4  C   UNL     1       3.319   0.178  -0.211  0.00  0.00    +0.027 A 
ATOM      5  C   UNL     1       1.949   0.468  -0.113  0.00  0.00    +0.058 A 
ATOM      6  C   UNL     1       1.607   1.777   0.260  0.00  0.00    +0.039 A 
ATOM      7  C   UNL     1       2.551   2.741   0.520  0.00  0.00    +0.020 A 
ATOM      8  S   UNL     1      -0.168   1.744   0.272  0.00  0.00    -0.052 S 
ATOM      9  C   UNL     1      -0.395   0.089  -0.191  0.00  0.00    +0.168 A 
ATOM     10  N   UNL     1      -1.536  -0.571  -0.363  0.00  0.00    -0.148 NA
ATOM     11  N   UNL     1       0.876  -0.373  -0.337  0.00  0.00    -0.310 N 
ENDROOT
BRANCH  10  12
ATOM     12  C   UNL     1      -1.522  -1.893  -0.555  0.00  0.00    +0.325 C 
ATOM     13  O   UNL     1      -1.149  -2.634   0.338  0.00  0.00    -0.263 OA
BRANCH  12  14
ATOM     14  C   UNL     1      -1.959  -2.457  -1.852  0.00  0.00    +0.287 A 
ATOM     15  N   UNL     1      -1.984  -3.731  -2.145  0.00  0.00    -0.205 NA
ATOM     16  C   UNL     1      -2.436  -3.881  -3.406  0.00  0.00    +0.110 A 
ATOM     17  C   UNL     1      -2.664  -4.993  -4.225  0.00  0.00    +0.031 A 
ATOM     18  C   UNL     1      -3.138  -4.816  -5.494  0.00  0.00    +0.002 A 
ATOM     19  C   UNL     1      -3.398  -3.542  -5.980  0.00  0.00    +0.004 A 
ATOM     20  C   UNL     1      -3.181  -2.433  -5.191  0.00  0.00    +0.048 A 
ATOM     21  C   UNL     1      -2.699  -2.591  -3.900  0.00  0.00    +0.156 A 
ATOM     22  O   UNL     1      -2.394  -1.734  -2.902  0.00  0.00    -0.432 OA
ENDBRANCH  12  14
ENDBRANCH  10  12
BRANCH  11  23
ATOM     23  C   UNL     1       1.108  -1.765  -0.732  0.00  0.00    +0.212 C 
BRANCH  23  24
ATOM     24  C   UNL     1       1.312  -2.589   0.471  0.00  0.00    -0.084 C 
ATOM     25  C   UNL     1       1.474  -3.246   1.430  0.00  0.00    +0.005 C 
ENDBRANCH  23  24
ENDBRANCH  11  23
TORSDOF 4
