REMARK  Name = ZINC39673499
REMARK  8 active torsions:
REMARK  status: ('A' for Active; 'I' for Inactive)
REMARK    1  A    between atoms: C_1  and  C_2
REMARK    2  A    between atoms: C_2  and  C_3
REMARK    3  A    between atoms: C_3  and  C_4
REMARK    4  A    between atoms: C_4  and  C_6
REMARK    5  A    between atoms: C_4  and  N_7
REMARK    6  A    between atoms: C_8  and  C_10
REMARK    7  A    between atoms: C_21  and  C_23
REMARK    8  A    between atoms: C_29  and  C_31
REMARK                            x       y       z     vdW  Elec       q    Type
REMARK                         _______ _______ _______ _____ _____    ______ ____
ROOT
ATOM      1  C   UNL     1      -2.345  -4.283  -1.025  0.00  0.00    +0.100 C 
ATOM      2  C   UNL     1      -3.290  -3.481  -0.104  0.00  0.00    +0.121 C 
ATOM      3  N   UNL     1      -4.242  -4.487   0.423  0.00  0.00    -0.299 N 
ATOM      4  C   UNL     1      -3.408  -5.687   0.676  0.00  0.00    +0.115 C 
ATOM      5  C   UNL     1      -2.424  -5.730  -0.510  0.00  0.00    -0.004 C 
ATOM      6  C   UNL     1      -1.051  -6.199  -0.038  0.00  0.00    -0.010 C 
ATOM      7  C   UNL     1      -1.143  -7.659   0.415  0.00  0.00    -0.082 C 
ATOM      8  N   UNL     1      -1.610  -8.491  -0.700  0.00  0.00    +0.379 N 
ATOM      9  C   UNL     1      -2.970  -8.094  -1.086  0.00  0.00    -0.082 C 
ATOM     10  C   UNL     1      -2.955  -6.652  -1.603  0.00  0.00    -0.010 C 
ATOM     11  C   UNL     1      -5.566  -4.345   0.626  0.00  0.00    +0.236 C 
ATOM     12  O   UNL     1      -6.215  -5.269   1.068  0.00  0.00    -0.274 OA
ATOM     13  H   UNL     1      -0.991  -8.374  -1.488  0.00  0.00    -0.086 HD
ATOM     14  H   UNL     1      -1.612  -9.460  -0.418  0.00  0.00    -0.086 HD
ENDROOT
BRANCH  11  15
ATOM     15  C   UNL     1      -6.242  -3.036   0.305  0.00  0.00    +0.162 C 
ATOM     16  C   UNL     1      -6.009  -2.030   1.451  0.00  0.00    +0.033 C 
ATOM     17  C   UNL     1      -7.369  -1.289   1.544  0.00  0.00    +0.021 C 
ATOM     18  C   UNL     1      -8.367  -2.428   1.220  0.00  0.00    +0.109 C 
ATOM     19  N   UNL     1      -7.693  -3.239   0.184  0.00  0.00    -0.283 N 
ATOM     20  C   UNL     1      -8.303  -4.031  -0.719  0.00  0.00    +0.320 C 
ATOM     21  O   UNL     1      -7.643  -4.652  -1.525  0.00  0.00    -0.266 OA
BRANCH  20  22
ATOM     22  C   UNL     1      -9.806  -4.145  -0.728  0.00  0.00    +0.470 C 
ATOM     23  F   UNL     1     -10.201  -5.018  -1.747  0.00  0.00    -0.162 F 
ATOM     24  F   UNL     1     -10.243  -4.639   0.506  0.00  0.00    -0.162 F 
ATOM     25  F   UNL     1     -10.368  -2.883  -0.950  0.00  0.00    -0.162 F 
ENDBRANCH  20  22
ENDBRANCH  11  15
BRANCH   1  27
ATOM     26  N   UNL     1      -0.092  -3.866  -1.959  0.00  0.00    -0.312 N 
ATOM     27  C   UNL     1      -0.935  -3.763  -0.912  0.00  0.00    +0.218 C 
ATOM     28  O   UNL     1      -0.559  -3.250   0.121  0.00  0.00    -0.275 OA
ATOM     29  H   UNL     1      -0.393  -4.276  -2.785  0.00  0.00    +0.149 HD
BRANCH  26  30
ATOM     30  C   UNL     1       1.278  -3.360  -1.849  0.00  0.00    +0.070 C 
ATOM     31  C   UNL     1       2.168  -4.430  -1.215  0.00  0.00    +0.028 C 
BRANCH  30  32
ATOM     32  C   UNL     1       1.808  -3.015  -3.242  0.00  0.00    +0.022 C 
BRANCH  32  34
ATOM     33  C   UNL     1       1.525  -1.514  -5.220  0.00  0.00    +0.004 C 
ATOM     34  C   UNL     1       0.995  -1.859  -3.826  0.00  0.00    -0.002 C 
ENDBRANCH  32  34
ENDBRANCH  30  32
ENDBRANCH  26  30
ENDBRANCH   1  27
TORSDOF 6
