REMARK  Name = ZINC36629307
REMARK  11 active torsions:
REMARK  status: ('A' for Active; 'I' for Inactive)
REMARK    1  A    between atoms: C_1  and  C_2
REMARK    2  A    between atoms: C_2  and  O_3
REMARK    3  A    between atoms: O_3  and  C_4
REMARK    4  A    between atoms: C_4  and  C_6
REMARK    5  A    between atoms: C_10  and  N_11
REMARK    6  A    between atoms: C_12  and  C_14
REMARK    7  A    between atoms: C_18  and  N_21
REMARK    8  A    between atoms: C_19  and  C_20
REMARK    9  A    between atoms: N_25  and  C_28
REMARK   10  A    between atoms: C_28  and  C_29
REMARK   11  A    between atoms: C_28  and  C_30
REMARK                            x       y       z     vdW  Elec       q    Type
REMARK                         _______ _______ _______ _____ _____    ______ ____
ROOT
ATOM      1  C   UNL     1      -3.801  -2.705  -0.176  0.00  0.00    +0.091 A 
ATOM      2  C   UNL     1      -4.690  -3.141  -1.235  0.00  0.00    -0.025 A 
ATOM      3  C   UNL     1      -5.866  -3.647  -0.800  0.00  0.00    -0.021 A 
ATOM      4  S   UNL     1      -5.775  -3.542   0.961  0.00  0.00    -0.079 S 
ATOM      5  C   UNL     1      -4.248  -2.861   1.129  0.00  0.00    +0.086 A 
ATOM      6  C   UNL     1      -6.975  -4.168  -1.660  0.00  0.00    -0.035 C 
ATOM      7  N   UNL     1      -6.751  -3.697  -3.040  0.00  0.00    +0.384 N 
ATOM      8  C   UNL     1      -5.373  -4.000  -3.447  0.00  0.00    -0.073 C 
ATOM      9  C   UNL     1      -4.392  -3.069  -2.726  0.00  0.00    +0.018 C 
ATOM     10  H   UNL     1      -6.903  -2.700  -3.083  0.00  0.00    -0.081 HD
ENDROOT
BRANCH   5  11
ATOM     11  N   UNL     1      -3.588  -2.531   2.300  0.00  0.00    -0.275 N 
ATOM     12  C   UNL     1      -4.177  -2.754   3.492  0.00  0.00    +0.249 C 
ATOM     13  O   UNL     1      -5.288  -3.245   3.538  0.00  0.00    -0.270 OA
ATOM     14  H   UNL     1      -2.702  -2.138   2.264  0.00  0.00    +0.156 HD
BRANCH  12  15
ATOM     15  C   UNL     1      -3.473  -2.401   4.742  0.00  0.00    +0.042 A 
ATOM     16  C   UNL     1      -2.148  -1.962   4.701  0.00  0.00    +0.013 A 
ATOM     17  C   UNL     1      -1.496  -1.634   5.871  0.00  0.00    +0.003 A 
ATOM     18  C   UNL     1      -2.152  -1.739   7.085  0.00  0.00    +0.033 A 
ATOM     19  C   UNL     1      -3.465  -2.174   7.133  0.00  0.00    +0.130 A 
ATOM     20  C   UNL     1      -4.130  -2.499   5.970  0.00  0.00    -0.008 A 
ATOM     21  C   UNL     1      -5.562  -2.966   6.024  0.00  0.00    +0.047 C 
BRANCH  19  22
ATOM     22  N   UNL     1      -4.159  -2.284   8.436  0.00  0.00    +0.057 N 
ATOM     23  O   UNL     1      -3.627  -1.873   9.441  0.00  0.00    -0.126 OA
ATOM     24  O   UNL     1      -5.257  -2.786   8.496  0.00  0.00    -0.126 OA
ENDBRANCH  19  22
ENDBRANCH  12  15
ENDBRANCH   5  11
BRANCH   7  25
ATOM     25  C   UNL     1      -7.689  -4.374  -3.945  0.00  0.00    -0.074 C 
ATOM     26  C   UNL     1      -9.120  -4.164  -3.447  0.00  0.00    -0.014 C 
ATOM     27  C   UNL     1      -7.549  -3.791  -5.353  0.00  0.00    -0.014 C 
ENDBRANCH   7  25
BRANCH   1  28
ATOM     28  C   UNL     1      -2.486  -2.131  -0.470  0.00  0.00    +0.342 C 
ATOM     29  O   UNL     1      -1.513  -2.854  -0.560  0.00  0.00    -0.245 OA
BRANCH  28  30
ATOM     30  O   UNL     1      -2.355  -0.799  -0.640  0.00  0.00    -0.461 OA
BRANCH  30  32
ATOM     31  C   UNL     1      -1.092   1.213  -1.084  0.00  0.00    +0.048 C 
ATOM     32  C   UNL     1      -1.044  -0.308  -0.924  0.00  0.00    +0.229 C 
ENDBRANCH  30  32
ENDBRANCH  28  30
ENDBRANCH   1  28
TORSDOF 7
