REMARK  Name = ZINC13040185
REMARK  8 active torsions:
REMARK  status: ('A' for Active; 'I' for Inactive)
REMARK    1  A    between atoms: C_1  and  C_2
REMARK    2  A    between atoms: C_2  and  C_4
REMARK    3  A    between atoms: C_2  and  N_11
REMARK    4  A    between atoms: N_11  and  C_12
REMARK    5  A    between atoms: C_12  and  C_13
REMARK    6  A    between atoms: N_15  and  C_16
REMARK    7  A    between atoms: C_20  and  S_22
REMARK    8  A    between atoms: S_22  and  N_25
REMARK                            x       y       z     vdW  Elec       q    Type
REMARK                         _______ _______ _______ _____ _____    ______ ____
ROOT
ATOM      1  C   UNL     1       4.733  -1.506  -3.524  0.00  0.00    +0.035 A 
ATOM      2  C   UNL     1       3.931  -1.721  -4.638  0.00  0.00    +0.023 A 
ATOM      3  C   UNL     1       4.504  -2.089  -5.839  0.00  0.00    +0.004 A 
ATOM      4  C   UNL     1       5.875  -2.244  -5.934  0.00  0.00    +0.029 A 
ATOM      5  C   UNL     1       6.676  -2.031  -4.827  0.00  0.00    +0.114 A 
ATOM      6  C   UNL     1       6.109  -1.656  -3.624  0.00  0.00    +0.052 A 
ENDROOT
BRANCH   1   9
ATOM      7  C   UNL     1       4.801  -0.280  -1.487  0.00  0.00    +0.231 C 
ATOM      8  O   UNL     1       5.918   0.100  -1.766  0.00  0.00    -0.274 OA
ATOM      9  N   UNL     1       4.155  -1.134  -2.306  0.00  0.00    -0.284 N 
ATOM     10  H   UNL     1       3.289  -1.490  -2.050  0.00  0.00    +0.155 HD
BRANCH   7  11
ATOM     11  C   UNL     1       4.134   0.203  -0.225  0.00  0.00    +0.178 C 
BRANCH  11  12
ATOM     12  N   UNL     1       5.037   1.117   0.487  0.00  0.00    -0.302 NA
ATOM     13  H   UNL     1       5.317   1.883  -0.106  0.00  0.00    +0.123 HD
BRANCH  12  15
ATOM     14  C   UNL     1       4.660   0.600   2.851  0.00  0.00    +0.029 C 
ATOM     15  C   UNL     1       4.419   1.609   1.726  0.00  0.00    +0.081 C 
BRANCH  15  16
ATOM     16  C   UNL     1       5.031   2.934   2.101  0.00  0.00    -0.031 A 
ATOM     17  C   UNL     1       6.389   3.139   1.940  0.00  0.00    +0.006 A 
ATOM     18  C   UNL     1       6.950   4.354   2.284  0.00  0.00    +0.020 A 
ATOM     19  C   UNL     1       6.153   5.366   2.788  0.00  0.00    +0.041 A 
ATOM     20  C   UNL     1       4.795   5.161   2.948  0.00  0.00    +0.020 A 
ATOM     21  C   UNL     1       4.233   3.947   2.599  0.00  0.00    +0.006 A 
ATOM     22 CL   UNL     1       6.858   6.893   3.220  0.00  0.00    -0.084 Cl
ENDBRANCH  15  16
ENDBRANCH  12  15
ENDBRANCH  11  12
ENDBRANCH   7  11
ENDBRANCH   1   9
BRANCH   5  23
ATOM     23  S   UNL     1       8.422  -2.230  -4.953  0.00  0.00    +0.100 S 
ATOM     24  O   UNL     1       8.896  -2.504  -3.642  0.00  0.00    -0.146 OA
ATOM     25  O   UNL     1       8.653  -3.109  -6.046  0.00  0.00    -0.146 OA
BRANCH  23  26
ATOM     26  N   UNL     1       9.053  -0.761  -5.386  0.00  0.00    -0.118 NA
ATOM     27  C   UNL     1      10.329  -0.627  -5.548  0.00  0.00    +0.117 C 
ATOM     28  C   UNL     1      11.255  -1.824  -5.348  0.00  0.00    +0.073 C 
ATOM     29  C   UNL     1      11.795  -2.208  -6.708  0.00  0.00    +0.008 C 
ATOM     30  C   UNL     1      13.075  -1.460  -7.089  0.00  0.00    +0.002 C 
ATOM     31  C   UNL     1      13.025   0.028  -6.742  0.00  0.00    +0.019 C 
ATOM     32  C   UNL     1      11.701   0.677  -7.081  0.00  0.00    +0.102 C 
ATOM     33  N   UNL     1      10.832   0.542  -5.893  0.00  0.00    -0.331 N 
ATOM     34  H   UNL     1      10.631   1.326  -5.359  0.00  0.00    +0.147 HD
ENDBRANCH  23  26
ENDBRANCH   5  23
TORSDOF 7
