REMARK  Name = ZINC39669037
REMARK  4 active torsions:
REMARK  status: ('A' for Active; 'I' for Inactive)
REMARK    1  A    between atoms: C_10  and  C_12
REMARK    2  A    between atoms: C_12  and  N_13
REMARK    3  A    between atoms: C_14  and  C_16
REMARK    4  A    between atoms: C_27  and  C_29
REMARK                            x       y       z     vdW  Elec       q    Type
REMARK                         _______ _______ _______ _____ _____    ______ ____
ROOT
ATOM      1  C   UNL     1       8.486  -1.443  -2.188  0.00  0.00    +0.100 C 
ATOM      2  C   UNL     1       9.028  -1.101  -0.782  0.00  0.00    +0.121 C 
ATOM      3  N   UNL     1      10.453  -0.758  -1.003  0.00  0.00    -0.296 N 
ATOM      4  C   UNL     1      10.454   0.011  -2.271  0.00  0.00    +0.115 C 
ATOM      5  C   UNL     1       9.424  -0.711  -3.162  0.00  0.00    -0.004 C 
ATOM      6  C   UNL     1      10.126  -1.712  -4.074  0.00  0.00    -0.010 C 
ATOM      7  C   UNL     1      11.009  -0.957  -5.070  0.00  0.00    -0.082 C 
ATOM      8  N   UNL     1      10.182  -0.039  -5.863  0.00  0.00    +0.379 N 
ATOM      9  C   UNL     1       9.584   0.978  -4.989  0.00  0.00    -0.082 C 
ATOM     10  C   UNL     1       8.640   0.304  -3.989  0.00  0.00    -0.010 C 
ATOM     11  C   UNL     1      11.509  -1.075  -0.228  0.00  0.00    +0.248 C 
ATOM     12  O   UNL     1      12.611  -0.637  -0.494  0.00  0.00    -0.270 OA
ATOM     13  H   UNL     1      10.755   0.413  -6.559  0.00  0.00    -0.086 HD
ATOM     14  H   UNL     1       9.449  -0.560  -6.321  0.00  0.00    -0.086 HD
ENDROOT
BRANCH  11  15
ATOM     15  C   UNL     1      11.326  -1.953   0.946  0.00  0.00    +0.057 A 
ATOM     16  C   UNL     1      10.155  -1.879   1.703  0.00  0.00    +0.014 A 
ATOM     17  C   UNL     1       9.991  -2.701   2.797  0.00  0.00    +0.002 A 
ATOM     18  C   UNL     1      10.983  -3.599   3.148  0.00  0.00    +0.021 A 
ATOM     19  C   UNL     1      12.147  -3.680   2.405  0.00  0.00    +0.060 A 
ATOM     20  C   UNL     1      12.323  -2.865   1.301  0.00  0.00    +0.071 A 
ATOM     21 CL   UNL     1      13.780  -2.972   0.364  0.00  0.00    -0.081 Cl
ATOM     22 CL   UNL     1      13.386  -4.809   2.854  0.00  0.00    -0.082 Cl
ENDBRANCH  11  15
BRANCH   1  24
ATOM     23  N   UNL     1       6.219  -1.576  -3.169  0.00  0.00    -0.312 N 
ATOM     24  C   UNL     1       7.074  -0.941  -2.342  0.00  0.00    +0.218 C 
ATOM     25  O   UNL     1       6.706   0.035  -1.722  0.00  0.00    -0.275 OA
ATOM     26  H   UNL     1       6.513  -2.356  -3.664  0.00  0.00    +0.149 HD
BRANCH  23  27
ATOM     27  C   UNL     1       4.846  -1.087  -3.318  0.00  0.00    +0.140 C 
BRANCH  27  37
ATOM     28  C   UNL     1       0.079  -0.549  -4.662  0.00  0.00    +0.000 A 
ATOM     29  C   UNL     1       0.685  -0.636  -3.422  0.00  0.00    +0.000 A 
ATOM     30  C   UNL     1       1.982  -1.098  -3.322  0.00  0.00    +0.006 A 
ATOM     31  C   UNL     1       2.681  -1.474  -4.458  0.00  0.00    -0.014 A 
ATOM     32  C   UNL     1       2.077  -1.384  -5.695  0.00  0.00    -0.040 A 
ATOM     33  C   UNL     1       0.774  -0.923  -5.795  0.00  0.00    +0.004 A 
ATOM     34  C   UNL     1       2.808  -1.771  -6.955  0.00  0.00    +0.063 C 
ATOM     35  C   UNL     1       4.030  -2.622  -6.604  0.00  0.00    +0.165 C 
ATOM     36  O   UNL     1       4.762  -1.960  -5.567  0.00  0.00    -0.370 OA
ATOM     37  C   UNL     1       4.092  -1.979  -4.307  0.00  0.00    +0.165 C 
ENDBRANCH  27  37
ENDBRANCH  23  27
ENDBRANCH   1  24
TORSDOF 4
