REMARK  Name = ZINC39667868
REMARK  14 active torsions:
REMARK  status: ('A' for Active; 'I' for Inactive)
REMARK    1  A    between atoms: C_1  and  C_2
REMARK    2  A    between atoms: C_2  and  O_3
REMARK    3  A    between atoms: O_3  and  C_4
REMARK    4  A    between atoms: C_4  and  C_6
REMARK    5  A    between atoms: C_8  and  N_19
REMARK    6  A    between atoms: C_15  and  C_18
REMARK    7  A    between atoms: C_20  and  C_22
REMARK    8  A    between atoms: C_22  and  S_23
REMARK    9  A    between atoms: S_23  and  C_24
REMARK   10  A    between atoms: C_28  and  C_32
REMARK   11  A    between atoms: C_29  and  C_31
REMARK   12  A    between atoms: C_32  and  C_33
REMARK   13  A    between atoms: C_33  and  C_34
REMARK   14  A    between atoms: C_34  and  O_36
REMARK                            x       y       z     vdW  Elec       q    Type
REMARK                         _______ _______ _______ _____ _____    ______ ____
ROOT
ATOM      1  N   UNL     1       1.657  -1.667  -4.937  0.00  0.00    -0.301 N 
ATOM      2  C   UNL     1       1.341  -2.124  -6.165  0.00  0.00    +0.224 C 
ATOM      3  O   UNL     1       0.290  -2.701  -6.346  0.00  0.00    -0.275 OA
ATOM      4  H   UNL     1       2.498  -1.206  -4.793  0.00  0.00    +0.150 HD
ENDROOT
BRANCH   1   6
ATOM      5  C   UNL     1       1.468  -2.353  -2.550  0.00  0.00    +0.155 C 
ATOM      6  C   UNL     1       0.730  -1.867  -3.820  0.00  0.00    +0.153 C 
ATOM      7  S   UNL     1      -0.353  -3.332  -4.093  0.00  0.00    -0.106 S 
ATOM      8  C   UNL     1       0.598  -4.529  -3.185  0.00  0.00    -0.012 C 
ATOM      9  C   UNL     1       1.482  -3.859  -2.459  0.00  0.00    -0.044 C 
ATOM     10  C   UNL     1       2.476  -4.592  -1.562  0.00  0.00    +0.033 C 
ATOM     11  C   UNL     1       2.566  -6.053  -2.001  0.00  0.00    +0.008 C 
ATOM     12  C   UNL     1       1.158  -6.654  -2.067  0.00  0.00    -0.009 C 
ATOM     13  C   UNL     1       0.419  -6.020  -3.243  0.00  0.00    +0.045 C 
ATOM     14  C   UNL     1       1.254  -8.167  -2.270  0.00  0.00    +0.008 C 
BRANCH   5  15
ATOM     15  C   UNL     1       0.775  -1.794  -1.334  0.00  0.00    +0.317 C 
ATOM     16  O   UNL     1       0.314  -2.540  -0.504  0.00  0.00    -0.250 OA
BRANCH  15  17
ATOM     17  O   UNL     1       0.671  -0.465  -1.174  0.00  0.00    -0.464 OA
BRANCH  17  19
ATOM     18  C   UNL     1      -0.019   1.526   0.010  0.00  0.00    +0.048 C 
ATOM     19  C   UNL     1       0.002  -0.004   0.002  0.00  0.00    +0.229 C 
ENDBRANCH  17  19
ENDBRANCH  15  17
ENDBRANCH   5  15
ENDBRANCH   1   6
BRANCH   2  20
ATOM     20  C   UNL     1       2.295  -1.918  -7.314  0.00  0.00    +0.173 C 
BRANCH  20  21
ATOM     21  S   UNL     1       1.590  -2.640  -8.821  0.00  0.00    -0.078 S 
BRANCH  21  22
ATOM     22  C   UNL     1       2.807  -2.322 -10.056  0.00  0.00    +0.170 A 
ATOM     23  N   UNL     1       2.587  -2.736 -11.334  0.00  0.00    -0.302 N 
ATOM     24  C   UNL     1       3.515  -2.494 -12.285  0.00  0.00    +0.256 A 
ATOM     25  O   UNL     1       3.335  -2.858 -13.436  0.00  0.00    -0.267 OA
ATOM     26  C   UNL     1       4.692  -1.816 -11.924  0.00  0.00    +0.038 A 
ATOM     27  C   UNL     1       4.858  -1.425 -10.627  0.00  0.00    +0.049 A 
ATOM     28  N   UNL     1       3.912  -1.681  -9.726  0.00  0.00    -0.228 NA
ATOM     29  C   UNL     1       6.111  -0.697 -10.214  0.00  0.00    +0.066 C 
ATOM     30  H   UNL     1       1.768  -3.202 -11.561  0.00  0.00    +0.171 HD
BRANCH  26  31
ATOM     31  C   UNL     1       5.755  -1.526 -12.953  0.00  0.00    +0.053 C 
BRANCH  31  32
ATOM     32  C   UNL     1       6.677  -2.739 -13.090  0.00  0.00    +0.125 C 
BRANCH  32  33
ATOM     33  C   UNL     1       7.739  -2.449 -14.118  0.00  0.00    +0.305 C 
ATOM     34  O   UNL     1       7.758  -1.381 -14.683  0.00  0.00    -0.251 OA
BRANCH  33  35
ATOM     35  O   UNL     1       8.665  -3.377 -14.407  0.00  0.00    -0.481 OA
ATOM     36  H   UNL     1       9.304  -3.100 -15.078  0.00  0.00    +0.295 HD
ENDBRANCH  33  35
ENDBRANCH  32  33
ENDBRANCH  31  32
ENDBRANCH  26  31
ENDBRANCH  21  22
ENDBRANCH  20  21
ENDBRANCH   2  20
TORSDOF 11
