REMARK  Name = ZINC11912688
REMARK  6 active torsions:
REMARK  status: ('A' for Active; 'I' for Inactive)
REMARK    1  A    between atoms: C_5  and  C_7
REMARK    2  A    between atoms: C_7  and  C_21
REMARK    3  A    between atoms: N_10  and  C_14
REMARK    4  A    between atoms: C_14  and  C_15
REMARK    5  A    between atoms: C_27  and  C_29
REMARK    6  A    between atoms: C_29  and  C_30
REMARK                            x       y       z     vdW  Elec       q    Type
REMARK                         _______ _______ _______ _____ _____    ______ ____
ROOT
ATOM      1  C   UNL     1       3.358  -0.064  -2.673  0.00  0.00    +0.158 C 
ATOM      2  C   UNL     1       2.785  -0.307  -1.291  0.00  0.00    +0.253 C 
ATOM      3  O   UNL     1       3.007  -1.248  -0.561  0.00  0.00    -0.272 OA
ATOM      4  N   UNL     1       1.974   0.742  -1.044  0.00  0.00    -0.221 N 
ATOM      5  C   UNL     1       1.962   1.607  -2.064  0.00  0.00    +0.310 C 
ATOM      6  O   UNL     1       1.309   2.632  -2.072  0.00  0.00    -0.252 OA
ATOM      7  N   UNL     1       2.753   1.216  -3.079  0.00  0.00    -0.280 N 
ATOM      8  H   UNL     1       2.897   1.685  -3.916  0.00  0.00    +0.152 HD
ENDROOT
BRANCH   1   9
ATOM      9  C   UNL     1       2.948  -1.182  -3.634  0.00  0.00    +0.031 C 
ATOM     10  C   UNL     1       3.303  -0.778  -5.067  0.00  0.00    +0.025 C 
ATOM     11  C   UNL     1       2.923  -1.914  -6.022  0.00  0.00    +0.108 C 
ATOM     12  N   UNL     1       1.506  -2.246  -5.822  0.00  0.00    -0.301 N 
ATOM     13  C   UNL     1       1.038  -2.561  -4.466  0.00  0.00    +0.108 C 
ATOM     14  C   UNL     1       1.440  -1.418  -3.528  0.00  0.00    +0.025 C 
ATOM     15  C   UNL     1       0.650  -2.260  -6.864  0.00  0.00    +0.220 C 
ATOM     16  O   UNL     1      -0.518  -2.534  -6.686  0.00  0.00    -0.275 OA
BRANCH  15  17
ATOM     17  C   UNL     1       1.145  -1.934  -8.250  0.00  0.00    +0.138 C 
BRANCH  17  18
ATOM     18  C   UNL     1      -0.001  -2.020  -9.225  0.00  0.00    -0.001 A 
ATOM     19  C   UNL     1      -0.868  -1.052  -9.611  0.00  0.00    +0.011 A 
ATOM     20  C   UNL     1      -1.850  -1.361 -10.533  0.00  0.00    +0.008 A 
ATOM     21  C   UNL     1      -1.924  -2.625 -11.016  0.00  0.00    +0.045 A 
ATOM     22  S   UNL     1      -0.573  -3.425 -10.166  0.00  0.00    -0.101 S 
ENDBRANCH  17  18
ENDBRANCH  15  17
ENDBRANCH   1   9
BRANCH   1  27
ATOM     23  C   UNL     1       6.815   1.165  -1.810  0.00  0.00    +0.003 A 
ATOM     24  C   UNL     1       7.571   0.242  -2.517  0.00  0.00    +0.020 A 
ATOM     25  C   UNL     1       6.926  -0.740  -3.245  0.00  0.00    +0.111 A 
ATOM     26  N   UNL     1       5.609  -0.806  -3.270  0.00  0.00    -0.257 NA
ATOM     27  C   UNL     1       4.859   0.055  -2.610  0.00  0.00    +0.074 A 
ATOM     28  C   UNL     1       5.433   1.068  -1.866  0.00  0.00    +0.026 A 
ENDBRANCH   1  27
BRANCH   4  29
ATOM     29  C   UNL     1       1.207   0.915   0.192  0.00  0.00    +0.149 C 
BRANCH  29  30
ATOM     30  C   UNL     1      -0.169   0.265   0.034  0.00  0.00    +0.136 C 
ATOM     31  C   UNL     1      -1.011   0.467   1.319  0.00  0.00    +0.035 C 
ATOM     32  C   UNL     1      -2.452   0.352   0.745  0.00  0.00    +0.031 C 
ATOM     33  C   UNL     1      -2.298   0.979  -0.658  0.00  0.00    +0.160 C 
ATOM     34  O   UNL     1      -0.911   0.916  -1.010  0.00  0.00    -0.375 OA
ENDBRANCH  29  30
ENDBRANCH   4  29
TORSDOF 6
