REMARK  Name = ZINC64986203
REMARK  9 active torsions:
REMARK  status: ('A' for Active; 'I' for Inactive)
REMARK    1  A    between atoms: C_1  and  C_2
REMARK    2  A    between atoms: C_2  and  C_3
REMARK    3  A    between atoms: C_3  and  C_4
REMARK    4  A    between atoms: C_4  and  C_5
REMARK    5  A    between atoms: C_8  and  N_11
REMARK    6  A    between atoms: C_12  and  C_14
REMARK    7  A    between atoms: N_17  and  S_26
REMARK    8  A    between atoms: S_26  and  C_29
REMARK    9  A    between atoms: C_32  and  C_35
REMARK                            x       y       z     vdW  Elec       q    Type
REMARK                         _______ _______ _______ _____ _____    ______ ____
ROOT
ATOM      1  C   UNL     1       3.597  -4.460   8.241  0.00  0.00    +0.278 C 
ATOM      2  C   UNL     1       4.571  -3.338   8.629  0.00  0.00    +0.186 C 
ATOM      3  N   UNL     1       5.243  -3.743   9.875  0.00  0.00    -0.195 N 
ATOM      4  C   UNL     1       4.459  -4.343  10.874  0.00  0.00    +0.094 A 
ATOM      5  C   UNL     1       4.960  -4.482  12.159  0.00  0.00    +0.048 A 
ATOM      6  C   UNL     1       4.185  -5.076  13.139  0.00  0.00    +0.043 A 
ATOM      7  C   UNL     1       2.914  -5.531  12.837  0.00  0.00    +0.024 A 
ATOM      8  C   UNL     1       2.411  -5.393  11.556  0.00  0.00    +0.049 A 
ATOM      9  C   UNL     1       3.179  -4.797  10.568  0.00  0.00    +0.144 A 
ATOM     10  O   UNL     1       2.673  -4.662   9.313  0.00  0.00    -0.476 OA
ATOM     11 CL   UNL     1       4.809  -5.252  14.750  0.00  0.00    -0.083 Cl
ENDROOT
BRANCH   1  13
ATOM     12  N   UNL     1       3.507  -3.920   5.829  0.00  0.00    -0.282 N 
ATOM     13  C   UNL     1       2.846  -4.069   6.995  0.00  0.00    +0.260 C 
ATOM     14  O   UNL     1       1.648  -3.888   7.040  0.00  0.00    -0.271 OA
ATOM     15  H   UNL     1       4.450  -4.138   5.775  0.00  0.00    +0.155 HD
BRANCH  12  19
ATOM     16  C   UNL     1       1.497  -2.521   2.459  0.00  0.00    -0.047 A 
ATOM     17  C   UNL     1       1.135  -2.069   3.715  0.00  0.00    +0.005 A 
ATOM     18  C   UNL     1       1.800  -2.531   4.834  0.00  0.00    +0.023 A 
ATOM     19  C   UNL     1       2.831  -3.451   4.697  0.00  0.00    +0.034 A 
ATOM     20  C   UNL     1       3.191  -3.903   3.435  0.00  0.00    +0.023 A 
ATOM     21  C   UNL     1       2.520  -3.441   2.320  0.00  0.00    +0.005 A 
BRANCH  16  22
ATOM     22  C   UNL     1       0.770  -2.015   1.240  0.00  0.00    +0.035 C 
BRANCH  22  23
ATOM     23  C   UNL     1      -0.428  -2.921   0.948  0.00  0.00    +0.004 C 
BRANCH  23  25
ATOM     24  C   UNL     1      -2.364  -3.313  -0.582  0.00  0.00    +0.004 C 
ATOM     25  C   UNL     1      -1.166  -2.407  -0.290  0.00  0.00    -0.003 C 
ENDBRANCH  23  25
ENDBRANCH  22  23
ENDBRANCH  16  22
ENDBRANCH  12  19
ENDBRANCH   1  13
BRANCH   3  26
ATOM     26  S   UNL     1       6.867  -3.500  10.091  0.00  0.00    +0.075 S 
ATOM     27  O   UNL     1       7.294  -4.447  11.061  0.00  0.00    -0.150 OA
ATOM     28  O   UNL     1       7.442  -3.426   8.794  0.00  0.00    -0.150 OA
BRANCH  26  29
ATOM     29  C   UNL     1       7.062  -1.908  10.821  0.00  0.00    +0.109 A 
ATOM     30  C   UNL     1       7.205  -0.792  10.017  0.00  0.00    +0.029 A 
ATOM     31  C   UNL     1       7.359   0.457  10.590  0.00  0.00    +0.005 A 
ATOM     32  C   UNL     1       7.369   0.590  11.966  0.00  0.00    -0.050 A 
ATOM     33  C   UNL     1       7.226  -0.526  12.769  0.00  0.00    +0.005 A 
ATOM     34  C   UNL     1       7.068  -1.774  12.197  0.00  0.00    +0.029 A 
ATOM     35  C   UNL     1       7.538   1.951  12.589  0.00  0.00    +0.044 C 
ENDBRANCH  26  29
ENDBRANCH   3  26
TORSDOF 7
