REMARK  Name = ZINC00377694
REMARK  9 active torsions:
REMARK  status: ('A' for Active; 'I' for Inactive)
REMARK    1  A    between atoms: C_1  and  C_2
REMARK    2  A    between atoms: C_2  and  C_3
REMARK    3  A    between atoms: C_2  and  C_4
REMARK    4  A    between atoms: C_7  and  C_10
REMARK    5  A    between atoms: C_15  and  N_24
REMARK    6  A    between atoms: C_19  and  N_23
REMARK    7  A    between atoms: C_20  and  C_21
REMARK    8  A    between atoms: N_24  and  C_25
REMARK    9  A    between atoms: N_24  and  C_26
REMARK                            x       y       z     vdW  Elec       q    Type
REMARK                         _______ _______ _______ _____ _____    ______ ____
ROOT
ATOM      1  C   UNL     1       2.442   3.958  -0.000  0.00  0.00    +0.098 C 
ATOM      2  C   UNL     1       1.158   3.172   0.007  0.00  0.00    +0.008 A 
ATOM      3  C   UNL     1      -0.051   3.845   0.021  0.00  0.00    +0.010 A 
ATOM      4  C   UNL     1      -1.239   3.142   0.029  0.00  0.00    +0.023 A 
ATOM      5  C   UNL     1      -1.223   1.752   0.017  0.00  0.00    +0.033 A 
ATOM      6  C   UNL     1      -0.013   1.076   0.008  0.00  0.00    +0.069 A 
ATOM      7  C   UNL     1       1.181   1.786   0.000  0.00  0.00    +0.136 A 
ATOM      8  O   UNL     1       2.356   1.109  -0.014  0.00  0.00    -0.441 OA
ATOM      9  C   UNL     1       3.482   1.730  -0.404  0.00  0.00    +0.199 C 
ATOM     10  C   UNL     1       3.587   3.080  -0.420  0.00  0.00    +0.098 C 
ENDROOT
BRANCH   1  14
ATOM     11  C   UNL     1       3.191   5.481   3.920  0.00  0.00    -0.045 A 
ATOM     12  C   UNL     1       3.046   6.352   2.856  0.00  0.00    +0.004 A 
ATOM     13  C   UNL     1       2.804   5.859   1.588  0.00  0.00    +0.005 A 
ATOM     14  C   UNL     1       2.707   4.496   1.383  0.00  0.00    -0.035 A 
ATOM     15  C   UNL     1       2.847   3.625   2.447  0.00  0.00    +0.005 A 
ATOM     16  C   UNL     1       3.094   4.118   3.715  0.00  0.00    +0.004 A 
BRANCH  11  18
ATOM     17  C   UNL     1       2.330   5.583   6.243  0.00  0.00    +0.012 C 
ATOM     18  C   UNL     1       3.456   6.019   5.303  0.00  0.00    +0.013 C 
ATOM     19  C   UNL     1       4.789   5.472   5.816  0.00  0.00    +0.012 C 
ENDBRANCH  11  18
ENDBRANCH   1  14
BRANCH   9  20
ATOM     20  N   UNL     1       4.557   0.973  -0.797  0.00  0.00    -0.328 N 
ATOM     21  H   UNL     1       5.377   1.406  -1.081  0.00  0.00    +0.145 HD
ATOM     22  H   UNL     1       4.497   0.005  -0.791  0.00  0.00    +0.145 HD
ENDBRANCH   9  20
BRANCH   5  23
ATOM     23  N   UNL     1      -2.424   1.039   0.019  0.00  0.00    -0.336 N 
ATOM     24  C   UNL     1      -2.405  -0.426   0.011  0.00  0.00    +0.129 C 
ATOM     25  C   UNL     1      -3.702   1.755   0.029  0.00  0.00    +0.129 C 
ENDBRANCH   5  23
BRANCH  10  26
ATOM     26  C   UNL     1       4.814   3.682  -0.846  0.00  0.00    +0.101 C 
ATOM     27  N   UNL     1       5.788   4.160  -1.185  0.00  0.00    -0.191 NA
ENDBRANCH  10  26
TORSDOF 5
