REMARK  Name = ZINC53113484
REMARK  7 active torsions:
REMARK  status: ('A' for Active; 'I' for Inactive)
REMARK    1  A    between atoms: C_1  and  C_2
REMARK    2  A    between atoms: C_7  and  C_9
REMARK    3  A    between atoms: C_7  and  N_11
REMARK    4  A    between atoms: C_9  and  O_10
REMARK    5  A    between atoms: N_11  and  S_12
REMARK    6  A    between atoms: S_12  and  C_15
REMARK    7  A    between atoms: C_20  and  N_21
REMARK                            x       y       z     vdW  Elec       q    Type
REMARK                         _______ _______ _______ _____ _____    ______ ____
ROOT
ATOM      1  S   UNL     1      -1.486  -3.439   1.799  0.00  0.00    +0.061 S 
ATOM      2  O   UNL     1      -0.820  -4.003   2.920  0.00  0.00    -0.153 OA
ATOM      3  O   UNL     1      -2.860  -3.080   1.831  0.00  0.00    -0.153 OA
ENDROOT
BRANCH   1   4
ATOM      4  C   UNL     1      -1.294  -4.582   0.472  0.00  0.00    +0.127 A 
ATOM      5  C   UNL     1      -0.570  -5.743   0.659  0.00  0.00    +0.050 A 
ATOM      6  C   UNL     1      -0.419  -6.642  -0.383  0.00  0.00    +0.043 A 
ATOM      7  C   UNL     1      -0.994  -6.380  -1.614  0.00  0.00    +0.022 A 
ATOM      8  C   UNL     1      -1.718  -5.220  -1.807  0.00  0.00    +0.026 A 
ATOM      9  C   UNL     1      -1.876  -4.319  -0.761  0.00  0.00    +0.051 A 
ATOM     10 CL   UNL     1       0.492  -8.100  -0.144  0.00  0.00    -0.083 Cl
BRANCH   9  11
ATOM     11  N   UNL     1      -2.615  -3.148  -0.951  0.00  0.00    -0.356 N 
ATOM     12  H   UNL     1      -2.655  -2.481  -0.249  0.00  0.00    +0.142 HD
ATOM     13  H   UNL     1      -3.087  -3.003  -1.786  0.00  0.00    +0.142 HD
ENDBRANCH   9  11
ENDBRANCH   1   4
BRANCH   1  14
ATOM     14  N   UNL     1      -0.648  -2.070   1.391  0.00  0.00    -0.182 NA
ATOM     15  H   UNL     1      -1.111  -1.220   1.324  0.00  0.00    +0.149 HD
BRANCH  14  21
ATOM     16  C   UNL     1       1.245   1.433  -0.225  0.00  0.00    +0.007 C 
ATOM     17  C   UNL     1       0.673   0.018  -0.120  0.00  0.00    -0.012 C 
ATOM     18  C   UNL     1       0.917  -0.729  -1.433  0.00  0.00    +0.003 C 
ATOM     19  C   UNL     1       0.346  -2.144  -1.329  0.00  0.00    +0.002 C 
ATOM     20  C   UNL     1       1.035  -2.889  -0.183  0.00  0.00    +0.026 C 
ATOM     21  C   UNL     1       0.791  -2.142   1.130  0.00  0.00    +0.063 C 
ATOM     22  C   UNL     1       1.363  -0.727   1.025  0.00  0.00    +0.029 C 
BRANCH  21  23
ATOM     23  C   UNL     1       1.480  -2.887   2.275  0.00  0.00    +0.179 C 
BRANCH  23  24
ATOM     24  O   UNL     1       1.167  -4.279   2.195  0.00  0.00    -0.393 OA
ATOM     25  H   UNL     1       1.511  -4.803   2.932  0.00  0.00    +0.209 HD
ENDBRANCH  23  24
ENDBRANCH  21  23
ENDBRANCH  14  21
ENDBRANCH   1  14
TORSDOF 6
