REMARK  Name = ZINC01290734
REMARK  6 active torsions:
REMARK  status: ('A' for Active; 'I' for Inactive)
REMARK    1  A    between atoms: C_1  and  C_2
REMARK    2  A    between atoms: C_3  and  C_8
REMARK    3  A    between atoms: C_4  and  C_7
REMARK    4  A    between atoms: C_8  and  S_9
REMARK    5  A    between atoms: S_9  and  C_10
REMARK    6  A    between atoms: C_13  and  O_14
REMARK                            x       y       z     vdW  Elec       q    Type
REMARK                         _______ _______ _______ _____ _____    ______ ____
ROOT
ATOM      1  C   UNL     1      -3.074   3.670   1.454  0.00  0.00    +0.193 A 
ATOM      2  N   UNL     1      -3.761   4.173   2.520  0.00  0.00    -0.187 NA
ATOM      3  C   UNL     1      -4.824   4.980   2.348  0.00  0.00    +0.225 A 
ATOM      4  C   UNL     1      -5.229   5.323   1.019  0.00  0.00    +0.072 A 
ATOM      5  C   UNL     1      -6.339   6.182   0.602  0.00  0.00    -0.023 A 
ATOM      6  C   UNL     1      -6.522   6.344  -0.724  0.00  0.00    -0.004 A 
ATOM      7  S   UNL     1      -5.253   5.371  -1.487  0.00  0.00    -0.073 S 
ATOM      8  C   UNL     1      -4.469   4.756  -0.018  0.00  0.00    +0.117 A 
ATOM      9  N   UNL     1      -3.432   3.962   0.220  0.00  0.00    -0.214 NA
ATOM     10  C   UNL     1      -7.578   7.165  -1.400  0.00  0.00    +0.043 C 
ATOM     11  C   UNL     1      -8.661   7.508  -0.368  0.00  0.00    +0.005 C 
ATOM     12  C   UNL     1      -7.981   8.022   0.905  0.00  0.00    +0.005 C 
ATOM     13  C   UNL     1      -7.257   6.872   1.607  0.00  0.00    +0.037 C 
ENDROOT
BRANCH   3  15
ATOM     14  H   UNL     1      -6.180   6.000   2.996  0.00  0.00    +0.294 HD
ATOM     15  O   UNL     1      -5.425   5.425   3.311  0.00  0.00    -0.492 OA
ENDBRANCH   3  15
BRANCH   1  16
ATOM     16  S   UNL     1      -1.689   2.617   1.731  0.00  0.00    -0.081 S 
BRANCH  16  17
ATOM     17  C   UNL     1      -1.217   2.261   0.020  0.00  0.00    +0.117 C 
BRANCH  17  20
ATOM     18  C   UNL     1       1.915   3.105   0.000  0.00  0.00    +0.069 C 
ATOM     19  C   UNL     1       1.350   1.709  -0.002  0.00  0.00    +0.085 A 
ATOM     20  C   UNL     1      -0.018   1.349   0.009  0.00  0.00    +0.027 A 
ATOM     21  C   UNL     1       0.001  -0.006   0.002  0.00  0.00    +0.138 A 
ATOM     22  O   UNL     1       1.291  -0.368  -0.012  0.00  0.00    -0.359 OA
ATOM     23  N   UNL     1       2.023   0.595  -0.014  0.00  0.00    -0.083 NA
ATOM     24  C   UNL     1      -1.194  -0.924   0.009  0.00  0.00    +0.089 C 
ENDBRANCH  17  20
ENDBRANCH  16  17
ENDBRANCH   1  16
TORSDOF 4
