REMARK  Name = ZINC15222506
REMARK  3 active torsions:
REMARK  status: ('A' for Active; 'I' for Inactive)
REMARK    1  A    between atoms: C_4  and  N_7
REMARK    2  A    between atoms: C_13  and  C_14
REMARK    3  A    between atoms: C_17  and  O_20
REMARK                            x       y       z     vdW  Elec       q    Type
REMARK                         _______ _______ _______ _____ _____    ______ ____
ROOT
ATOM      1  N   UNL     1       4.178   0.085   1.040  0.00  0.00    -0.226 NA
ATOM      2  C   UNL     1       4.240  -1.104   1.595  0.00  0.00    +0.166 C 
ATOM      3  N   UNL     1       3.350  -1.689   2.469  0.00  0.00    -0.260 N 
ATOM      4  C   UNL     1       3.566  -2.907   2.937  0.00  0.00    +0.256 C 
ATOM      5  O   UNL     1       2.790  -3.439   3.709  0.00  0.00    -0.269 OA
ATOM      6  C   UNL     1       4.791  -3.591   2.481  0.00  0.00    +0.078 C 
ATOM      7  C   UNL     1       5.255  -4.827   2.797  0.00  0.00    +0.028 C 
ATOM      8  S   UNL     1       5.494  -2.359   1.395  0.00  0.00    -0.049 S 
ATOM      9  H   UNL     1       2.556  -1.203   2.743  0.00  0.00    +0.157 HD
ENDROOT
BRANCH   1  13
ATOM     10  C   UNL     1       0.999   2.598   1.879  0.00  0.00    +0.000 A 
ATOM     11  C   UNL     1       2.290   3.097   1.879  0.00  0.00    +0.002 A 
ATOM     12  C   UNL     1       3.354   2.265   1.601  0.00  0.00    +0.028 A 
ATOM     13  C   UNL     1       3.127   0.916   1.318  0.00  0.00    +0.067 A 
ATOM     14  C   UNL     1       1.821   0.419   1.319  0.00  0.00    +0.028 A 
ATOM     15  C   UNL     1       0.767   1.263   1.599  0.00  0.00    +0.002 A 
ENDBRANCH   1  13
BRANCH   7  16
ATOM     16  C   UNL     1       6.591  -5.245   2.352  0.00  0.00    -0.024 A 
ATOM     17  C   UNL     1       7.518  -4.290   1.919  0.00  0.00    +0.011 A 
ATOM     18  C   UNL     1       8.769  -4.688   1.503  0.00  0.00    +0.046 A 
ATOM     19  C   UNL     1       9.112  -6.035   1.513  0.00  0.00    +0.117 A 
ATOM     20  C   UNL     1       8.195  -6.987   1.942  0.00  0.00    +0.046 A 
ATOM     21  C   UNL     1       6.943  -6.601   2.365  0.00  0.00    +0.011 A 
BRANCH  19  22
ATOM     22  O   UNL     1      10.347  -6.422   1.103  0.00  0.00    -0.507 OA
ATOM     23  H   UNL     1      11.006  -6.451   1.810  0.00  0.00    +0.292 HD
ENDBRANCH  19  22
ENDBRANCH   7  16
TORSDOF 3
