REMARK  Name = ZINC08253615
REMARK  6 active torsions:
REMARK  status: ('A' for Active; 'I' for Inactive)
REMARK    1  A    between atoms: C_1  and  O_2
REMARK    2  A    between atoms: O_2  and  C_3
REMARK    3  A    between atoms: C_6  and  N_9
REMARK    4  A    between atoms: C_15  and  O_35
REMARK    5  A    between atoms: N_21  and  C_24
REMARK    6  A    between atoms: C_24  and  C_25
REMARK                            x       y       z     vdW  Elec       q    Type
REMARK                         _______ _______ _______ _____ _____    ______ ____
ROOT
ATOM      1  N   UNL     1      -1.112   7.020   1.845  0.00  0.00    -0.277 N 
ATOM      2  C   UNL     1      -0.507   8.034   0.968  0.00  0.00    +0.118 C 
ATOM      3  C   UNL     1       1.022   7.920   1.049  0.00  0.00    +0.123 C 
ATOM      4  C   UNL     1       1.630   9.061   0.220  0.00  0.00    +0.051 C 
ATOM      5  C   UNL     1       1.201  10.405   0.858  0.00  0.00    +0.158 C 
ATOM      6  C   UNL     1       0.294  10.145   2.065  0.00  0.00    +0.227 C 
ATOM      7  C   UNL     1      -0.943   9.372   1.598  0.00  0.00    +0.140 C 
ATOM      8  N   UNL     1      -1.740   8.969   2.766  0.00  0.00    -0.299 N 
ATOM      9  C   UNL     1      -1.789   7.632   2.825  0.00  0.00    +0.141 C 
ATOM     10  S   UNL     1      -2.637   6.782   4.046  0.00  0.00    -0.018 S 
ATOM     11  O   UNL     1       1.024   9.322   3.028  0.00  0.00    -0.457 OA
ATOM     12  C   UNL     1       1.419   8.133   2.503  0.00  0.00    +0.313 C 
ATOM     13  O   UNL     1       2.036   7.311   3.138  0.00  0.00    -0.250 OA
ENDROOT
BRANCH   1  17
ATOM     14  C   UNL     1      -0.787   2.892   1.348  0.00  0.00    +0.120 A 
ATOM     15  C   UNL     1      -1.480   3.651   0.415  0.00  0.00    +0.047 A 
ATOM     16  C   UNL     1      -1.592   5.017   0.581  0.00  0.00    +0.027 A 
ATOM     17  C   UNL     1      -1.003   5.633   1.677  0.00  0.00    +0.036 A 
ATOM     18  C   UNL     1      -0.305   4.874   2.608  0.00  0.00    +0.027 A 
ATOM     19  C   UNL     1      -0.198   3.507   2.443  0.00  0.00    +0.047 A 
BRANCH  14  21
ATOM     20  C   UNL     1      -1.312   0.980   0.035  0.00  0.00    +0.277 C 
ATOM     21  O   UNL     1      -0.681   1.546   1.186  0.00  0.00    -0.495 OA
ENDBRANCH  14  21
ENDBRANCH   1  17
BRANCH   5  22
ATOM     22  O   UNL     1       0.490  11.175  -0.114  0.00  0.00    -0.388 OA
ATOM     23  H   UNL     1       1.004  11.378  -0.907  0.00  0.00    +0.210 HD
ENDBRANCH   5  22
BRANCH   8  24
ATOM     24  C   UNL     1      -2.382   9.885   3.712  0.00  0.00    +0.142 C 
BRANCH  24  25
ATOM     25  C   UNL     1      -3.777  10.201   3.236  0.00  0.00    -0.030 A 
ATOM     26  C   UNL     1      -3.994  11.284   2.404  0.00  0.00    +0.008 A 
ATOM     27  C   UNL     1      -5.272  11.571   1.963  0.00  0.00    +0.038 A 
ATOM     28  C   UNL     1      -6.336  10.781   2.363  0.00  0.00    +0.123 A 
ATOM     29  C   UNL     1      -6.118   9.700   3.200  0.00  0.00    +0.038 A 
ATOM     30  C   UNL     1      -4.839   9.411   3.636  0.00  0.00    +0.008 A 
ATOM     31  F   UNL     1      -7.587  11.065   1.937  0.00  0.00    -0.205 F 
ENDBRANCH  24  25
ENDBRANCH   8  24
TORSDOF 5
