REMARK  Name = ZINC40209787
REMARK  12 active torsions:
REMARK  status: ('A' for Active; 'I' for Inactive)
REMARK    1  A    between atoms: C_10  and  O_11
REMARK    2  A    between atoms: O_11  and  C_12
REMARK    3  A    between atoms: C_12  and  C_13
REMARK    4  A    between atoms: C_13  and  C_14
REMARK    5  A    between atoms: C_14  and  N_15
REMARK    6  A    between atoms: C_23  and  C_24
REMARK    7  A    between atoms: C_24  and  C_25
REMARK    8  A    between atoms: C_25  and  C_26
REMARK    9  A    between atoms: C_26  and  N_27
REMARK   10  A    between atoms: C_28  and  C_30
REMARK   11  A    between atoms: C_30  and  O_31
REMARK   12  A    between atoms: O_31  and  C_32
REMARK                            x       y       z     vdW  Elec       q    Type
REMARK                         _______ _______ _______ _____ _____    ______ ____
ROOT
ATOM      1  N   UNL     1       9.690   0.367  -0.088  0.00  0.00    -0.327 N 
ATOM      2  C   UNL     1      10.316   0.885  -1.204  0.00  0.00    +0.069 A 
ATOM      3  C   UNL     1      10.119   0.755  -2.572  0.00  0.00    +0.028 A 
ATOM      4  C   UNL     1      10.945   1.427  -3.448  0.00  0.00    +0.002 A 
ATOM      5  C   UNL     1      11.971   2.230  -2.971  0.00  0.00    +0.002 A 
ATOM      6  C   UNL     1      12.180   2.370  -1.629  0.00  0.00    +0.030 A 
ATOM      7  C   UNL     1      11.355   1.700  -0.722  0.00  0.00    +0.089 A 
ATOM      8  N   UNL     1      11.310   1.638   0.634  0.00  0.00    -0.232 NA
ATOM      9  C   UNL     1      10.332   0.863   1.004  0.00  0.00    +0.111 A 
ENDROOT
BRANCH   1  10
ATOM     10  C   UNL     1       8.542  -0.543  -0.082  0.00  0.00    +0.127 C 
BRANCH  10  11
ATOM     11  C   UNL     1       7.246   0.271  -0.066  0.00  0.00    +0.062 C 
BRANCH  11  12
ATOM     12  C   UNL     1       6.047  -0.680  -0.059  0.00  0.00    +0.231 C 
BRANCH  12  13
ATOM     13  O   UNL     1       4.837   0.080  -0.043  0.00  0.00    -0.491 OA
BRANCH  13  23
ATOM     14  C   UNL     1      -0.016   1.357   0.009  0.00  0.00    +0.001 A 
ATOM     15  C   UNL     1       1.169   2.090   0.002  0.00  0.00    +0.001 A 
ATOM     16  C   UNL     1       2.379   1.467  -0.013  0.00  0.00    +0.012 A 
ATOM     17  C   UNL     1       2.437   0.064  -0.021  0.00  0.00    +0.024 A 
ATOM     18  C   UNL     1       1.233  -0.683  -0.013  0.00  0.00    -0.014 A 
ATOM     19  C   UNL     1       0.002  -0.004   0.002  0.00  0.00    +0.008 A 
ATOM     20  C   UNL     1       1.292  -2.087  -0.021  0.00  0.00    +0.009 A 
ATOM     21  C   UNL     1       2.501  -2.713  -0.035  0.00  0.00    +0.004 A 
ATOM     22  C   UNL     1       3.687  -1.984  -0.043  0.00  0.00    +0.046 A 
ATOM     23  C   UNL     1       3.671  -0.617  -0.036  0.00  0.00    +0.128 A 
ENDBRANCH  13  23
ENDBRANCH  12  13
ENDBRANCH  11  12
ENDBRANCH  10  11
ENDBRANCH   1  10
BRANCH   9  24
ATOM     24  C   UNL     1       9.966   0.557   2.433  0.00  0.00    +0.076 C 
BRANCH  24  25
ATOM     25  C   UNL     1      10.738  -0.678   2.904  0.00  0.00    +0.026 C 
BRANCH  25  26
ATOM     26  C   UNL     1      10.367  -0.989   4.355  0.00  0.00    +0.104 C 
BRANCH  26  27
ATOM     27  N   UNL     1      11.106  -2.171   4.806  0.00  0.00    -0.312 N 
ATOM     28  C   UNL     1      10.937  -2.633   6.061  0.00  0.00    +0.251 C 
ATOM     29  O   UNL     1      10.174  -2.070   6.816  0.00  0.00    -0.272 OA
ATOM     30  H   UNL     1      11.716  -2.620   4.201  0.00  0.00    +0.149 HD
BRANCH  28  31
ATOM     31  C   UNL     1      11.697  -3.849   6.524  0.00  0.00    +0.324 C 
BRANCH  31  32
ATOM     32  O   UNL     1      11.351  -4.139   7.880  0.00  0.00    -0.483 OA
BRANCH  32  33
ATOM     33  C   UNL     1      11.953  -5.214   8.454  0.00  0.00    +0.121 A 
ATOM     34  C   UNL     1      12.863  -5.970   7.729  0.00  0.00    +0.047 A 
ATOM     35  C   UNL     1      13.474  -7.062   8.314  0.00  0.00    +0.023 A 
ATOM     36  C   UNL     1      13.178  -7.402   9.623  0.00  0.00    +0.041 A 
ATOM     37  C   UNL     1      12.271  -6.650  10.347  0.00  0.00    +0.023 A 
ATOM     38  C   UNL     1      11.663  -5.553   9.767  0.00  0.00    +0.047 A 
ATOM     39 CL   UNL     1      13.947  -8.775  10.356  0.00  0.00    -0.084 Cl
ENDBRANCH  32  33
ENDBRANCH  31  32
ENDBRANCH  28  31
ENDBRANCH  26  27
ENDBRANCH  25  26
ENDBRANCH  24  25
ENDBRANCH   9  24
TORSDOF 12
