REMARK  Name = ZINC29279380
REMARK  5 active torsions:
REMARK  status: ('A' for Active; 'I' for Inactive)
REMARK    1  A    between atoms: C_1  and  C_2
REMARK    2  A    between atoms: C_5  and  C_9
REMARK    3  A    between atoms: C_6  and  C_8
REMARK    4  A    between atoms: C_15  and  C_17
REMARK    5  A    between atoms: C_17  and  N_18
REMARK                            x       y       z     vdW  Elec       q    Type
REMARK                         _______ _______ _______ _____ _____    ______ ____
ROOT
ATOM      1  C   UNL     1      -0.646  -7.401  -4.688  0.00  0.00    +0.080 A 
ATOM      2  C   UNL     1       0.352  -7.373  -3.754  0.00  0.00    +0.076 A 
ATOM      3  S   UNL     1       0.176  -5.706  -3.131  0.00  0.00    -0.060 S 
ATOM      4  C   UNL     1      -1.201  -5.226  -4.164  0.00  0.00    +0.165 A 
ATOM      5  N   UNL     1      -1.397  -6.325  -4.869  0.00  0.00    -0.225 NA
ATOM      6  N   UNL     1      -1.881  -4.015  -4.216  0.00  0.00    -0.263 N 
ATOM      7  C   UNL     1      -1.520  -3.005  -3.400  0.00  0.00    +0.237 C 
ATOM      8  O   UNL     1      -0.602  -3.152  -2.622  0.00  0.00    -0.274 OA
ATOM      9  H   UNL     1      -2.713  -3.882  -4.922  0.00  0.00    +0.157 HD
ENDROOT
BRANCH   1  14
ATOM     10  C   UNL     1      -1.575 -12.150  -7.810  0.00  0.00    +0.044 C 
ATOM     11  C   UNL     1      -1.332 -10.907  -6.993  0.00  0.00    -0.050 A 
ATOM     12  C   UNL     1      -0.046 -10.416  -6.851  0.00  0.00    +0.004 A 
ATOM     13  C   UNL     1       0.182  -9.276  -6.108  0.00  0.00    +0.010 A 
ATOM     14  C   UNL     1      -0.885  -8.624  -5.492  0.00  0.00    +0.004 A 
ATOM     15  C   UNL     1      -2.178  -9.123  -5.639  0.00  0.00    -0.041 A 
ATOM     16  C   UNL     1      -2.395 -10.261  -6.388  0.00  0.00    +0.007 A 
ATOM     17  C   UNL     1      -3.337  -8.420  -4.981  0.00  0.00    +0.044 C 
ENDBRANCH   1  14
BRANCH   7  18
ATOM     18  C   UNL     1      -2.258  -1.692  -3.457  0.00  0.00    +0.214 C 
BRANCH  18  19
ATOM     19  N   UNL     1      -1.680  -0.765  -2.480  0.00  0.00    -0.215 N 
ATOM     20  C   UNL     1      -0.664   0.085  -2.748  0.00  0.00    +0.251 C 
ATOM     21  O   UNL     1      -0.078   0.222  -3.800  0.00  0.00    -0.272 OA
ATOM     22  C   UNL     1      -0.416   0.825  -1.460  0.00  0.00    +0.138 C 
ATOM     23  C   UNL     1      -0.607   2.336  -1.642  0.00  0.00    +0.045 C 
ATOM     24  C   UNL     1       0.841   2.820  -1.883  0.00  0.00    +0.038 C 
ATOM     25  C   UNL     1       1.723   1.788  -1.211  0.00  0.00    -0.042 A 
ATOM     26  C   UNL     1       0.994   0.634  -0.972  0.00  0.00    -0.012 A 
ATOM     27  C   UNL     1       1.606  -0.450  -0.365  0.00  0.00    +0.006 A 
ATOM     28  C   UNL     1       2.936  -0.385   0.002  0.00  0.00    +0.000 A 
ATOM     29  C   UNL     1       3.662   0.767  -0.235  0.00  0.00    +0.000 A 
ATOM     30  C   UNL     1       3.055   1.851  -0.841  0.00  0.00    +0.004 A 
ATOM     31  N   UNL     1      -1.395   0.273  -0.523  0.00  0.00    -0.281 N 
ATOM     32  C   UNL     1      -2.092  -0.654  -1.211  0.00  0.00    +0.310 C 
ATOM     33  O   UNL     1      -2.994  -1.315  -0.733  0.00  0.00    -0.252 OA
ATOM     34  H   UNL     1      -1.435   0.642   0.512  0.00  0.00    +0.152 HD
ENDBRANCH  18  19
ENDBRANCH   7  18
TORSDOF 3
