REMARK  Name = ZINC40433236
REMARK  5 active torsions:
REMARK  status: ('A' for Active; 'I' for Inactive)
REMARK    1  A    between atoms: C_2  and  C_11
REMARK    2  A    between atoms: C_11  and  N_12
REMARK    3  A    between atoms: N_12  and  C_13
REMARK    4  A    between atoms: C_13  and  C_14
REMARK    5  A    between atoms: C_14  and  N_15
REMARK                            x       y       z     vdW  Elec       q    Type
REMARK                         _______ _______ _______ _____ _____    ______ ____
ROOT
ATOM      1  N   UNL     1       1.423   4.091   1.363  0.00  0.00    +0.381 N 
ATOM      2  H   UNL     1       0.812   3.734   2.082  0.00  0.00    -0.086 HD
ATOM      3  H   UNL     1       2.365   3.771   1.531  0.00  0.00    -0.086 HD
ENDROOT
BRANCH   1   4
ATOM      4  C   UNL     1       0.970   3.609   0.051  0.00  0.00    -0.046 C 
BRANCH   4   6
ATOM      5  C   UNL     1      -0.181   1.388   0.118  0.00  0.00    +0.052 A 
ATOM      6  C   UNL     1       0.999   2.102   0.032  0.00  0.00    -0.047 A 
ATOM      7  C   UNL     1       2.207   1.437  -0.071  0.00  0.00    +0.023 A 
ATOM      8  C   UNL     1       2.239   0.054  -0.090  0.00  0.00    +0.065 A 
ATOM      9  C   UNL     1       1.060  -0.667  -0.004  0.00  0.00    +0.167 A 
ATOM     10  C   UNL     1      -0.157   0.003   0.100  0.00  0.00    +0.166 A 
ATOM     11  O   UNL     1      -1.160  -0.921   0.169  0.00  0.00    -0.453 OA
ATOM     12  C   UNL     1      -0.581  -2.151  -0.305  0.00  0.00    +0.466 C 
ATOM     13  O   UNL     1       0.819  -2.011  -0.001  0.00  0.00    -0.453 OA
ATOM     14 BR   UNL     1       3.819   2.420  -0.188  0.00  0.00    -0.050 Br
ENDBRANCH   4   6
ENDBRANCH   1   4
BRANCH   1  15
ATOM     15  C   UNL     1       1.394   5.560   1.381  0.00  0.00    -0.101 C 
BRANCH  15  16
ATOM     16  C   UNL     1       1.867   6.062   2.747  0.00  0.00    -0.098 C 
BRANCH  16  17
ATOM     17  N   UNL     1       1.961   7.528   2.724  0.00  0.00    +0.379 N 
ATOM     18  C   UNL     1       2.640   7.978   3.954  0.00  0.00    -0.079 C 
ATOM     19  C   UNL     1       3.268   9.322   3.684  0.00  0.00    -0.019 C 
ATOM     20  C   UNL     1       2.356  10.474   4.148  0.00  0.00    -0.002 C 
ATOM     21  C   UNL     1       0.875  10.200   3.814  0.00  0.00    -0.002 C 
ATOM     22  C   UNL     1       0.697   9.594   2.446  0.00  0.00    -0.019 C 
ATOM     23  C   UNL     1       0.677   8.057   2.575  0.00  0.00    -0.079 C 
ATOM     24  H   UNL     1       2.518   7.803   1.929  0.00  0.00    -0.082 HD
ENDBRANCH  16  17
ENDBRANCH  15  16
ENDBRANCH   1  15
TORSDOF 5
