REMARK  Name = ZINC22828325
REMARK  10 active torsions:
REMARK  status: ('A' for Active; 'I' for Inactive)
REMARK    1  A    between atoms: C_1  and  N_2
REMARK    2  A    between atoms: C_5  and  C_12
REMARK    3  A    between atoms: C_7  and  C_9
REMARK    4  A    between atoms: N_14  and  N_15
REMARK    5  A    between atoms: N_15  and  C_16
REMARK    6  A    between atoms: C_16  and  N_18
REMARK    7  A    between atoms: N_18  and  C_19
REMARK    8  A    between atoms: N_22  and  C_24
REMARK    9  A    between atoms: C_24  and  C_25
REMARK   10  A    between atoms: C_32  and  C_34
REMARK                            x       y       z     vdW  Elec       q    Type
REMARK                         _______ _______ _______ _____ _____    ______ ____
ROOT
ATOM      1  C   UNL     1      -1.031   2.853  -3.668  0.00  0.00    +0.261 C 
ATOM      2  O   UNL     1      -0.594   3.088  -2.558  0.00  0.00    -0.269 OA
ATOM      3  N   UNL     1      -0.738   3.674  -4.695  0.00  0.00    -0.231 N 
ATOM      4  H   UNL     1      -1.134   3.461  -5.699  0.00  0.00    +0.173 HD
ENDROOT
BRANCH   1   9
ATOM      5  C   UNL     1      -4.197  -2.038  -1.636  0.00  0.00    +0.174 C 
ATOM      6  N   UNL     1      -3.388  -0.837  -1.858  0.00  0.00    -0.249 N 
ATOM      7  C   UNL     1      -3.127  -0.257  -3.072  0.00  0.00    +0.159 A 
ATOM      8  C   UNL     1      -2.315   0.865  -2.809  0.00  0.00    +0.054 A 
ATOM      9  C   UNL     1      -1.885   1.666  -3.889  0.00  0.00    +0.052 A 
ATOM     10  C   UNL     1      -2.290   1.301  -5.171  0.00  0.00    +0.037 A 
ATOM     11  C   UNL     1      -3.090   0.181  -5.338  0.00  0.00    +0.047 A 
ATOM     12  N   UNL     1      -3.478  -0.549  -4.316  0.00  0.00    -0.232 NA
ATOM     13  C   UNL     1      -2.115   0.915  -1.413  0.00  0.00    +0.076 A 
ATOM     14  N   UNL     1      -2.742  -0.088  -0.867  0.00  0.00    -0.174 NA
BRANCH  11  15
ATOM     15  C   UNL     1      -3.526  -0.210  -6.727  0.00  0.00    +0.038 C 
ATOM     16  C   UNL     1      -3.390   0.840  -7.832  0.00  0.00    +0.010 C 
ATOM     17  C   UNL     1      -4.774   0.470  -7.293  0.00  0.00    +0.010 C 
ENDBRANCH  11  15
BRANCH  13  18
ATOM     18  C   UNL     1      -1.305   1.951  -0.677  0.00  0.00    +0.040 C 
ATOM     19  C   UNL     1       0.166   1.634  -0.401  0.00  0.00    +0.010 C 
ATOM     20  C   UNL     1      -0.848   1.614   0.744  0.00  0.00    +0.010 C 
ENDBRANCH  13  18
ENDBRANCH   1   9
BRANCH   3  21
ATOM     21  N   UNL     1       0.070   4.798  -4.485  0.00  0.00    -0.245 N 
ATOM     22  H   UNL     1       0.467   5.011  -3.481  0.00  0.00    +0.172 HD
BRANCH  21  23
ATOM     23  C   UNL     1       0.363   5.620  -5.513  0.00  0.00    +0.151 C 
ATOM     24  S   UNL     1       1.351   6.994  -5.256  0.00  0.00    -0.017 S 
BRANCH  23  25
ATOM     25  N   UNL     1      -0.122   5.359  -6.743  0.00  0.00    -0.293 N 
ATOM     26  H   UNL     1      -0.825   4.526  -6.892  0.00  0.00    +0.154 HD
BRANCH  25  27
ATOM     27  C   UNL     1       0.272   6.152  -7.838  0.00  0.00    +0.071 A 
ATOM     28  C   UNL     1       1.535   6.732  -8.026  0.00  0.00    +0.157 A 
ATOM     29  N   UNL     1       1.521   7.393  -9.155  0.00  0.00    -0.177 NA
ATOM     30  N   UNL     1       0.249   7.260  -9.728  0.00  0.00    -0.265 N 
ATOM     31  C   UNL     1      -0.502   6.487  -8.902  0.00  0.00    +0.132 A 
BRANCH  30  32
ATOM     32  C   UNL     1      -0.190   7.846 -10.997  0.00  0.00    +0.181 C 
BRANCH  32  33
ATOM     33  C   UNL     1       0.042   9.335 -10.969  0.00  0.00    +0.009 A 
ATOM     34  C   UNL     1       1.149   9.874 -11.596  0.00  0.00    +0.008 A 
ATOM     35  C   UNL     1       1.361  11.240 -11.571  0.00  0.00    +0.000 A 
ATOM     36  C   UNL     1       0.466  12.068 -10.919  0.00  0.00    +0.003 A 
ATOM     37  C   UNL     1      -0.642  11.531 -10.292  0.00  0.00    +0.039 A 
ATOM     38  C   UNL     1      -0.858  10.164 -10.320  0.00  0.00    +0.128 A 
ATOM     39  F   UNL     1      -1.944   9.638  -9.712  0.00  0.00    -0.205 F 
ENDBRANCH  32  33
ENDBRANCH  30  32
ENDBRANCH  25  27
ENDBRANCH  23  25
ENDBRANCH  21  23
ENDBRANCH   3  21
TORSDOF 9
