REMARK  Name = ZINC21438064
REMARK  5 active torsions:
REMARK  status: ('A' for Active; 'I' for Inactive)
REMARK    1  A    between atoms: C_1  and  N_2
REMARK    2  A    between atoms: C_12  and  S_13
REMARK    3  A    between atoms: S_13  and  C_14
REMARK    4  A    between atoms: C_14  and  C_15
REMARK    5  A    between atoms: C_28  and  C_30
REMARK                            x       y       z     vdW  Elec       q    Type
REMARK                         _______ _______ _______ _____ _____    ______ ____
ROOT
ATOM      1  C   UNL     1       0.057  -0.382   5.334  0.00  0.00    +0.231 C 
ATOM      2  O   UNL     1       0.041   0.828   5.419  0.00  0.00    -0.274 OA
ATOM      3  N   UNL     1       0.078  -1.135   6.451  0.00  0.00    -0.257 N 
ATOM      4  C   UNL     1       0.102  -2.534   6.367  0.00  0.00    +0.058 A 
ATOM      5  C   UNL     1       1.245  -3.197   5.950  0.00  0.00    +0.025 A 
ATOM      6  C   UNL     1       1.257  -4.579   5.896  0.00  0.00    +0.002 A 
ATOM      7  C   UNL     1       0.135  -5.301   6.258  0.00  0.00    +0.002 A 
ATOM      8  C   UNL     1      -1.012  -4.647   6.667  0.00  0.00    +0.025 A 
ATOM      9  C   UNL     1      -1.036  -3.263   6.714  0.00  0.00    +0.055 A 
ATOM     10  N   UNL     1      -2.203  -2.577   7.071  0.00  0.00    -0.284 N 
ATOM     11  C   UNL     1      -2.160  -1.581   7.983  0.00  0.00    +0.219 C 
ATOM     12  O   UNL     1      -3.162  -0.940   8.222  0.00  0.00    -0.275 OA
ATOM     13  C   UNL     1      -0.877  -1.261   8.704  0.00  0.00    +0.128 C 
ATOM     14  C   UNL     1       0.081  -0.508   7.774  0.00  0.00    +0.194 C 
ATOM     15  H   UNL     1      -3.048  -2.818   6.661  0.00  0.00    +0.155 HD
ENDROOT
BRANCH  14  16
ATOM     16  C   UNL     1       1.497  -0.550   8.353  0.00  0.00    +0.409 C 
ATOM     17  F   UNL     1       2.368   0.142   7.505  0.00  0.00    -0.169 F 
ATOM     18  F   UNL     1       1.502   0.049   9.617  0.00  0.00    -0.169 F 
ATOM     19  F   UNL     1       1.915  -1.880   8.466  0.00  0.00    -0.169 F 
ENDBRANCH  14  16
BRANCH   1  20
ATOM     20  C   UNL     1       0.053  -1.042   3.979  0.00  0.00    +0.173 C 
BRANCH  20  21
ATOM     21  S   UNL     1       0.024   0.231   2.687  0.00  0.00    -0.078 S 
BRANCH  21  33
ATOM     22  C   UNL     1      -0.018   1.461   0.010  0.00  0.00    +0.154 C 
ATOM     23  N   UNL     1       0.002  -0.004   0.002  0.00  0.00    -0.290 N 
ATOM     24  C   UNL     1       0.006  -0.670  -1.176  0.00  0.00    +0.262 A 
ATOM     25  O   UNL     1      -0.007  -0.074  -2.238  0.00  0.00    -0.267 OA
ATOM     26  C   UNL     1       0.026  -2.138  -1.126  0.00  0.00    +0.065 A 
ATOM     27  C   UNL     1       0.032  -2.915  -2.284  0.00  0.00    +0.015 A 
ATOM     28  C   UNL     1       0.052  -4.278  -2.180  0.00  0.00    +0.001 A 
ATOM     29  C   UNL     1       0.066  -4.895  -0.936  0.00  0.00    +0.002 A 
ATOM     30  C   UNL     1       0.061  -4.158   0.214  0.00  0.00    +0.028 A 
ATOM     31  C   UNL     1       0.041  -2.762   0.142  0.00  0.00    +0.079 A 
ATOM     32  N   UNL     1       0.036  -1.997   1.252  0.00  0.00    -0.223 NA
ATOM     33  C   UNL     1       0.023  -0.689   1.184  0.00  0.00    +0.172 A 
ENDBRANCH  21  33
ENDBRANCH  20  21
ENDBRANCH   1  20
TORSDOF 4
