REMARK  Name = ZINC39689222
REMARK  10 active torsions:
REMARK  status: ('A' for Active; 'I' for Inactive)
REMARK    1  A    between atoms: C_1  and  C_2
REMARK    2  A    between atoms: C_2  and  C_3
REMARK    3  A    between atoms: C_3  and  C_4
REMARK    4  A    between atoms: C_4  and  C_5
REMARK    5  A    between atoms: C_5  and  C_7
REMARK    6  A    between atoms: C_5  and  C_8
REMARK    7  A    between atoms: C_12  and  C_21
REMARK    8  A    between atoms: N_23  and  C_24
REMARK    9  A    between atoms: C_24  and  C_25
REMARK   10  A    between atoms: N_28  and  C_31
REMARK                            x       y       z     vdW  Elec       q    Type
REMARK                         _______ _______ _______ _____ _____    ______ ____
ROOT
ATOM      1  C   UNL     1      -2.787  -3.987   0.449  0.00  0.00    +0.218 C 
ATOM      2  O   UNL     1      -1.784  -4.623   0.698  0.00  0.00    -0.275 OA
ATOM      3  N   UNL     1      -3.961  -4.624   0.270  0.00  0.00    -0.300 N 
ATOM      4  C   UNL     1      -5.256  -4.039  -0.150  0.00  0.00    +0.121 C 
ATOM      5  C   UNL     1      -5.865  -5.086  -1.109  0.00  0.00    +0.100 C 
ATOM      6  C   UNL     1      -5.202  -6.415  -0.711  0.00  0.00    -0.004 C 
ATOM      7  C   UNL     1      -4.247  -6.068   0.441  0.00  0.00    +0.115 C 
ATOM      8  C   UNL     1      -6.256  -7.413  -0.242  0.00  0.00    -0.010 C 
ATOM      9  C   UNL     1      -5.579  -8.745   0.092  0.00  0.00    -0.082 C 
ATOM     10  N   UNL     1      -4.887  -9.256  -1.097  0.00  0.00    +0.379 N 
ATOM     11  C   UNL     1      -3.812  -8.335  -1.486  0.00  0.00    -0.082 C 
ATOM     12  C   UNL     1      -4.415  -6.986  -1.887  0.00  0.00    -0.010 C 
ATOM     13  H   UNL     1      -4.493 -10.162  -0.891  0.00  0.00    -0.086 HD
ATOM     14  H   UNL     1      -5.545  -9.343  -1.856  0.00  0.00    -0.086 HD
ENDROOT
BRANCH   5  15
ATOM     15  C   UNL     1      -5.538  -4.741  -2.539  0.00  0.00    +0.218 C 
ATOM     16  O   UNL     1      -4.551  -4.084  -2.793  0.00  0.00    -0.275 OA
ATOM     17  N   UNL     1      -6.343  -5.162  -3.535  0.00  0.00    -0.315 N 
ATOM     18  H   UNL     1      -7.133  -5.688  -3.331  0.00  0.00    +0.149 HD
BRANCH  17  19
ATOM     19  C   UNL     1      -6.025  -4.827  -4.925  0.00  0.00    +0.107 C 
BRANCH  19  20
ATOM     20  C   UNL     1      -7.090  -5.421  -5.849  0.00  0.00    +0.003 C 
ATOM     21  C   UNL     1      -7.026  -6.950  -5.787  0.00  0.00    -0.014 C 
ATOM     22  C   UNL     1      -8.038  -7.538  -6.772  0.00  0.00    -0.078 C 
ATOM     23  N   UNL     1      -7.720  -7.089  -8.133  0.00  0.00    +0.382 N 
ATOM     24  C   UNL     1      -7.848  -5.629  -8.218  0.00  0.00    -0.078 C 
ATOM     25  C   UNL     1      -6.829  -4.968  -7.288  0.00  0.00    -0.014 C 
ATOM     26  H   UNL     1      -6.774  -7.356  -8.361  0.00  0.00    -0.081 HD
BRANCH  23  27
ATOM     27  C   UNL     1      -8.646  -7.717  -9.084  0.00  0.00    -0.069 C 
ATOM     28  C   UNL     1      -8.466  -9.249  -9.063  0.00  0.00    -0.015 C 
ATOM     29  C   UNL     1      -8.651  -9.673 -10.541  0.00  0.00    -0.002 C 
ATOM     30  C   UNL     1      -7.960  -8.524 -11.316  0.00  0.00    -0.002 C 
ATOM     31  C   UNL     1      -8.324  -7.256 -10.516  0.00  0.00    -0.015 C 
ENDBRANCH  23  27
ENDBRANCH  19  20
ENDBRANCH  17  19
ENDBRANCH   5  15
BRANCH   1  32
ATOM     32  C   UNL     1      -2.720  -2.485   0.341  0.00  0.00    +0.072 C 
ATOM     33  C   UNL     1      -1.374  -2.077  -0.263  0.00  0.00    +0.017 C 
BRANCH  32  34
ATOM     34  C   UNL     1      -2.863  -1.867   1.733  0.00  0.00    +0.012 C 
BRANCH  34  35
ATOM     35  C   UNL     1      -2.919  -0.343   1.611  0.00  0.00    +0.000 C 
BRANCH  35  37
ATOM     36  C   UNL     1      -3.119   1.800   2.880  0.00  0.00    +0.004 C 
ATOM     37  C   UNL     1      -3.062   0.276   3.003  0.00  0.00    -0.003 C 
ENDBRANCH  35  37
ENDBRANCH  34  35
ENDBRANCH  32  34
ENDBRANCH   1  32
TORSDOF 8
