REMARK  Name = ZINC13112528
REMARK  7 active torsions:
REMARK  status: ('A' for Active; 'I' for Inactive)
REMARK    1  A    between atoms: C_3  and  N_29
REMARK    2  A    between atoms: C_6  and  C_7
REMARK    3  A    between atoms: C_10  and  C_12
REMARK    4  A    between atoms: N_14  and  C_15
REMARK    5  A    between atoms: C_15  and  C_16
REMARK    6  A    between atoms: C_16  and  N_17
REMARK    7  A    between atoms: C_21  and  C_24
REMARK                            x       y       z     vdW  Elec       q    Type
REMARK                         _______ _______ _______ _____ _____    ______ ____
ROOT
ATOM      1  C   UNL     1      -1.187   1.624   0.017  0.00  0.00    +0.279 C 
ATOM      2  O   UNL     1      -1.204   2.841   0.023  0.00  0.00    -0.267 OA
ATOM      3  N   UNL     1      -0.011   0.966   0.007  0.00  0.00    -0.307 N 
ATOM      4  H   UNL     1       0.004  -0.134   0.006  0.00  0.00    +0.149 HD
ENDROOT
BRANCH   1   8
ATOM      5  C   UNL     1      -3.870  -0.799   0.015  0.00  0.00    +0.136 A 
ATOM      6  C   UNL     1      -4.612   0.347   0.025  0.00  0.00    +0.050 A 
ATOM      7  C   UNL     1      -3.712   1.418   0.027  0.00  0.00    +0.055 A 
ATOM      8  C   UNL     1      -2.446   0.874   0.018  0.00  0.00    +0.190 A 
ATOM      9  O   UNL     1      -2.568  -0.470   0.006  0.00  0.00    -0.450 OA
BRANCH   5  15
ATOM     10  C   UNL     1      -5.792  -2.385   0.020  0.00  0.00    +0.014 A 
ATOM     11  C   UNL     1      -6.290  -3.671   0.009  0.00  0.00    +0.033 A 
ATOM     12  C   UNL     1      -5.425  -4.751  -0.002  0.00  0.00    +0.126 A 
ATOM     13  C   UNL     1      -4.056  -4.550  -0.007  0.00  0.00    +0.033 A 
ATOM     14  C   UNL     1      -3.544  -3.269  -0.002  0.00  0.00    +0.014 A 
ATOM     15  C   UNL     1      -4.411  -2.174   0.009  0.00  0.00    +0.017 A 
BRANCH  12  16
ATOM     16  N   UNL     1      -5.967  -6.129  -0.007  0.00  0.00    +0.056 N 
ATOM     17  O   UNL     1      -5.208  -7.081  -0.016  0.00  0.00    -0.126 OA
ATOM     18  O   UNL     1      -7.171  -6.309  -0.003  0.00  0.00    -0.126 OA
ENDBRANCH  12  16
ENDBRANCH   5  15
ENDBRANCH   1   8
BRANCH   3  19
ATOM     19  C   UNL     1       1.248   1.716  -0.001  0.00  0.00    +0.123 C 
BRANCH  19  20
ATOM     20  C   UNL     1       2.424   0.737  -0.017  0.00  0.00    +0.121 C 
BRANCH  20  21
ATOM     21  N   UNL     1       3.682   1.487  -0.025  0.00  0.00    -0.326 N 
ATOM     22  C   UNL     1       4.896   0.808  -0.040  0.00  0.00    +0.137 A 
ATOM     23  C   UNL     1       6.089   1.527  -0.054  0.00  0.00    +0.081 A 
ATOM     24  C   UNL     1       7.289   0.838  -0.063  0.00  0.00    +0.037 A 
ATOM     25  C   UNL     1       7.256  -0.551  -0.070  0.00  0.00    +0.074 A 
ATOM     26  C   UNL     1       6.037  -1.198  -0.062  0.00  0.00    +0.125 A 
ATOM     27  N   UNL     1       4.907  -0.515  -0.048  0.00  0.00    -0.238 NA
ATOM     28 CL   UNL     1       6.070   3.263  -0.052  0.00  0.00    -0.080 Cl
ATOM     29  H   UNL     1       3.667   2.587  -0.019  0.00  0.00    +0.148 HD
BRANCH  25  30
ATOM     30  C   UNL     1       8.538  -1.343  -0.086  0.00  0.00    +0.419 C 
ATOM     31  F   UNL     1       8.242  -2.710  -0.090  0.00  0.00    -0.166 F 
ATOM     32  F   UNL     1       9.270  -1.021  -1.234  0.00  0.00    -0.166 F 
ATOM     33  F   UNL     1       9.292  -1.032   1.051  0.00  0.00    -0.166 F 
ENDBRANCH  25  30
ENDBRANCH  20  21
ENDBRANCH  19  20
ENDBRANCH   3  19
TORSDOF 7
