REMARK  Name = ZINC05002880
REMARK  9 active torsions:
REMARK  status: ('A' for Active; 'I' for Inactive)
REMARK    1  A    between atoms: C_1  and  C_2
REMARK    2  A    between atoms: C_7  and  O_10
REMARK    3  A    between atoms: O_10  and  C_11
REMARK    4  A    between atoms: C_11  and  C_13
REMARK    5  A    between atoms: C_14  and  C_30
REMARK    6  A    between atoms: C_19  and  C_21
REMARK    7  A    between atoms: C_24  and  N_27
REMARK    8  A    between atoms: N_27  and  C_28
REMARK    9  A    between atoms: N_27  and  C_29
REMARK                            x       y       z     vdW  Elec       q    Type
REMARK                         _______ _______ _______ _____ _____    ______ ____
ROOT
ATOM      1  C   UNL     1       2.254   1.362   6.973  0.00  0.00    +0.078 C 
ATOM      2  C   UNL     1       1.512   1.540   8.088  0.00  0.00    +0.021 C 
ATOM      3  N   UNL     1       0.977   2.759   8.390  0.00  0.00    -0.273 N 
ATOM      4  C   UNL     1       1.136   3.849   7.630  0.00  0.00    +0.304 C 
ATOM      5  O   UNL     1       0.620   4.892   7.983  0.00  0.00    -0.252 OA
ATOM      6  N   UNL     1       1.849   3.829   6.487  0.00  0.00    -0.288 N 
ATOM      7  C   UNL     1       2.470   2.560   6.071  0.00  0.00    +0.143 C 
ATOM      8  C   UNL     1       1.273   0.374   9.012  0.00  0.00    +0.061 C 
ATOM      9  H   UNL     1       0.451   2.839   9.202  0.00  0.00    +0.156 HD
ATOM     10  H   UNL     1       1.952   4.631   5.952  0.00  0.00    +0.151 HD
ENDROOT
BRANCH   7  11
ATOM     11  C   UNL     1       1.943   2.213   4.702  0.00  0.00    -0.022 A 
ATOM     12  C   UNL     1       2.818   1.823   3.705  0.00  0.00    +0.007 A 
ATOM     13  C   UNL     1       2.339   1.505   2.449  0.00  0.00    +0.023 A 
ATOM     14  C   UNL     1       0.977   1.575   2.189  0.00  0.00    +0.029 A 
ATOM     15  C   UNL     1       0.101   1.972   3.192  0.00  0.00    +0.023 A 
ATOM     16  C   UNL     1       0.586   2.284   4.447  0.00  0.00    +0.007 A 
BRANCH  14  17
ATOM     17  N   UNL     1       0.489   1.254   0.920  0.00  0.00    -0.336 N 
ATOM     18  C   UNL     1       1.414   0.842  -0.138  0.00  0.00    +0.129 C 
ATOM     19  C   UNL     1      -0.949   1.329   0.648  0.00  0.00    +0.129 C 
ENDBRANCH  14  17
ENDBRANCH   7  11
BRANCH   1  20
ATOM     20  C   UNL     1       2.810   0.100   6.658  0.00  0.00    +0.339 C 
ATOM     21  O   UNL     1       2.720  -0.819   7.450  0.00  0.00    -0.245 OA
BRANCH  20  22
ATOM     22  O   UNL     1       3.439  -0.085   5.479  0.00  0.00    -0.458 OA
BRANCH  22  28
ATOM     23  C   UNL     1       7.014  -2.531   3.155  0.00  0.00    +0.007 C 
ATOM     24  C   UNL     1       5.783  -2.654   4.056  0.00  0.00    -0.011 C 
ATOM     25  C   UNL     1       4.728  -3.517   3.363  0.00  0.00    +0.003 C 
ATOM     26  C   UNL     1       3.497  -3.639   4.264  0.00  0.00    +0.004 C 
ATOM     27  C   UNL     1       2.921  -2.248   4.533  0.00  0.00    +0.045 C 
ATOM     28  C   UNL     1       3.977  -1.385   5.227  0.00  0.00    +0.177 C 
ATOM     29  C   UNL     1       5.208  -1.262   4.326  0.00  0.00    +0.048 C 
ENDBRANCH  22  28
ENDBRANCH  20  22
ENDBRANCH   1  20
TORSDOF 5
