REMARK  Name = ZINC12023497
REMARK  2 active torsions:
REMARK  status: ('A' for Active; 'I' for Inactive)
REMARK    1  A    between atoms: C_3  and  C_16
REMARK    2  A    between atoms: C_6  and  N_7
REMARK                            x       y       z     vdW  Elec       q    Type
REMARK                         _______ _______ _______ _____ _____    ______ ____
ROOT
ATOM      1  C   UNL     1       4.751  -4.962  -0.068  0.00  0.00    +0.026 A 
ATOM      2  C   UNL     1       4.011  -3.802  -0.049  0.00  0.00    +0.016 A 
ATOM      3  C   UNL     1       4.656  -2.562  -0.055  0.00  0.00    +0.055 A 
ATOM      4  C   UNL     1       6.055  -2.505  -0.068  0.00  0.00    +0.055 A 
ATOM      5  C   UNL     1       6.789  -3.671  -0.081  0.00  0.00    +0.046 A 
ATOM      6  C   UNL     1       6.142  -4.902  -0.081  0.00  0.00    +0.061 A 
ATOM      7 CL   UNL     1       6.863  -0.969  -0.068  0.00  0.00    -0.083 Cl
ENDROOT
BRANCH   3   8
ATOM      8  C   UNL     1       3.866  -1.317  -0.041  0.00  0.00    +0.251 C 
ATOM      9  O   UNL     1       4.429  -0.239  -0.042  0.00  0.00    -0.270 OA
ATOM     10  N   UNL     1       2.520  -1.373  -0.029  0.00  0.00    -0.261 N 
ATOM     11  C   UNL     1       1.778  -0.204  -0.016  0.00  0.00    +0.166 A 
ATOM     12  N   UNL     1       2.200   1.038  -0.013  0.00  0.00    -0.225 NA
ATOM     13  C   UNL     1       1.355   2.092   0.000  0.00  0.00    +0.080 A 
ATOM     14  C   UNL     1       1.676   3.469   0.005  0.00  0.00    +0.030 A 
ATOM     15  C   UNL     1       0.689   4.419   0.021  0.00  0.00    +0.022 A 
ATOM     16  C   UNL     1      -0.655   4.069   0.032  0.00  0.00    +0.042 A 
ATOM     17  C   UNL     1      -1.005   2.730   0.031  0.00  0.00    +0.037 A 
ATOM     18  C   UNL     1      -0.022   1.772   0.012  0.00  0.00    +0.042 A 
ATOM     19  S   UNL     1       0.002  -0.004   0.002  0.00  0.00    -0.052 S 
ATOM     20 CL   UNL     1      -1.881   5.297   0.052  0.00  0.00    -0.084 Cl
ATOM     21  H   UNL     1       2.070  -2.233  -0.029  0.00  0.00    +0.157 HD
ENDBRANCH   3   8
BRANCH   6  22
ATOM     22  N   UNL     1       6.888  -6.080  -0.094  0.00  0.00    -0.144 N 
ATOM     23  C   UNL     1       8.134  -6.220  -0.571  0.00  0.00    +0.240 C 
ATOM     24  O   UNL     1       8.737  -5.268  -1.020  0.00  0.00    -0.274 OA
ATOM     25  C   UNL     1       8.767  -7.578  -0.531  0.00  0.00    +0.122 C 
ATOM     26  C   UNL     1       7.997  -8.457   0.490  0.00  0.00    +0.198 C 
ATOM     27  S   UNL     1       6.384  -7.572   0.475  0.00  0.00    +0.052 S 
ATOM     28  O   UNL     1       5.919  -7.342   1.798  0.00  0.00    -0.155 OA
ATOM     29  O   UNL     1       5.526  -8.097  -0.529  0.00  0.00    -0.155 OA
ENDBRANCH   6  22
TORSDOF 2
