REMARK  Name = ZINC20285826
REMARK  11 active torsions:
REMARK  status: ('A' for Active; 'I' for Inactive)
REMARK    1  A    between atoms: C_1  and  C_2
REMARK    2  A    between atoms: C_2  and  C_4
REMARK    3  A    between atoms: C_2  and  N_18
REMARK    4  A    between atoms: C_4  and  N_5
REMARK    5  A    between atoms: C_8  and  N_10
REMARK    6  A    between atoms: N_10  and  C_11
REMARK    7  A    between atoms: N_18  and  C_19
REMARK    8  A    between atoms: C_21  and  C_27
REMARK    9  A    between atoms: C_21  and  C_28
REMARK   10  A    between atoms: C_23  and  C_25
REMARK   11  A    between atoms: C_23  and  C_26
REMARK                            x       y       z     vdW  Elec       q    Type
REMARK                         _______ _______ _______ _____ _____    ______ ____
ROOT
ATOM      1  C   UNL     1       0.508   1.629   1.185  0.00  0.00    +0.026 C 
ATOM      2  C   UNL     1       0.351   0.108   1.107  0.00  0.00    +0.072 C 
ENDROOT
BRANCH   2   3
ATOM      3  N   UNL     1      -1.038  -0.257   1.414  0.00  0.00    -0.309 NA
ATOM      4  H   UNL     1      -1.088  -1.176   1.826  0.00  0.00    +0.123 HD
BRANCH   3   5
ATOM      5  C   UNL     1      -1.883  -0.171   0.211  0.00  0.00    +0.051 C 
ATOM      6  C   UNL     1      -1.812  -1.498  -0.548  0.00  0.00    +0.006 C 
ATOM      7  C   UNL     1      -2.694  -1.429  -1.794  0.00  0.00    -0.072 C 
ATOM      8  N   UNL     1      -4.061  -1.041  -1.478  0.00  0.00    +0.386 N 
ATOM      9  C   UNL     1      -4.252   0.093  -0.587  0.00  0.00    -0.072 C 
ATOM     10  C   UNL     1      -3.334   0.063   0.630  0.00  0.00    +0.006 C 
ATOM     11  C   UNL     1      -5.707   0.034  -0.066  0.00  0.00    -0.010 C 
ATOM     12  C   UNL     1      -4.096   1.425  -1.326  0.00  0.00    -0.010 C 
ATOM     13  C   UNL     1      -2.741  -2.850  -2.401  0.00  0.00    -0.010 C 
ATOM     14  C   UNL     1      -2.063  -0.510  -2.840  0.00  0.00    -0.010 C 
ATOM     15  H   UNL     1      -4.551  -0.849  -2.354  0.00  0.00    -0.084 HD
ATOM     16  H   UNL     1      -4.539  -1.850  -1.074  0.00  0.00    -0.084 HD
ENDBRANCH   3   5
ENDBRANCH   2   3
BRANCH   2  17
ATOM     17  C   UNL     1       1.288  -0.553   2.120  0.00  0.00    +0.162 C 
BRANCH  17  18
ATOM     18  N   UNL     1       1.052  -1.999   2.131  0.00  0.00    -0.258 NA
ATOM     19  C   UNL     1       1.989  -2.813   1.739  0.00  0.00    +0.193 C 
ATOM     20  N   UNL     1       2.213  -4.185   1.576  0.00  0.00    -0.198 NA
ATOM     21  C   UNL     1       3.442  -4.535   1.104  0.00  0.00    +0.188 C 
ATOM     22  S   UNL     1       3.656  -2.770   1.121  0.00  0.00    -0.013 S 
BRANCH  21  23
ATOM     23  N   UNL     1       4.144  -5.659   0.781  0.00  0.00    -0.190 NA
BRANCH  23  24
ATOM     24  C   UNL     1       5.508  -5.570   0.482  0.00  0.00    +0.056 A 
ATOM     25  C   UNL     1       6.125  -6.572  -0.256  0.00  0.00    +0.028 A 
ATOM     26  C   UNL     1       7.471  -6.482  -0.550  0.00  0.00    +0.040 A 
ATOM     27  C   UNL     1       8.206  -5.394  -0.111  0.00  0.00    +0.124 A 
ATOM     28  C   UNL     1       7.593  -4.394   0.625  0.00  0.00    +0.040 A 
ATOM     29  C   UNL     1       6.245  -4.477   0.917  0.00  0.00    +0.028 A 
ATOM     30  F   UNL     1       9.522  -5.308  -0.400  0.00  0.00    -0.205 F 
ENDBRANCH  23  24
ENDBRANCH  21  23
ENDBRANCH  17  18
ENDBRANCH   2  17
TORSDOF 6
