REMARK  Name = ZINC39660423
REMARK  8 active torsions:
REMARK  status: ('A' for Active; 'I' for Inactive)
REMARK    1  A    between atoms: C_1  and  C_2
REMARK    2  A    between atoms: C_2  and  C_3
REMARK    3  A    between atoms: C_3  and  C_4
REMARK    4  A    between atoms: C_4  and  C_5
REMARK    5  A    between atoms: C_5  and  C_6
REMARK    6  A    between atoms: C_6  and  N_7
REMARK    7  A    between atoms: C_8  and  C_10
REMARK    8  A    between atoms: C_21  and  C_23
REMARK                            x       y       z     vdW  Elec       q    Type
REMARK                         _______ _______ _______ _____ _____    ______ ____
ROOT
ATOM      1  C   UNL     1       3.104  -6.386   5.077  0.00  0.00    +0.100 C 
ATOM      2  C   UNL     1       4.606  -6.032   4.989  0.00  0.00    +0.121 C 
ATOM      3  N   UNL     1       5.301  -7.203   5.574  0.00  0.00    -0.300 N 
ATOM      4  C   UNL     1       4.537  -8.372   5.077  0.00  0.00    +0.115 C 
ATOM      5  C   UNL     1       3.063  -7.923   5.134  0.00  0.00    -0.004 C 
ATOM      6  C   UNL     1       2.420  -8.386   6.438  0.00  0.00    -0.010 C 
ATOM      7  C   UNL     1       2.339  -9.915   6.446  0.00  0.00    -0.082 C 
ATOM      8  N   UNL     1       1.548 -10.371   5.297  0.00  0.00    +0.379 N 
ATOM      9  C   UNL     1       2.221 -10.002   4.046  0.00  0.00    -0.082 C 
ATOM     10  C   UNL     1       2.297  -8.476   3.936  0.00  0.00    -0.010 C 
ATOM     11  C   UNL     1       6.384  -7.204   6.377  0.00  0.00    +0.219 C 
ATOM     12  O   UNL     1       6.840  -8.254   6.777  0.00  0.00    -0.275 OA
ATOM     13  H   UNL     1       1.444 -11.374   5.338  0.00  0.00    -0.086 HD
ATOM     14  H   UNL     1       0.636  -9.941   5.326  0.00  0.00    -0.086 HD
ENDROOT
BRANCH  11  15
ATOM     15  C   UNL     1       7.027  -5.901   6.777  0.00  0.00    +0.079 C 
ATOM     16  C   UNL     1       8.237  -6.179   7.677  0.00  0.00    +0.017 C 
ATOM     17  C   UNL     1       8.760  -4.843   8.211  0.00  0.00    +0.027 C 
ATOM     18  C   UNL     1       8.928  -3.867   7.084  0.00  0.00    -0.031 C 
ATOM     19  C   UNL     1       8.382  -4.003   5.918  0.00  0.00    -0.030 C 
ATOM     20  C   UNL     1       7.507  -5.160   5.527  0.00  0.00    +0.039 C 
ENDBRANCH  11  15
BRANCH   1  22
ATOM     21  N   UNL     1       1.071  -5.557   3.938  0.00  0.00    -0.315 N 
ATOM     22  C   UNL     1       2.375  -5.887   3.856  0.00  0.00    +0.218 C 
ATOM     23  O   UNL     1       2.962  -5.783   2.800  0.00  0.00    -0.275 OA
ATOM     24  H   UNL     1       0.602  -5.640   4.782  0.00  0.00    +0.149 HD
BRANCH  21  25
ATOM     25  C   UNL     1       0.363  -5.071   2.751  0.00  0.00    +0.104 C 
BRANCH  25  26
ATOM     26  C   UNL     1      -1.093  -4.770   3.114  0.00  0.00    +0.019 C 
BRANCH  26  27
ATOM     27  C   UNL     1      -1.833  -4.263   1.874  0.00  0.00    +0.002 C 
BRANCH  27  28
ATOM     28  C   UNL     1      -3.288  -3.961   2.237  0.00  0.00    -0.000 C 
BRANCH  28  30
ATOM     29  C   UNL     1      -5.484  -3.153   1.360  0.00  0.00    +0.004 C 
ATOM     30  C   UNL     1      -4.028  -3.454   0.997  0.00  0.00    -0.003 C 
ENDBRANCH  28  30
ENDBRANCH  27  28
ENDBRANCH  26  27
ENDBRANCH  25  26
ENDBRANCH  21  25
ENDBRANCH   1  22
TORSDOF 7
