REMARK  Name = ZINC20406736
REMARK  14 active torsions:
REMARK  status: ('A' for Active; 'I' for Inactive)
REMARK    1  A    between atoms: C_1  and  C_2
REMARK    2  A    between atoms: C_3  and  C_27
REMARK    3  A    between atoms: C_4  and  C_13
REMARK    4  A    between atoms: C_5  and  C_9
REMARK    5  A    between atoms: C_6  and  C_8
REMARK    6  A    between atoms: C_9  and  O_11
REMARK    7  A    between atoms: O_11  and  C_12
REMARK    8  A    between atoms: C_15  and  O_25
REMARK    9  A    between atoms: C_16  and  O_20
REMARK   10  A    between atoms: O_20  and  C_21
REMARK   11  A    between atoms: C_21  and  C_22
REMARK   12  A    between atoms: O_25  and  C_26
REMARK   13  A    between atoms: C_27  and  O_29
REMARK   14  A    between atoms: O_29  and  C_30
REMARK                            x       y       z     vdW  Elec       q    Type
REMARK                         _______ _______ _______ _____ _____    ______ ____
ROOT
ATOM      1  C   UNL     1       5.303   0.617   5.982  0.00  0.00    +0.061 C 
ATOM      2  C   UNL     1       3.847   0.811   6.318  0.00  0.00    +0.016 C 
ATOM      3  C   UNL     1       2.937  -0.065   5.858  0.00  0.00    +0.065 C 
ATOM      4  C   UNL     1       1.474   0.093   6.160  0.00  0.00    +0.096 C 
ATOM      5  C   UNL     1       1.267   1.053   7.297  0.00  0.00    +0.065 C 
ATOM      6  C   UNL     1       2.244   1.885   7.699  0.00  0.00    +0.016 C 
ATOM      7  N   UNL     1       3.467   1.877   7.087  0.00  0.00    -0.321 N 
ATOM      8  C   UNL     1       1.988   2.837   8.839  0.00  0.00    +0.061 C 
ATOM      9  H   UNL     1       4.146   2.733   7.214  0.00  0.00    +0.152 HD
ENDROOT
BRANCH   4  10
ATOM     10  C   UNL     1       0.768   0.615   4.935  0.00  0.00    -0.030 A 
ATOM     11  C   UNL     1      -0.246  -0.125   4.356  0.00  0.00    +0.054 A 
ATOM     12  C   UNL     1      -0.901   0.355   3.233  0.00  0.00    +0.163 A 
ATOM     13  C   UNL     1      -0.527   1.578   2.684  0.00  0.00    +0.176 A 
ATOM     14  C   UNL     1       0.490   2.316   3.269  0.00  0.00    +0.063 A 
ATOM     15  C   UNL     1       1.136   1.832   4.393  0.00  0.00    +0.023 A 
ATOM     16 BR   UNL     1       0.995   3.982   2.532  0.00  0.00    -0.046 Br
BRANCH  12  17
ATOM     17  O   UNL     1      -1.903  -0.369   2.667  0.00  0.00    -0.491 OA
ATOM     18  C   UNL     1      -2.232  -1.615   3.284  0.00  0.00    +0.277 C 
ENDBRANCH  12  17
BRANCH  13  19
ATOM     19  O   UNL     1      -1.164   2.052   1.579  0.00  0.00    -0.478 OA
BRANCH  19  20
ATOM     20  C   UNL     1      -0.615   1.690   0.310  0.00  0.00    +0.324 C 
BRANCH  20  21
ATOM     21  C   UNL     1      -1.446   2.302  -0.789  0.00  0.00    +0.248 C 
ATOM     22  O   UNL     1      -2.413   2.980  -0.512  0.00  0.00    -0.272 OA
ATOM     23  N   UNL     1      -1.115   2.095  -2.079  0.00  0.00    -0.327 N 
ATOM     24  H   UNL     1      -1.721   2.541  -2.881  0.00  0.00    +0.145 HD
ATOM     25  H   UNL     1      -0.238   1.479  -2.329  0.00  0.00    +0.145 HD
ENDBRANCH  20  21
ENDBRANCH  19  20
ENDBRANCH  13  19
ENDBRANCH   4  10
BRANCH   5  26
ATOM     26  C   UNL     1       0.017   1.083   7.958  0.00  0.00    +0.337 C 
ATOM     27  O   UNL     1      -0.165   1.855   8.881  0.00  0.00    -0.245 OA
BRANCH  26  28
ATOM     28  O   UNL     1      -0.973   0.254   7.566  0.00  0.00    -0.465 OA
ATOM     29  C   UNL     1      -2.209   0.338   8.279  0.00  0.00    +0.280 C 
ENDBRANCH  26  28
ENDBRANCH   5  26
BRANCH   3  30
ATOM     30  C   UNL     1       3.367  -1.160   5.072  0.00  0.00    +0.337 C 
ATOM     31  O   UNL     1       3.394  -2.279   5.551  0.00  0.00    -0.245 OA
BRANCH  30  32
ATOM     32  O   UNL     1       3.747  -0.964   3.792  0.00  0.00    -0.465 OA
ATOM     33  C   UNL     1       4.169  -2.115   3.058  0.00  0.00    +0.280 C 
ENDBRANCH  30  32
ENDBRANCH   3  30
TORSDOF 9
