REMARK  Name = ZINC60496044
REMARK  5 active torsions:
REMARK  status: ('A' for Active; 'I' for Inactive)
REMARK    1  A    between atoms: C_3  and  S_12
REMARK    2  A    between atoms: C_6  and  S_7
REMARK    3  A    between atoms: S_7  and  N_10
REMARK    4  A    between atoms: S_12  and  N_15
REMARK    5  A    between atoms: N_15  and  C_16
REMARK                            x       y       z     vdW  Elec       q    Type
REMARK                         _______ _______ _______ _____ _____    ______ ____
ROOT
ATOM      1  S   UNL     1       3.868   2.311  -0.014  0.00  0.00    +0.062 S 
ATOM      2  O   UNL     1       3.597   3.701   0.103  0.00  0.00    -0.153 OA
ATOM      3  O   UNL     1       2.845   1.353  -0.252  0.00  0.00    -0.153 OA
ENDROOT
BRANCH   1   6
ATOM      4  C   UNL     1       5.732   1.078  -3.353  0.00  0.00    +0.030 A 
ATOM      5  C   UNL     1       4.813   1.218  -2.329  0.00  0.00    +0.033 A 
ATOM      6  C   UNL     1       5.038   2.133  -1.319  0.00  0.00    +0.140 A 
ATOM      7  C   UNL     1       6.184   2.911  -1.332  0.00  0.00    +0.151 A 
ATOM      8  C   UNL     1       7.103   2.771  -2.358  0.00  0.00    +0.068 A 
ATOM      9  C   UNL     1       6.875   1.854  -3.368  0.00  0.00    +0.108 A 
ATOM     10  F   UNL     1       6.405   3.806  -0.345  0.00  0.00    -0.203 F 
BRANCH   9  11
ATOM     11  S   UNL     1       8.045   1.675  -4.674  0.00  0.00    +0.056 S 
ATOM     12  O   UNL     1       9.292   2.128  -4.167  0.00  0.00    -0.153 OA
ATOM     13  O   UNL     1       7.867   0.368  -5.202  0.00  0.00    -0.153 OA
BRANCH  11  14
ATOM     14  N   UNL     1       7.608   2.732  -5.871  0.00  0.00    -0.204 NA
ATOM     15  H   UNL     1       8.285   3.118  -6.449  0.00  0.00    +0.144 HD
ATOM     16  H   UNL     1       6.674   2.966  -5.994  0.00  0.00    +0.144 HD
ENDBRANCH  11  14
ENDBRANCH   9  11
ENDBRANCH   1   6
BRANCH   1  17
ATOM     17  N   UNL     1       4.624   1.857   1.388  0.00  0.00    -0.184 NA
ATOM     18  H   UNL     1       4.752   2.501   2.101  0.00  0.00    +0.149 HD
BRANCH  17  19
ATOM     19  C   UNL     1       5.100   0.481   1.551  0.00  0.00    +0.041 C 
ATOM     20  C   UNL     1       6.230   0.211   0.554  0.00  0.00    +0.027 C 
ATOM     21  C   UNL     1       6.727  -1.226   0.725  0.00  0.00    -0.009 C 
ATOM     22  C   UNL     1       7.247  -1.421   2.150  0.00  0.00    +0.007 C 
ATOM     23  C   UNL     1       6.118  -1.151   3.146  0.00  0.00    -0.009 C 
ATOM     24  C   UNL     1       5.620   0.286   2.976  0.00  0.00    +0.027 C 
ATOM     25  C   UNL     1       4.965  -2.123   2.886  0.00  0.00    +0.007 C 
ATOM     26  C   UNL     1       4.446  -1.929   1.461  0.00  0.00    -0.009 C 
ATOM     27  C   UNL     1       5.575  -2.199   0.465  0.00  0.00    +0.007 C 
ATOM     28  C   UNL     1       3.948  -0.492   1.291  0.00  0.00    +0.027 C 
ENDBRANCH  17  19
ENDBRANCH   1  17
TORSDOF 5
