REMARK  Name = ZINC63547282
REMARK  7 active torsions:
REMARK  status: ('A' for Active; 'I' for Inactive)
REMARK    1  A    between atoms: C_1  and  C_2
REMARK    2  A    between atoms: C_8  and  C_11
REMARK    3  A    between atoms: C_11  and  C_12
REMARK    4  A    between atoms: C_12  and  N_13
REMARK    5  A    between atoms: C_14  and  C_16
REMARK    6  A    between atoms: C_24  and  C_30
REMARK    7  A    between atoms: C_26  and  C_27
REMARK                            x       y       z     vdW  Elec       q    Type
REMARK                         _______ _______ _______ _____ _____    ______ ____
ROOT
ATOM      1  C   UNL     1      -2.535  -2.354   7.692  0.00  0.00    +0.073 C 
ATOM      2  H   UNL     1      -3.853  -2.104  10.559  0.00  0.00    +0.170 HD
ATOM      3  C   UNL     1      -3.611  -2.328   8.506  0.00  0.00    +0.100 C 
ATOM      4  N   UNL     1      -3.259  -2.049   9.795  0.00  0.00    -0.269 N 
ATOM      5  N   UNL     1      -1.923  -1.675   9.850  0.00  0.00    -0.223 N 
ATOM      6  C   UNL     1      -1.326  -2.078   8.556  0.00  0.00    +0.246 C 
ATOM      7  N   UNL     1      -0.570  -0.928   8.055  0.00  0.00    -0.254 NA
ATOM      8  C   UNL     1      -0.072  -0.055   8.894  0.00  0.00    +0.070 C 
ATOM      9  C   UNL     1      -0.239  -0.187  10.344  0.00  0.00    +0.054 C 
ATOM     10  C   UNL     1      -1.211  -1.010  10.816  0.00  0.00    +0.095 C 
ENDROOT
BRANCH   8  11
ATOM     11  C   UNL     1       0.686   1.103   8.361  0.00  0.00    +0.000 A 
ATOM     12  C   UNL     1       1.232   2.044   9.233  0.00  0.00    +0.010 A 
ATOM     13  C   UNL     1       1.936   3.119   8.731  0.00  0.00    +0.001 A 
ATOM     14  C   UNL     1       2.100   3.265   7.365  0.00  0.00    +0.000 A 
ATOM     15  C   UNL     1       1.561   2.335   6.495  0.00  0.00    +0.001 A 
ATOM     16  C   UNL     1       0.860   1.252   6.986  0.00  0.00    +0.010 A 
ENDBRANCH   8  11
BRANCH   1  18
ATOM     17  N   UNL     1      -1.377  -2.600   5.613  0.00  0.00    -0.311 N 
ATOM     18  C   UNL     1      -2.537  -2.599   6.299  0.00  0.00    +0.245 C 
ATOM     19  O   UNL     1      -3.587  -2.809   5.720  0.00  0.00    -0.270 OA
ATOM     20  H   UNL     1      -0.540  -2.433   6.075  0.00  0.00    +0.149 HD
BRANCH  17  21
ATOM     21  C   UNL     1      -1.379  -2.854   4.170  0.00  0.00    +0.109 C 
BRANCH  21  22
ATOM     22  C   UNL     1       0.055  -2.799   3.641  0.00  0.00    +0.052 C 
BRANCH  22  30
ATOM     23  C   UNL     1      -0.018   1.503   0.010  0.00  0.00    +0.044 C 
ATOM     24  C   UNL     1       0.002  -0.004   0.002  0.00  0.00    -0.050 A 
ATOM     25  C   UNL     1       0.005  -0.680  -1.226  0.00  0.00    +0.005 A 
ATOM     26  C   UNL     1       0.023  -2.026  -1.317  0.00  0.00    +0.026 A 
ATOM     27  C   UNL     1       0.039  -2.826  -0.141  0.00  0.00    +0.043 A 
ATOM     28  N   UNL     1       0.057  -4.126   0.030  0.00  0.00    -0.380 N 
ATOM     29  C   UNL     1       0.067  -4.408   1.470  0.00  0.00    +0.144 C 
ATOM     30  C   UNL     1       0.052  -3.060   2.156  0.00  0.00    -0.040 C 
ATOM     31  C   UNL     1       0.036  -2.137   1.168  0.00  0.00    -0.001 A 
ATOM     32  C   UNL     1       0.022  -0.669   1.180  0.00  0.00    +0.013 A 
ATOM     33  H   UNL     1       0.062  -4.790  -0.677  0.00  0.00    +0.160 HD
ENDBRANCH  22  30
ENDBRANCH  21  22
ENDBRANCH  17  21
ENDBRANCH   1  18
BRANCH  10  34
ATOM     34  C   UNL     1      -1.475  -1.192  12.289  0.00  0.00    +0.387 C 
ATOM     35  F   UNL     1      -0.596  -0.389  13.023  0.00  0.00    -0.202 F 
ATOM     36  F   UNL     1      -2.794  -0.823  12.575  0.00  0.00    -0.202 F 
ENDBRANCH  10  34
TORSDOF 6
