REMARK  Name = ZINC12475343
REMARK  11 active torsions:
REMARK  status: ('A' for Active; 'I' for Inactive)
REMARK    1  A    between atoms: C_1  and  C_2
REMARK    2  A    between atoms: C_2  and  O_3
REMARK    3  A    between atoms: O_3  and  C_4
REMARK    4  A    between atoms: C_7  and  C_10
REMARK    5  A    between atoms: C_10  and  C_12
REMARK    6  A    between atoms: C_10  and  N_21
REMARK    7  A    between atoms: N_14  and  C_15
REMARK    8  A    between atoms: N_21  and  C_22
REMARK    9  A    between atoms: C_22  and  C_23
REMARK   10  A    between atoms: C_28  and  C_30
REMARK   11  A    between atoms: C_30  and  C_31
REMARK                            x       y       z     vdW  Elec       q    Type
REMARK                         _______ _______ _______ _____ _____    ______ ____
ROOT
ATOM      1  C   UNL     1       0.286  -0.105  -0.203  0.00  0.00    +0.193 C 
ENDROOT
BRANCH   1   5
ATOM      2  C   UNL     1      -2.368   0.517   3.088  0.00  0.00    +0.121 A 
ATOM      3  C   UNL     1      -1.595  -0.633   3.027  0.00  0.00    +0.046 A 
ATOM      4  C   UNL     1      -0.738  -0.832   1.962  0.00  0.00    +0.009 A 
ATOM      5  C   UNL     1      -0.650   0.114   0.958  0.00  0.00    -0.018 A 
ATOM      6  C   UNL     1      -1.415   1.264   1.019  0.00  0.00    +0.009 A 
ATOM      7  C   UNL     1      -2.278   1.465   2.079  0.00  0.00    +0.046 A 
BRANCH   2   8
ATOM      8  O   UNL     1      -3.212   0.715   4.135  0.00  0.00    -0.492 OA
BRANCH   8  10
ATOM      9  C   UNL     1      -4.861   1.968   5.380  0.00  0.00    +0.048 C 
ATOM     10  C   UNL     1      -3.977   1.922   4.133  0.00  0.00    +0.225 C 
ENDBRANCH   8  10
ENDBRANCH   2   8
ENDBRANCH   1   5
BRANCH   1  11
ATOM     11  C   UNL     1      -0.461  -0.766  -1.333  0.00  0.00    +0.238 C 
ATOM     12  O   UNL     1      -1.287  -0.140  -1.962  0.00  0.00    -0.273 OA
ATOM     13  N   UNL     1      -0.211  -2.054  -1.643  0.00  0.00    -0.311 N 
ATOM     14  H   UNL     1       0.449  -2.555  -1.139  0.00  0.00    +0.149 HD
BRANCH  13  15
ATOM     15  C   UNL     1      -0.937  -2.696  -2.741  0.00  0.00    +0.073 C 
ATOM     16  C   UNL     1      -2.273  -3.233  -2.224  0.00  0.00    +0.022 C 
ATOM     17  C   UNL     1      -3.032  -3.904  -3.371  0.00  0.00    +0.002 C 
ATOM     18  C   UNL     1      -2.198  -5.061  -3.925  0.00  0.00    +0.000 C 
ATOM     19  C   UNL     1      -0.862  -4.524  -4.443  0.00  0.00    +0.002 C 
ATOM     20  C   UNL     1      -0.103  -3.853  -3.296  0.00  0.00    +0.022 C 
ENDBRANCH  13  15
ENDBRANCH   1  11
BRANCH   1  21
ATOM     21  N   UNL     1       0.814   1.185  -0.655  0.00  0.00    -0.281 N 
ATOM     22  C   UNL     1       1.593   1.919   0.164  0.00  0.00    +0.221 C 
ATOM     23  O   UNL     1       1.857   1.511   1.275  0.00  0.00    -0.275 OA
BRANCH  21  24
ATOM     24  C   UNL     1       0.499   1.674  -2.000  0.00  0.00    +0.151 C 
BRANCH  24  25
ATOM     25  C   UNL     1      -0.618   2.683  -1.919  0.00  0.00    +0.007 A 
ATOM     26  C   UNL     1      -0.544   4.034  -1.847  0.00  0.00    +0.013 A 
ATOM     27  C   UNL     1      -1.714   4.767  -1.781  0.00  0.00    +0.008 A 
ATOM     28  C   UNL     1      -2.901   4.113  -1.789  0.00  0.00    +0.045 A 
ATOM     29  S   UNL     1      -2.382   2.408  -1.900  0.00  0.00    -0.100 S 
ENDBRANCH  24  25
ENDBRANCH  21  24
BRANCH  22  30
ATOM     30  C   UNL     1       2.136   3.245  -0.301  0.00  0.00    +0.133 C 
BRANCH  30  31
ATOM     31  C   UNL     1       2.970   3.858   0.793  0.00  0.00    -0.014 A 
ATOM     32  C   UNL     1       2.558   4.755   1.704  0.00  0.00    +0.087 A 
ATOM     33  N   UNL     1       3.592   5.081   2.539  0.00  0.00    -0.360 N 
ATOM     34  H   UNL     1       3.536   5.707   3.277  0.00  0.00    +0.165 HD
ATOM     35  C   UNL     1       4.725   4.390   2.172  0.00  0.00    +0.047 A 
ATOM     36  C   UNL     1       4.385   3.594   1.063  0.00  0.00    +0.003 A 
ATOM     37  C   UNL     1       5.349   2.775   0.471  0.00  0.00    +0.010 A 
ATOM     38  C   UNL     1       6.620   2.751   0.973  0.00  0.00    +0.001 A 
ATOM     39  C   UNL     1       6.960   3.535   2.067  0.00  0.00    +0.002 A 
ATOM     40  C   UNL     1       6.025   4.350   2.667  0.00  0.00    +0.026 A 
ENDBRANCH  30  31
ENDBRANCH  22  30
ENDBRANCH   1  21
TORSDOF 10
