REMARK  Name = ZINC01947345
REMARK  14 active torsions:
REMARK  status: ('A' for Active; 'I' for Inactive)
REMARK    1  A    between atoms: C_1  and  C_2
REMARK    2  A    between atoms: C_2  and  O_3
REMARK    3  A    between atoms: O_3  and  C_4
REMARK    4  A    between atoms: C_4  and  C_6
REMARK    5  A    between atoms: C_10  and  N_11
REMARK    6  A    between atoms: C_12  and  C_14
REMARK    7  A    between atoms: C_14  and  O_15
REMARK    8  A    between atoms: O_15  and  C_16
REMARK    9  A    between atoms: C_16  and  C_18
REMARK   10  A    between atoms: N_26  and  C_29
REMARK   11  A    between atoms: C_29  and  C_30
REMARK   12  A    between atoms: C_30  and  C_31
REMARK   13  A    between atoms: C_30  and  C_32
REMARK   14  A    between atoms: C_34  and  C_38
REMARK                            x       y       z     vdW  Elec       q    Type
REMARK                         _______ _______ _______ _____ _____    ______ ____
ROOT
ATOM      1  N   UNL     1      -0.822 -10.709  -0.611  0.00  0.00    -0.277 N 
ATOM      2  C   UNL     1      -0.396  -9.456  -0.353  0.00  0.00    +0.255 C 
ATOM      3  O   UNL     1       0.648  -9.281   0.238  0.00  0.00    -0.272 OA
ATOM      4  H   UNL     1      -1.657 -10.849  -1.084  0.00  0.00    +0.155 HD
ENDROOT
BRANCH   1   9
ATOM      5  C   UNL     1      -0.336 -13.148  -0.370  0.00  0.00    +0.091 A 
ATOM      6  C   UNL     1       0.629 -14.096   0.161  0.00  0.00    -0.021 A 
ATOM      7  C   UNL     1       1.699 -13.546   0.773  0.00  0.00    -0.004 A 
ATOM      8  S   UNL     1       1.446 -11.799   0.645  0.00  0.00    -0.077 S 
ATOM      9  C   UNL     1      -0.067 -11.796  -0.200  0.00  0.00    +0.086 A 
ATOM     10  C   UNL     1       2.846 -14.269   1.411  0.00  0.00    +0.046 C 
ATOM     11  C   UNL     1       2.446 -15.739   1.599  0.00  0.00    -0.009 C 
ATOM     12  C   UNL     1       1.842 -16.258   0.290  0.00  0.00    +0.008 C 
ATOM     13  C   UNL     1       0.478 -15.609   0.053  0.00  0.00    +0.037 C 
ATOM     14  C   UNL     1       3.682 -16.565   1.960  0.00  0.00    +0.008 C 
BRANCH   5  15
ATOM     15  C   UNL     1      -1.546 -13.600  -1.060  0.00  0.00    +0.342 C 
ATOM     16  O   UNL     1      -1.530 -13.775  -2.264  0.00  0.00    -0.245 OA
BRANCH  15  17
ATOM     17  O   UNL     1      -2.677 -13.823  -0.361  0.00  0.00    -0.461 OA
BRANCH  17  19
ATOM     18  C   UNL     1      -5.016 -14.469  -0.155  0.00  0.00    +0.048 C 
ATOM     19  C   UNL     1      -3.838 -14.270  -1.110  0.00  0.00    +0.229 C 
ENDBRANCH  17  19
ENDBRANCH  15  17
ENDBRANCH   5  15
ENDBRANCH   1   9
BRANCH   2  20
ATOM     20  C   UNL     1      -1.217  -8.274  -0.800  0.00  0.00    +0.328 C 
BRANCH  20  21
ATOM     21  O   UNL     1      -0.551  -7.046  -0.407  0.00  0.00    -0.452 OA
BRANCH  21  22
ATOM     22  C   UNL     1      -1.158  -5.889  -0.734  0.00  0.00    +0.340 C 
ATOM     23  O   UNL     1      -2.216  -5.906  -1.331  0.00  0.00    -0.245 OA
BRANCH  22  24
ATOM     24  C   UNL     1      -0.537  -4.598  -0.365  0.00  0.00    +0.060 A 
ATOM     25  C   UNL     1       0.677  -4.580   0.320  0.00  0.00    +0.016 A 
ATOM     26  C   UNL     1       1.265  -3.376   0.668  0.00  0.00    +0.014 A 
ATOM     27  C   UNL     1       0.645  -2.182   0.335  0.00  0.00    +0.049 A 
ATOM     28  C   UNL     1      -0.583  -2.193  -0.358  0.00  0.00    +0.050 A 
ATOM     29  C   UNL     1      -1.169  -3.398  -0.706  0.00  0.00    +0.028 A 
ATOM     30  C   UNL     1      -0.953  -0.775  -0.548  0.00  0.00    +0.254 C 
ATOM     31  O   UNL     1      -1.954  -0.373  -1.107  0.00  0.00    -0.270 OA
ATOM     32  N   UNL     1       0.002  -0.004   0.002  0.00  0.00    -0.234 N 
ATOM     33  C   UNL     1       0.981  -0.755   0.538  0.00  0.00    +0.254 C 
ATOM     34  O   UNL     1       1.973  -0.332   1.097  0.00  0.00    -0.270 OA
BRANCH  32  35
ATOM     35  C   UNL     1      -0.018   1.461   0.010  0.00  0.00    +0.120 C 
BRANCH  35  36
ATOM     36  C   UNL     1      -0.734   1.954   1.269  0.00  0.00    +0.001 C 
ATOM     37  C   UNL     1      -0.646   3.480   1.341  0.00  0.00    +0.009 C 
ATOM     38  C   UNL     1      -2.203   1.530   1.219  0.00  0.00    +0.009 C 
ENDBRANCH  35  36
ENDBRANCH  32  35
ENDBRANCH  22  24
ENDBRANCH  21  22
ENDBRANCH  20  21
ENDBRANCH   2  20
TORSDOF 10
