REMARK  Name = ZINC45855242
REMARK  7 active torsions:
REMARK  status: ('A' for Active; 'I' for Inactive)
REMARK    1  A    between atoms: C_1  and  C_2
REMARK    2  A    between atoms: C_2  and  C_4
REMARK    3  A    between atoms: C_2  and  N_18
REMARK    4  A    between atoms: C_7  and  N_10
REMARK    5  A    between atoms: C_12  and  C_15
REMARK    6  A    between atoms: C_19  and  C_21
REMARK    7  A    between atoms: C_21  and  C_22
REMARK                            x       y       z     vdW  Elec       q    Type
REMARK                         _______ _______ _______ _____ _____    ______ ____
ROOT
ATOM      1  C   UNL     1      -0.019   1.526   0.010  0.00  0.00    +0.033 C 
ATOM      2  C   UNL     1       0.002  -0.004   0.002  0.00  0.00    +0.100 C 
ENDROOT
BRANCH   2   3
ATOM      3  C   UNL     1      -1.412  -0.526   0.013  0.00  0.00    -0.027 A 
ATOM      4  C   UNL     1      -2.140  -0.568  -1.162  0.00  0.00    +0.007 A 
ATOM      5  C   UNL     1      -3.436  -1.046  -1.155  0.00  0.00    +0.028 A 
ATOM      6  C   UNL     1      -4.007  -1.484   0.032  0.00  0.00    +0.067 A 
ATOM      7  C   UNL     1      -3.273  -1.440   1.210  0.00  0.00    +0.028 A 
ATOM      8  C   UNL     1      -1.976  -0.966   1.196  0.00  0.00    +0.007 A 
BRANCH   6   9
ATOM      9  N   UNL     1      -5.323  -1.970   0.042  0.00  0.00    -0.219 N 
ATOM     10  C   UNL     1      -6.006  -2.421   1.116  0.00  0.00    +0.149 A 
ATOM     11  C   UNL     1      -7.243  -2.792   0.669  0.00  0.00    +0.167 A 
ATOM     12  N   UNL     1      -7.302  -2.567  -0.655  0.00  0.00    -0.124 NA
ATOM     13  N   UNL     1      -6.184  -2.074  -1.059  0.00  0.00    -0.060 NA
BRANCH  11  14
ATOM     14  C   UNL     1      -8.329  -3.347   1.498  0.00  0.00    +0.263 C 
ATOM     15  O   UNL     1      -8.161  -3.508   2.692  0.00  0.00    -0.269 OA
ATOM     16  N   UNL     1      -9.508  -3.675   0.934  0.00  0.00    -0.324 N 
ATOM     17  H   UNL     1      -9.643  -3.546  -0.018  0.00  0.00    +0.145 HD
ATOM     18  H   UNL     1     -10.223  -4.040   1.479  0.00  0.00    +0.145 HD
ENDBRANCH  11  14
ENDBRANCH   6   9
ENDBRANCH   2   3
BRANCH   2  19
ATOM     19  N   UNL     1       0.688  -0.476  -1.203  0.00  0.00    -0.308 N 
ATOM     20  C   UNL     1       2.031  -0.587  -1.215  0.00  0.00    +0.218 C 
ATOM     21  O   UNL     1       2.672  -0.295  -0.228  0.00  0.00    -0.275 OA
ATOM     22  H   UNL     1       0.175  -0.710  -1.993  0.00  0.00    +0.149 HD
BRANCH  20  23
ATOM     23  C   UNL     1       2.736  -1.073  -2.455  0.00  0.00    +0.133 C 
BRANCH  23  24
ATOM     24  C   UNL     1       4.223  -1.105  -2.207  0.00  0.00    -0.014 A 
ATOM     25  C   UNL     1       5.103  -0.138  -2.510  0.00  0.00    +0.087 A 
ATOM     26  N   UNL     1       6.363  -0.521  -2.138  0.00  0.00    -0.360 N 
ATOM     27  H   UNL     1       7.165   0.011  -2.255  0.00  0.00    +0.165 HD
ATOM     28  C   UNL     1       6.323  -1.776  -1.572  0.00  0.00    +0.047 A 
ATOM     29  C   UNL     1       4.979  -2.194  -1.585  0.00  0.00    +0.003 A 
ATOM     30  C   UNL     1       4.633  -3.442  -1.063  0.00  0.00    +0.010 A 
ATOM     31  C   UNL     1       5.601  -4.250  -0.538  0.00  0.00    +0.001 A 
ATOM     32  C   UNL     1       6.927  -3.841  -0.519  0.00  0.00    +0.002 A 
ATOM     33  C   UNL     1       7.293  -2.618  -1.038  0.00  0.00    +0.026 A 
ENDBRANCH  23  24
ENDBRANCH  20  23
ENDBRANCH   2  19
TORSDOF 6
