REMARK  Name = ZINC36005529
REMARK  13 active torsions:
REMARK  status: ('A' for Active; 'I' for Inactive)
REMARK    1  A    between atoms: C_1  and  C_2
REMARK    2  A    between atoms: C_2  and  O_3
REMARK    3  A    between atoms: O_3  and  C_4
REMARK    4  A    between atoms: C_4  and  C_6
REMARK    5  A    between atoms: C_7  and  C_25
REMARK    6  A    between atoms: N_8  and  C_24
REMARK    7  A    between atoms: C_12  and  C_14
REMARK    8  A    between atoms: C_19  and  C_20
REMARK    9  A    between atoms: C_25  and  N_26
REMARK   10  A    between atoms: N_34  and  C_35
REMARK   11  A    between atoms: C_35  and  C_36
REMARK   12  A    between atoms: C_35  and  C_37
REMARK   13  A    between atoms: C_35  and  C_38
REMARK                            x       y       z     vdW  Elec       q    Type
REMARK                         _______ _______ _______ _____ _____    ______ ____
ROOT
ATOM      1  C   UNL     1       1.322  -2.154  -2.619  0.00  0.00    +0.080 C 
ATOM      2  C   UNL     1       1.442  -3.499  -2.626  0.00  0.00    +0.041 C 
ATOM      3  N   UNL     1       2.212  -4.133  -3.558  0.00  0.00    -0.260 N 
ATOM      4  C   UNL     1       2.894  -3.494  -4.518  0.00  0.00    +0.307 C 
ATOM      5  O   UNL     1       3.553  -4.146  -5.304  0.00  0.00    -0.252 OA
ATOM      6  N   UNL     1       2.873  -2.152  -4.640  0.00  0.00    -0.288 N 
ATOM      7  C   UNL     1       2.066  -1.374  -3.685  0.00  0.00    +0.144 C 
ATOM      8  C   UNL     1       2.297  -5.595  -3.507  0.00  0.00    +0.139 C 
ATOM      9  H   UNL     1       3.374  -1.710  -5.342  0.00  0.00    +0.151 HD
ENDROOT
BRANCH   7  10
ATOM     10  C   UNL     1       2.984  -0.401  -2.992  0.00  0.00    -0.011 A 
ATOM     11  C   UNL     1       4.117  -0.860  -2.345  0.00  0.00    +0.006 A 
ATOM     12  C   UNL     1       4.959   0.033  -1.710  0.00  0.00    +0.000 A 
ATOM     13  C   UNL     1       4.670   1.385  -1.722  0.00  0.00    +0.001 A 
ATOM     14  C   UNL     1       3.539   1.843  -2.370  0.00  0.00    +0.013 A 
ATOM     15  C   UNL     1       2.698   0.951  -3.009  0.00  0.00    +0.060 A 
BRANCH  15  16
ATOM     16  C   UNL     1       1.467   1.452  -3.720  0.00  0.00    +0.418 C 
ATOM     17  F   UNL     1       1.428   2.849  -3.656  0.00  0.00    -0.166 F 
ATOM     18  F   UNL     1       1.504   1.047  -5.058  0.00  0.00    -0.166 F 
ATOM     19  F   UNL     1       0.327   0.925  -3.104  0.00  0.00    -0.166 F 
ENDBRANCH  15  16
ENDBRANCH   7  10
BRANCH   1  20
ATOM     20  C   UNL     1       0.525  -1.496  -1.654  0.00  0.00    +0.339 C 
ATOM     21  O   UNL     1      -0.569  -1.062  -1.962  0.00  0.00    -0.245 OA
BRANCH  20  22
ATOM     22  O   UNL     1       0.978  -1.349  -0.391  0.00  0.00    -0.462 OA
BRANCH  22  24
ATOM     23  C   UNL     1       0.800  -0.578   1.893  0.00  0.00    +0.048 C 
ATOM     24  C   UNL     1       0.077  -0.776   0.559  0.00  0.00    +0.229 C 
ENDBRANCH  22  24
ENDBRANCH  20  22
ENDBRANCH   1  20
BRANCH   2  25
ATOM     25  C   UNL     1       0.716  -4.314  -1.587  0.00  0.00    +0.136 C 
BRANCH  25  26
ATOM     26  N   UNL     1      -0.328  -5.118  -2.236  0.00  0.00    -0.294 NA
ATOM     27  C   UNL     1      -1.372  -4.259  -2.812  0.00  0.00    +0.104 C 
ATOM     28  C   UNL     1      -2.341  -5.118  -3.631  0.00  0.00    +0.124 C 
ATOM     29  N   UNL     1      -2.833  -6.211  -2.779  0.00  0.00    -0.283 N 
ATOM     30  C   UNL     1      -1.847  -7.030  -2.059  0.00  0.00    +0.124 C 
ATOM     31  C   UNL     1      -0.898  -6.096  -1.301  0.00  0.00    +0.104 C 
ATOM     32  C   UNL     1      -4.154  -6.454  -2.660  0.00  0.00    +0.303 C 
ATOM     33  O   UNL     1      -4.951  -5.820  -3.324  0.00  0.00    -0.253 OA
ATOM     34  N   UNL     1      -4.590  -7.401  -1.806  0.00  0.00    -0.294 N 
ATOM     35  H   UNL     1      -3.962  -7.857  -1.225  0.00  0.00    +0.151 HD
BRANCH  34  36
ATOM     36  C   UNL     1      -6.014  -7.740  -1.754  0.00  0.00    +0.028 C 
ATOM     37  C   UNL     1      -6.468  -8.243  -3.126  0.00  0.00    +0.031 C 
ATOM     38  C   UNL     1      -6.240  -8.835  -0.710  0.00  0.00    +0.031 C 
ATOM     39  C   UNL     1      -6.822  -6.498  -1.374  0.00  0.00    +0.031 C 
ENDBRANCH  34  36
ENDBRANCH  25  26
ENDBRANCH   2  25
TORSDOF 8
