REMARK  Name = ZINC04131139
REMARK  7 active torsions:
REMARK  status: ('A' for Active; 'I' for Inactive)
REMARK    1  A    between atoms: C_1  and  C_2
REMARK    2  A    between atoms: C_5  and  N_18
REMARK    3  A    between atoms: N_8  and  C_9
REMARK    4  A    between atoms: C_15  and  C_17
REMARK    5  A    between atoms: N_18  and  C_19
REMARK    6  A    between atoms: N_18  and  N_25
REMARK    7  A    between atoms: C_26  and  C_28
REMARK                            x       y       z     vdW  Elec       q    Type
REMARK                         _______ _______ _______ _____ _____    ______ ____
ROOT
ATOM      1  C   UNL     1       4.407  -1.076   0.498  0.00  0.00    +0.030 C 
ATOM      2  C   UNL     1       3.091  -0.675  -0.172  0.00  0.00    +0.095 C 
ATOM      3  C   UNL     1       2.398  -1.918  -0.767  0.00  0.00    +0.069 C 
ATOM      4  C   UNL     1       1.273  -2.209   0.251  0.00  0.00    +0.203 C 
ATOM      5  N   UNL     1       0.988  -0.895   0.852  0.00  0.00    -0.197 N 
ATOM      6  N   UNL     1       2.160  -0.128   0.821  0.00  0.00    -0.244 N 
ATOM      7  C   UNL     1      -0.201  -0.496   1.345  0.00  0.00    +0.230 C 
ATOM      8  O   UNL     1      -1.119  -1.284   1.428  0.00  0.00    -0.274 OA
ATOM      9  C   UNL     1      -0.391   0.930   1.794  0.00  0.00    +0.111 C 
ENDROOT
BRANCH   6  10
ATOM     10  C   UNL     1       2.408   0.992   1.619  0.00  0.00    +0.048 A 
ATOM     11  C   UNL     1       2.896   2.160   1.047  0.00  0.00    +0.025 A 
ATOM     12  C   UNL     1       3.134   3.266   1.837  0.00  0.00    +0.002 A 
ATOM     13  C   UNL     1       2.899   3.209   3.199  0.00  0.00    +0.000 A 
ATOM     14  C   UNL     1       2.418   2.046   3.772  0.00  0.00    +0.002 A 
ATOM     15  C   UNL     1       2.172   0.937   2.986  0.00  0.00    +0.025 A 
ENDBRANCH   6  10
BRANCH   4  16
ATOM     16  N   UNL     1       0.086  -2.730  -0.432  0.00  0.00    -0.229 N 
BRANCH  16  17
ATOM     17  C   UNL     1      -0.577  -3.850   0.076  0.00  0.00    +0.050 A 
ATOM     18  C   UNL     1      -0.207  -4.380   1.305  0.00  0.00    +0.025 A 
ATOM     19  C   UNL     1      -0.868  -5.484   1.807  0.00  0.00    +0.002 A 
ATOM     20  C   UNL     1      -1.890  -6.068   1.082  0.00  0.00    +0.000 A 
ATOM     21  C   UNL     1      -2.258  -5.546  -0.145  0.00  0.00    +0.002 A 
ATOM     22  C   UNL     1      -1.605  -4.439  -0.650  0.00  0.00    +0.025 A 
ENDBRANCH  16  17
BRANCH  16  23
ATOM     23  N   UNL     1      -0.385  -2.104  -1.594  0.00  0.00    -0.232 N 
ATOM     24  C   UNL     1      -0.024  -2.573  -2.805  0.00  0.00    +0.226 C 
ATOM     25  O   UNL     1       0.646  -3.581  -2.890  0.00  0.00    -0.275 OA
ATOM     26  C   UNL     1      -0.452  -1.845  -4.053  0.00  0.00    +0.110 C 
ATOM     27  H   UNL     1      -0.971  -1.334  -1.527  0.00  0.00    +0.173 HD
ENDBRANCH  16  23
ENDBRANCH   4  16
TORSDOF 4
