REMARK  Name = ZINC41510426
REMARK  10 active torsions:
REMARK  status: ('A' for Active; 'I' for Inactive)
REMARK    1  A    between atoms: C_1  and  C_2
REMARK    2  A    between atoms: C_4  and  O_26
REMARK    3  A    between atoms: C_5  and  C_22
REMARK    4  A    between atoms: C_11  and  C_12
REMARK    5  A    between atoms: C_15  and  N_18
REMARK    6  A    between atoms: N_18  and  C_19
REMARK    7  A    between atoms: N_18  and  C_20
REMARK    8  A    between atoms: C_22  and  N_23
REMARK    9  A    between atoms: N_23  and  C_24
REMARK   10  A    between atoms: N_23  and  C_25
REMARK                            x       y       z     vdW  Elec       q    Type
REMARK                         _______ _______ _______ _____ _____    ______ ____
ROOT
ATOM      1  C   UNL     1      -0.100   1.509   0.016  0.00  0.00    +0.045 C 
ATOM      2  C   UNL     1      -0.089   0.002   0.005  0.00  0.00    -0.033 A 
ATOM      3  C   UNL     1      -0.115  -0.674  -1.182  0.00  0.00    +0.050 A 
ATOM      4  C   UNL     1      -0.105  -2.066  -1.194  0.00  0.00    +0.122 A 
ATOM      5  C   UNL     1      -0.070  -2.781  -0.007  0.00  0.00    +0.020 A 
ATOM      6  C   UNL     1      -0.044  -2.109   1.208  0.00  0.00    +0.145 A 
ATOM      7  C   UNL     1      -0.049  -0.705   1.207  0.00  0.00    +0.071 A 
ATOM      8  C   UNL     1      -0.010  -0.288   2.621  0.00  0.00    +0.232 C 
ATOM      9  O   UNL     1      -0.006   0.847   3.065  0.00  0.00    -0.283 OA
ATOM     10  C   UNL     1       0.021  -1.549   3.376  0.00  0.00    +0.176 C 
ATOM     11  C   UNL     1       0.062  -1.673   4.728  0.00  0.00    +0.058 C 
ATOM     12  O   UNL     1      -0.008  -2.563   2.480  0.00  0.00    -0.451 OA
ENDROOT
BRANCH  11  13
ATOM     13  C   UNL     1      -0.023  -3.002   5.345  0.00  0.00    -0.021 A 
ATOM     14  C   UNL     1      -0.118  -3.125   6.737  0.00  0.00    +0.010 A 
ATOM     15  C   UNL     1      -0.198  -4.364   7.307  0.00  0.00    +0.023 A 
ATOM     16  C   UNL     1      -0.184  -5.503   6.507  0.00  0.00    +0.029 A 
ATOM     17  C   UNL     1      -0.089  -5.386   5.122  0.00  0.00    +0.023 A 
ATOM     18  C   UNL     1      -0.016  -4.151   4.543  0.00  0.00    +0.010 A 
BRANCH  16  19
ATOM     19  N   UNL     1      -0.265  -6.763   7.092  0.00  0.00    -0.336 N 
ATOM     20  C   UNL     1      -0.476  -6.887   8.536  0.00  0.00    +0.129 C 
ATOM     21  C   UNL     1      -0.138  -7.965   6.264  0.00  0.00    +0.129 C 
ENDBRANCH  16  19
ENDBRANCH  11  13
BRANCH   4  22
ATOM     22  O   UNL     1      -0.131  -2.729  -2.378  0.00  0.00    -0.506 OA
ATOM     23  H   UNL     1       0.744  -2.915  -2.744  0.00  0.00    +0.292 HD
ENDBRANCH   4  22
BRANCH   5  24
ATOM     24  C   UNL     1      -0.061  -4.288  -0.036  0.00  0.00    -0.036 C 
BRANCH  24  25
ATOM     25  N   UNL     1       1.327  -4.768  -0.080  0.00  0.00    +0.379 N 
ATOM     26  C   UNL     1       1.340  -6.234   0.013  0.00  0.00    -0.096 C 
ATOM     27  C   UNL     1       1.948  -4.352  -1.344  0.00  0.00    -0.096 C 
ATOM     28  H   UNL     1       1.843  -4.377   0.693  0.00  0.00    -0.082 HD
ENDBRANCH  24  25
ENDBRANCH   5  24
TORSDOF 5
