REMARK  Name = ZINC08584460
REMARK  6 active torsions:
REMARK  status: ('A' for Active; 'I' for Inactive)
REMARK    1  A    between atoms: C_1  and  C_2
REMARK    2  A    between atoms: C_4  and  C_32
REMARK    3  A    between atoms: C_8  and  C_23
REMARK    4  A    between atoms: C_13  and  C_14
REMARK    5  A    between atoms: C_23  and  C_25
REMARK    6  A    between atoms: C_23  and  O_31
REMARK                            x       y       z     vdW  Elec       q    Type
REMARK                         _______ _______ _______ _____ _____    ______ ____
ROOT
ATOM      1  C   UNL     1      -1.296   1.008  -4.528  0.00  0.00    +0.044 C 
ATOM      2  C   UNL     1      -2.523   1.814  -4.189  0.00  0.00    -0.050 A 
ATOM      3  C   UNL     1      -3.506   2.009  -5.156  0.00  0.00    +0.008 A 
ATOM      4  C   UNL     1      -4.626   2.732  -4.883  0.00  0.00    -0.024 A 
ATOM      5  C   UNL     1      -4.801   3.295  -3.605  0.00  0.00    +0.075 A 
ATOM      6  C   UNL     1      -3.795   3.099  -2.625  0.00  0.00    +0.007 A 
ATOM      7  C   UNL     1      -2.656   2.343  -2.940  0.00  0.00    +0.013 A 
ATOM      8  C   UNL     1      -3.972   3.657  -1.343  0.00  0.00    -0.006 A 
ATOM      9  C   UNL     1      -5.105   4.377  -1.097  0.00  0.00    -0.015 A 
ATOM     10  C   UNL     1      -6.067   4.545  -2.106  0.00  0.00    +0.071 A 
ATOM     11  N   UNL     1      -5.888   4.007  -3.310  0.00  0.00    -0.246 NA
ATOM     12  C   UNL     1      -7.195   5.354  -1.607  0.00  0.00    -0.021 C 
ATOM     13  C   UNL     1      -8.285   5.705  -2.311  0.00  0.00    +0.013 C 
ATOM     14  C   UNL     1      -6.914   5.721  -0.171  0.00  0.00    +0.042 C 
ATOM     15  C   UNL     1      -5.556   5.085   0.157  0.00  0.00    +0.042 C 
ATOM     16  C   UNL     1      -5.677   2.929  -5.945  0.00  0.00    +0.046 C 
ENDROOT
BRANCH  13  17
ATOM     17  C   UNL     1      -8.338   5.453  -3.761  0.00  0.00    -0.025 A 
ATOM     18  C   UNL     1      -7.216   5.697  -4.558  0.00  0.00    +0.009 A 
ATOM     19  C   UNL     1      -7.271   5.454  -5.914  0.00  0.00    +0.020 A 
ATOM     20  C   UNL     1      -8.438   4.979  -6.489  0.00  0.00    +0.041 A 
ATOM     21  C   UNL     1      -9.556   4.740  -5.706  0.00  0.00    +0.020 A 
ATOM     22  C   UNL     1      -9.513   4.974  -4.348  0.00  0.00    +0.009 A 
ATOM     23 CL   UNL     1      -8.501   4.682  -8.198  0.00  0.00    -0.084 Cl
ENDBRANCH  13  17
BRANCH   8  24
ATOM     24  C   UNL     1      -2.931   3.469  -0.270  0.00  0.00    +0.132 C 
BRANCH  24  25
ATOM     25  C   UNL     1      -2.002   4.684  -0.242  0.00  0.00    -0.038 C 
ATOM     26  C   UNL     1      -0.977   4.516   0.882  0.00  0.00    -0.013 C 
ATOM     27  C   UNL     1      -0.062   5.743   0.920  0.00  0.00    -0.003 C 
ATOM     28  C   UNL     1      -0.914   7.000   1.116  0.00  0.00    -0.019 C 
ATOM     29  C   UNL     1      -1.941   7.096  -0.015  0.00  0.00    -0.082 C 
ATOM     30  N   UNL     1      -2.804   5.899  -0.006  0.00  0.00    +0.383 N 
ATOM     31  H   UNL     1      -3.270   5.825   0.905  0.00  0.00    -0.085 HD
ATOM     32  H   UNL     1      -3.511   5.986  -0.746  0.00  0.00    -0.085 HD
ENDBRANCH  24  25
BRANCH  24  33
ATOM     33  O   UNL     1      -3.574   3.331   0.998  0.00  0.00    -0.389 OA
ATOM     34  H   UNL     1      -3.902   4.164   1.365  0.00  0.00    +0.210 HD
ENDBRANCH  24  33
ENDBRANCH   8  24
TORSDOF 4
