REMARK  Name = ZINC37912837
REMARK  5 active torsions:
REMARK  status: ('A' for Active; 'I' for Inactive)
REMARK    1  A    between atoms: C_1  and  C_2
REMARK    2  A    between atoms: C_2  and  C_3
REMARK    3  A    between atoms: N_8  and  S_9
REMARK    4  A    between atoms: S_9  and  C_12
REMARK    5  A    between atoms: C_17  and  N_18
REMARK                            x       y       z     vdW  Elec       q    Type
REMARK                         _______ _______ _______ _____ _____    ______ ____
ROOT
ATOM      1  S   UNL     1      -2.414   0.635  -1.396  0.00  0.00    +0.063 S 
ATOM      2  O   UNL     1      -1.456   1.308  -0.592  0.00  0.00    -0.153 OA
ATOM      3  O   UNL     1      -2.316   0.578  -2.813  0.00  0.00    -0.153 OA
ENDROOT
BRANCH   1   4
ATOM      4  C   UNL     1      -3.978   1.359  -1.029  0.00  0.00    +0.126 A 
ATOM      5  C   UNL     1      -4.068   2.373  -0.096  0.00  0.00    +0.031 A 
ATOM      6  C   UNL     1      -5.295   2.942   0.193  0.00  0.00    +0.017 A 
ATOM      7  C   UNL     1      -6.436   2.498  -0.452  0.00  0.00    +0.020 A 
ATOM      8  C   UNL     1      -6.353   1.484  -1.386  0.00  0.00    +0.040 A 
ATOM      9  C   UNL     1      -5.121   0.914  -1.682  0.00  0.00    +0.052 A 
ATOM     10 BR   UNL     1      -8.111   3.280  -0.053  0.00  0.00    -0.050 Br
BRANCH   9  11
ATOM     11  N   UNL     1      -5.032  -0.107  -2.631  0.00  0.00    -0.356 N 
ATOM     12  H   UNL     1      -4.163  -0.405  -2.942  0.00  0.00    +0.142 HD
ATOM     13  H   UNL     1      -5.839  -0.519  -2.977  0.00  0.00    +0.142 HD
ENDBRANCH   9  11
ENDBRANCH   1   4
BRANCH   1  18
ATOM     14  C   UNL     1      -2.191  -1.378   0.512  0.00  0.00    +0.080 C 
ATOM     15  C   UNL     1      -2.384  -2.909   0.547  0.00  0.00    +0.022 C 
ATOM     16  C   UNL     1      -3.303  -3.172  -0.675  0.00  0.00    +0.019 C 
ATOM     17  C   UNL     1      -2.787  -2.116  -1.685  0.00  0.00    +0.110 C 
ATOM     18  N   UNL     1      -2.463  -0.932  -0.863  0.00  0.00    -0.173 NA
BRANCH  14  20
ATOM     19  C   UNL     1      -0.516  -1.390   2.365  0.00  0.00    +0.005 C 
ATOM     20  C   UNL     1      -0.754  -1.026   0.898  0.00  0.00    +0.017 C 
ENDBRANCH  14  20
ENDBRANCH   1  18
TORSDOF 4
