REMARK  Name = ZINC08387488
REMARK  8 active torsions:
REMARK  status: ('A' for Active; 'I' for Inactive)
REMARK    1  A    between atoms: C_1  and  C_2
REMARK    2  A    between atoms: C_2  and  O_3
REMARK    3  A    between atoms: O_3  and  C_4
REMARK    4  A    between atoms: C_4  and  C_6
REMARK    5  A    between atoms: C_9  and  C_11
REMARK    6  A    between atoms: C_12  and  N_31
REMARK    7  A    between atoms: C_27  and  C_29
REMARK    8  A    between atoms: C_27  and  C_30
REMARK                            x       y       z     vdW  Elec       q    Type
REMARK                         _______ _______ _______ _____ _____    ______ ____
ROOT
ATOM      1  C   UNL     1       1.737   2.043   0.296  0.00  0.00    +0.078 A 
ATOM      2  C   UNL     1       2.278   0.814  -0.004  0.00  0.00    +0.052 A 
ATOM      3  C   UNL     1       1.374  -0.298  -0.248  0.00  0.00    +0.031 A 
ATOM      4  C   UNL     1       1.694  -1.644  -0.572  0.00  0.00    -0.025 A 
ATOM      5  C   UNL     1       0.695  -2.544  -0.759  0.00  0.00    +0.020 A 
ATOM      6  C   UNL     1      -0.641  -2.140  -0.637  0.00  0.00    +0.105 A 
ATOM      7  C   UNL     1       0.000   0.013  -0.146  0.00  0.00    +0.089 A 
ATOM      8  S   UNL     1      -0.019   1.741   0.261  0.00  0.00    -0.066 S 
ATOM      9  N   UNL     1      -1.660  -3.063  -0.833  0.00  0.00    -0.312 N 
ATOM     10  C   UNL     1      -2.514  -2.674  -1.964  0.00  0.00    +0.134 C 
ATOM     11  C   UNL     1      -3.584  -3.746  -2.182  0.00  0.00    +0.178 C 
ATOM     12  O   UNL     1      -4.331  -3.920  -0.974  0.00  0.00    -0.377 OA
ATOM     13  C   UNL     1      -3.530  -4.300   0.148  0.00  0.00    +0.178 C 
ATOM     14  C   UNL     1      -2.459  -3.233   0.389  0.00  0.00    +0.134 C 
ATOM     15  C   UNL     1       0.985  -3.985  -1.091  0.00  0.00    +0.199 C 
ATOM     16  O   UNL     1       2.334  -4.128  -1.535  0.00  0.00    -0.369 OA
ATOM     17  C   UNL     1       3.287  -3.547  -0.638  0.00  0.00    +0.068 C 
ATOM     18  C   UNL     1       3.145  -2.025  -0.701  0.00  0.00    +0.070 C 
ATOM     19  C   UNL     1       4.702  -3.950  -1.057  0.00  0.00    +0.041 C 
ATOM     20  C   UNL     1       3.014  -4.031   0.788  0.00  0.00    +0.041 C 
ATOM     21  N   UNL     1      -1.014  -0.866  -0.332  0.00  0.00    -0.337 N 
ATOM     22  H   UNL     1      -2.000  -0.590  -0.248  0.00  0.00    +0.168 HD
ENDROOT
BRANCH   1  26
ATOM     23  C   UNL     1       4.053   4.757   0.887  0.00  0.00    +0.212 A 
ATOM     24  C   UNL     1       2.860   5.432   1.072  0.00  0.00    +0.057 A 
ATOM     25  C   UNL     1       1.836   4.510   0.870  0.00  0.00    +0.051 A 
ATOM     26  C   UNL     1       2.436   3.297   0.577  0.00  0.00    +0.144 A 
ATOM     27  O   UNL     1       3.770   3.469   0.590  0.00  0.00    -0.448 OA
BRANCH  23  28
ATOM     28  C   UNL     1       5.347   5.318   0.993  0.00  0.00    +0.375 C 
ATOM     29  O   UNL     1       5.479   6.497   1.267  0.00  0.00    -0.241 OA
BRANCH  28  30
ATOM     30  O   UNL     1       6.436   4.547   0.788  0.00  0.00    -0.459 OA
BRANCH  30  32
ATOM     31  C   UNL     1       8.816   4.155   0.646  0.00  0.00    +0.048 C 
ATOM     32  C   UNL     1       7.711   5.179   0.911  0.00  0.00    +0.229 C 
ENDBRANCH  30  32
ENDBRANCH  28  30
ENDBRANCH  23  28
ENDBRANCH   1  26
BRANCH   2  33
ATOM     33  N   UNL     1       3.660   0.639  -0.072  0.00  0.00    -0.356 N 
ATOM     34  H   UNL     1       4.032  -0.083  -0.602  0.00  0.00    +0.142 HD
ATOM     35  H   UNL     1       4.250   1.240   0.410  0.00  0.00    +0.142 HD
ENDBRANCH   2  33
TORSDOF 5
