REMARK  Name = ZINC48611174
REMARK  7 active torsions:
REMARK  status: ('A' for Active; 'I' for Inactive)
REMARK    1  A    between atoms: C_1  and  C_2
REMARK    2  A    between atoms: C_2  and  C_3
REMARK    3  A    between atoms: C_3  and  N_4
REMARK    4  A    between atoms: C_5  and  C_19
REMARK    5  A    between atoms: C_6  and  N_18
REMARK    6  A    between atoms: N_9  and  C_10
REMARK    7  A    between atoms: C_13  and  C_17
REMARK                            x       y       z     vdW  Elec       q    Type
REMARK                         _______ _______ _______ _____ _____    ______ ____
ROOT
ATOM      1  N   UNL     1       0.878  -1.999  -1.539  0.00  0.00    -0.279 N 
ATOM      2  C   UNL     1       1.803  -2.780  -0.889  0.00  0.00    +0.059 A 
ATOM      3  C   UNL     1       1.298  -4.026  -0.771  0.00  0.00    +0.113 A 
ATOM      4  C   UNL     1       0.011  -4.037  -1.366  0.00  0.00    +0.293 A 
ATOM      5  O   UNL     1      -0.737  -4.995  -1.443  0.00  0.00    -0.264 OA
ATOM      6  N   UNL     1      -0.239  -2.795  -1.827  0.00  0.00    -0.215 N 
ATOM      7  C   UNL     1       3.151  -2.323  -0.392  0.00  0.00    +0.067 C 
ENDROOT
BRANCH   6   8
ATOM      8  C   UNL     1      -1.403  -2.376  -2.479  0.00  0.00    +0.069 A 
ATOM      9  C   UNL     1      -1.317  -1.675  -3.675  0.00  0.00    +0.028 A 
ATOM     10  C   UNL     1      -2.468  -1.262  -4.317  0.00  0.00    +0.007 A 
ATOM     11  C   UNL     1      -3.706  -1.546  -3.770  0.00  0.00    -0.032 A 
ATOM     12  C   UNL     1      -3.796  -2.244  -2.578  0.00  0.00    +0.046 A 
ATOM     13  C   UNL     1      -2.647  -2.664  -1.934  0.00  0.00    +0.048 A 
ATOM     14 CL   UNL     1      -5.352  -2.597  -1.895  0.00  0.00    -0.083 Cl
ATOM     15  C   UNL     1      -4.960  -1.094  -4.473  0.00  0.00    +0.045 C 
ENDBRANCH   6   8
BRANCH   3  16
ATOM     16  N   UNL     1       1.939  -5.126  -0.162  0.00  0.00    -0.352 N 
ATOM     17  H   UNL     1       2.825  -5.021   0.219  0.00  0.00    +0.143 HD
ATOM     18  H   UNL     1       1.494  -5.987  -0.125  0.00  0.00    +0.143 HD
ENDBRANCH   3  16
BRANCH   1  19
ATOM     19  C   UNL     1       1.031  -0.580  -1.869  0.00  0.00    +0.142 C 
BRANCH  19  21
ATOM     20  C   UNL     1       0.721   1.754  -1.033  0.00  0.00    +0.005 C 
ATOM     21  C   UNL     1       0.561   0.272  -0.689  0.00  0.00    +0.020 C 
ENDBRANCH  19  21
ENDBRANCH   1  19
TORSDOF 4
