REMARK  Name = ZINC39666016
REMARK  9 active torsions:
REMARK  status: ('A' for Active; 'I' for Inactive)
REMARK    1  A    between atoms: C_1  and  C_2
REMARK    2  A    between atoms: C_5  and  O_8
REMARK    3  A    between atoms: O_8  and  C_9
REMARK    4  A    between atoms: C_9  and  C_11
REMARK    5  A    between atoms: C_9  and  C_12
REMARK    6  A    between atoms: C_12  and  N_13
REMARK    7  A    between atoms: C_14  and  C_16
REMARK    8  A    between atoms: C_27  and  C_29
REMARK    9  A    between atoms: C_32  and  C_36
REMARK                            x       y       z     vdW  Elec       q    Type
REMARK                         _______ _______ _______ _____ _____    ______ ____
ROOT
ATOM      1  C   UNL     1       5.244  -6.326   0.931  0.00  0.00    +0.100 C 
ATOM      2  C   UNL     1       5.234  -5.518  -0.386  0.00  0.00    +0.121 C 
ATOM      3  N   UNL     1       6.373  -6.058  -1.164  0.00  0.00    -0.296 N 
ATOM      4  C   UNL     1       6.337  -7.518  -0.907  0.00  0.00    +0.115 C 
ATOM      5  C   UNL     1       5.968  -7.638   0.585  0.00  0.00    -0.004 C 
ATOM      6  C   UNL     1       7.229  -7.784   1.431  0.00  0.00    -0.010 C 
ATOM      7  C   UNL     1       7.902  -9.121   1.110  0.00  0.00    -0.082 C 
ATOM      8  N   UNL     1       6.970 -10.220   1.391  0.00  0.00    +0.379 N 
ATOM      9  C   UNL     1       5.801 -10.124   0.508  0.00  0.00    -0.082 C 
ATOM     10  C   UNL     1       5.040  -8.828   0.804  0.00  0.00    -0.010 C 
ATOM     11  C   UNL     1       7.245  -5.376  -1.933  0.00  0.00    +0.249 C 
ATOM     12  O   UNL     1       8.186  -5.953  -2.443  0.00  0.00    -0.270 OA
ATOM     13  H   UNL     1       7.434 -11.102   1.237  0.00  0.00    -0.086 HD
ATOM     14  H   UNL     1       6.668 -10.165   2.353  0.00  0.00    -0.086 HD
ENDROOT
BRANCH  11  15
ATOM     15  C   UNL     1       7.058  -3.928  -2.156  0.00  0.00    +0.072 A 
ATOM     16  C   UNL     1       5.771  -3.393  -2.244  0.00  0.00    +0.016 A 
ATOM     17  C   UNL     1       5.603  -2.040  -2.452  0.00  0.00    +0.013 A 
ATOM     18  C   UNL     1       6.705  -1.212  -2.574  0.00  0.00    +0.058 A 
ATOM     19  C   UNL     1       7.983  -1.732  -2.490  0.00  0.00    +0.051 A 
ATOM     20  C   UNL     1       8.168  -3.086  -2.275  0.00  0.00    +0.136 A 
ATOM     21  F   UNL     1       9.416  -3.594  -2.186  0.00  0.00    -0.205 F 
BRANCH  18  22
ATOM     22  C   UNL     1       6.512   0.265  -2.802  0.00  0.00    +0.418 C 
ATOM     23  F   UNL     1       6.446   0.922  -1.569  0.00  0.00    -0.166 F 
ATOM     24  F   UNL     1       7.587   0.768  -3.542  0.00  0.00    -0.166 F 
ATOM     25  F   UNL     1       5.322   0.476  -3.507  0.00  0.00    -0.166 F 
ENDBRANCH  18  22
ENDBRANCH  11  15
BRANCH   1  27
ATOM     26  N   UNL     1       3.564  -6.752   2.696  0.00  0.00    -0.312 N 
ATOM     27  C   UNL     1       3.834  -6.609   1.384  0.00  0.00    +0.218 C 
ATOM     28  O   UNL     1       2.943  -6.707   0.567  0.00  0.00    -0.275 OA
ATOM     29  H   UNL     1       4.276  -6.673   3.350  0.00  0.00    +0.149 HD
BRANCH  26  30
ATOM     30  C   UNL     1       2.194  -7.027   3.136  0.00  0.00    +0.148 C 
BRANCH  30  31
ATOM     31  C   UNL     1       2.161  -7.143   4.662  0.00  0.00    +0.187 C 
ATOM     32  C   UNL     1       0.758  -7.553   5.112  0.00  0.00    +0.053 C 
BRANCH  31  33
ATOM     33  O   UNL     1       2.499  -5.882   5.243  0.00  0.00    -0.488 OA
BRANCH  33  38
ATOM     34  C   UNL     1       4.662  -5.961  10.443  0.00  0.00    +0.044 C 
ATOM     35  C   UNL     1       4.083  -5.940   9.052  0.00  0.00    -0.050 A 
ATOM     36  C   UNL     1       3.627  -7.112   8.476  0.00  0.00    +0.007 A 
ATOM     37  C   UNL     1       3.096  -7.095   7.201  0.00  0.00    +0.046 A 
ATOM     38  C   UNL     1       3.021  -5.901   6.498  0.00  0.00    +0.121 A 
ATOM     39  C   UNL     1       3.478  -4.727   7.078  0.00  0.00    +0.046 A 
ATOM     40  C   UNL     1       4.003  -4.748   8.355  0.00  0.00    +0.007 A 
ENDBRANCH  33  38
ENDBRANCH  31  33
ENDBRANCH  30  31
ENDBRANCH  26  30
ENDBRANCH   1  27
TORSDOF 7
