REMARK  Name = ZINC19831059
REMARK  7 active torsions:
REMARK  status: ('A' for Active; 'I' for Inactive)
REMARK    1  A    between atoms: C_4  and  C_7
REMARK    2  A    between atoms: C_7  and  C_8
REMARK    3  A    between atoms: C_7  and  N_14
REMARK    4  A    between atoms: N_17  and  C_20
REMARK    5  A    between atoms: N_25  and  C_28
REMARK    6  A    between atoms: C_31  and  O_34
REMARK    7  A    between atoms: O_34  and  C_35
REMARK                            x       y       z     vdW  Elec       q    Type
REMARK                         _______ _______ _______ _____ _____    ______ ____
ROOT
ATOM      1  N   UNL     1       4.234  -2.074  -0.427  0.00  0.00    -0.289 NA
ATOM      2  C   UNL     1       3.192  -2.818   0.294  0.00  0.00    +0.100 C 
ATOM      3  C   UNL     1       2.671  -3.951  -0.593  0.00  0.00    +0.100 C 
ATOM      4  N   UNL     1       3.787  -4.834  -0.961  0.00  0.00    -0.289 NA
ATOM      5  C   UNL     1       4.828  -4.090  -1.682  0.00  0.00    +0.100 C 
ATOM      6  C   UNL     1       5.350  -2.957  -0.795  0.00  0.00    +0.100 C 
ENDROOT
BRANCH   4   7
ATOM      7  C   UNL     1       3.313  -5.978  -1.752  0.00  0.00    +0.153 C 
ATOM      8  C   UNL     1       4.482  -6.927  -2.087  0.00  0.00    +0.125 C 
ATOM      9  C   UNL     1       4.085  -8.227  -1.423  0.00  0.00    +0.228 C 
ATOM     10  O   UNL     1       4.734  -9.251  -1.439  0.00  0.00    -0.275 OA
ATOM     11  N   UNL     1       2.904  -8.067  -0.812  0.00  0.00    -0.209 N 
ATOM     12  C   UNL     1       2.376  -6.839  -0.934  0.00  0.00    +0.244 C 
ATOM     13  O   UNL     1       1.319  -6.477  -0.465  0.00  0.00    -0.273 OA
BRANCH  11  14
ATOM     14  C   UNL     1       2.269  -9.099  -0.105  0.00  0.00    +0.044 A 
ATOM     15  C   UNL     1       1.085  -9.643  -0.583  0.00  0.00    +0.027 A 
ATOM     16  C   UNL     1       0.461 -10.659   0.113  0.00  0.00    +0.048 A 
ATOM     17  C   UNL     1       1.017 -11.136   1.291  0.00  0.00    +0.129 A 
ATOM     18  C   UNL     1       2.200 -10.593   1.770  0.00  0.00    +0.048 A 
ATOM     19  C   UNL     1       2.828  -9.581   1.071  0.00  0.00    +0.027 A 
BRANCH  17  20
ATOM     20  O   UNL     1       0.402 -12.136   1.976  0.00  0.00    -0.420 OA
BRANCH  20  21
ATOM     21  C   UNL     1       1.030 -12.579   3.181  0.00  0.00    +0.489 C 
ATOM     22  F   UNL     1       2.313 -13.056   2.890  0.00  0.00    -0.149 F 
ATOM     23  F   UNL     1       1.123 -11.510   4.079  0.00  0.00    -0.149 F 
ATOM     24 CL   UNL     1       0.051 -13.901   3.919  0.00  0.00    +0.000 Cl
ENDBRANCH  20  21
ENDBRANCH  17  20
ENDBRANCH  11  14
ENDBRANCH   4   7
BRANCH   1  25
ATOM     25  C   UNL     1       4.707  -0.930   0.364  0.00  0.00    +0.117 C 
BRANCH  25  29
ATOM     26  C   UNL     1       7.602   1.258  -1.890  0.00  0.00    +0.000 A 
ATOM     27  C   UNL     1       7.844   0.957  -0.563  0.00  0.00    +0.000 A 
ATOM     28  C   UNL     1       6.907   0.249   0.167  0.00  0.00    +0.005 A 
ATOM     29  C   UNL     1       5.728  -0.157  -0.431  0.00  0.00    -0.026 A 
ATOM     30  C   UNL     1       5.487   0.145  -1.758  0.00  0.00    +0.005 A 
ATOM     31  C   UNL     1       6.424   0.852  -2.488  0.00  0.00    +0.000 A 
ENDBRANCH  25  29
BRANCH  25  32
ATOM     32  C   UNL     1       3.543  -0.032   0.694  0.00  0.00    -0.026 A 
ATOM     33  C   UNL     1       2.630   0.306  -0.287  0.00  0.00    +0.005 A 
ATOM     34  C   UNL     1       1.563   1.130   0.016  0.00  0.00    +0.000 A 
ATOM     35  C   UNL     1       1.407   1.616   1.300  0.00  0.00    +0.000 A 
ATOM     36  C   UNL     1       2.320   1.278   2.282  0.00  0.00    +0.000 A 
ATOM     37  C   UNL     1       3.385   0.450   1.980  0.00  0.00    +0.005 A 
ENDBRANCH  25  32
ENDBRANCH   1  25
TORSDOF 7
