REMARK  Name = ZINC20617064
REMARK  9 active torsions:
REMARK  status: ('A' for Active; 'I' for Inactive)
REMARK    1  A    between atoms: C_1  and  C_2
REMARK    2  A    between atoms: C_5  and  N_8
REMARK    3  A    between atoms: C_9  and  C_11
REMARK    4  A    between atoms: C_14  and  C_31
REMARK    5  A    between atoms: C_17  and  C_30
REMARK    6  A    between atoms: N_21  and  C_22
REMARK    7  A    between atoms: C_31  and  O_32
REMARK    8  A    between atoms: O_32  and  C_33
REMARK    9  A    between atoms: C_33  and  C_35
REMARK                            x       y       z     vdW  Elec       q    Type
REMARK                         _______ _______ _______ _____ _____    ______ ____
ROOT
ATOM      1  C   UNL     1       4.829   1.039  -0.349  0.00  0.00    +0.098 A 
ATOM      2  C   UNL     1       5.777   1.635  -1.156  0.00  0.00    +0.030 A 
ATOM      3  C   UNL     1       5.485   2.979  -1.657  0.00  0.00    +0.028 A 
ATOM      4  C   UNL     1       6.244   3.567  -2.677  0.00  0.00    +0.018 A 
ATOM      5  C   UNL     1       5.906   4.835  -3.100  0.00  0.00    +0.118 A 
ATOM      6  N   UNL     1       4.892   5.489  -2.562  0.00  0.00    -0.256 NA
ATOM      7  C   UNL     1       4.150   4.979  -1.600  0.00  0.00    +0.081 A 
ATOM      8  C   UNL     1       4.414   3.709  -1.108  0.00  0.00    +0.159 A 
ATOM      9  O   UNL     1       3.668   3.166  -0.118  0.00  0.00    -0.437 OA
ATOM     10  C   UNL     1       3.599   1.810  -0.075  0.00  0.00    +0.212 A 
ATOM     11  N   UNL     1       2.469   1.200   0.207  0.00  0.00    -0.325 N 
ATOM     12  C   UNL     1       3.007   5.781  -1.031  0.00  0.00    +0.069 C 
ATOM     13  H   UNL     1       2.449   0.107   0.328  0.00  0.00    +0.169 HD
ENDROOT
BRANCH  11  14
ATOM     14  C   UNL     1       1.318   1.925   0.351  0.00  0.00    +0.043 A 
ATOM     15  C   UNL     1       0.910   2.349   1.618  0.00  0.00    +0.027 A 
ATOM     16  C   UNL     1      -0.254   3.075   1.758  0.00  0.00    +0.023 A 
ATOM     17  C   UNL     1      -1.013   3.394   0.644  0.00  0.00    +0.059 A 
ATOM     18  C   UNL     1      -0.615   2.976  -0.616  0.00  0.00    +0.061 A 
ATOM     19  C   UNL     1       0.546   2.244  -0.768  0.00  0.00    +0.047 A 
ATOM     20 CL   UNL     1      -1.577   3.374  -2.005  0.00  0.00    -0.082 Cl
ATOM     21 CL   UNL     1      -2.473   4.315   0.828  0.00  0.00    -0.082 Cl
ENDBRANCH  11  14
BRANCH   1  23
ATOM     22  N   UNL     1       4.082  -0.863   0.993  0.00  0.00    -0.281 N 
ATOM     23  C   UNL     1       5.031  -0.309   0.212  0.00  0.00    +0.253 C 
ATOM     24  O   UNL     1       6.054  -0.921  -0.030  0.00  0.00    -0.270 OA
ATOM     25  H   UNL     1       3.123  -0.346   1.143  0.00  0.00    +0.155 HD
BRANCH  22  30
ATOM     26  C   UNL     1       5.038  -5.859   3.504  0.00  0.00    +0.044 C 
ATOM     27  C   UNL     1       4.784  -4.531   2.837  0.00  0.00    -0.050 A 
ATOM     28  C   UNL     1       5.829  -3.648   2.638  0.00  0.00    +0.005 A 
ATOM     29  C   UNL     1       5.600  -2.431   2.026  0.00  0.00    +0.023 A 
ATOM     30  C   UNL     1       4.318  -2.094   1.612  0.00  0.00    +0.034 A 
ATOM     31  C   UNL     1       3.269  -2.981   1.818  0.00  0.00    +0.023 A 
ATOM     32  C   UNL     1       3.506  -4.199   2.425  0.00  0.00    +0.005 A 
ENDBRANCH  22  30
ENDBRANCH   1  23
BRANCH   4  33
ATOM     33  C   UNL     1       7.402   2.829  -3.298  0.00  0.00    +0.269 C 
BRANCH  33  34
ATOM     34  O   UNL     1       8.011   3.660  -4.322  0.00  0.00    -0.460 OA
BRANCH  34  35
ATOM     35  C   UNL     1       9.064   3.146  -4.976  0.00  0.00    +0.304 C 
ATOM     36  O   UNL     1       9.464   2.039  -4.702  0.00  0.00    -0.251 OA
ATOM     37  C   UNL     1       9.748   3.949  -6.053  0.00  0.00    +0.136 C 
ENDBRANCH  34  35
ENDBRANCH  33  34
ENDBRANCH   4  33
TORSDOF 6
