REMARK  Name = ZINC04654793
REMARK  10 active torsions:
REMARK  status: ('A' for Active; 'I' for Inactive)
REMARK    1  A    between atoms: C_1  and  C_2
REMARK    2  A    between atoms: C_2  and  C_4
REMARK    3  A    between atoms: C_2  and  C_12
REMARK    4  A    between atoms: C_5  and  C_6
REMARK    5  A    between atoms: C_6  and  C_8
REMARK    6  A    between atoms: C_6  and  O_11
REMARK    7  A    between atoms: C_18  and  C_36
REMARK    8  A    between atoms: C_23  and  C_24
REMARK    9  A    between atoms: C_27  and  O_35
REMARK   10  A    between atoms: C_30  and  O_34
REMARK                            x       y       z     vdW  Elec       q    Type
REMARK                         _______ _______ _______ _____ _____    ______ ____
ROOT
ATOM      1  C   UNL     1       2.240   1.839   4.699  0.00  0.00    +0.002 C 
ATOM      2  C   UNL     1       0.954   1.086   5.128  0.00  0.00    +0.005 C 
ATOM      3  C   UNL     1       1.247   0.488   6.533  0.00  0.00    +0.009 C 
ATOM      4  C   UNL     1       2.350   1.405   7.067  0.00  0.00    +0.021 C 
ATOM      5  C   UNL     1       3.246   1.567   5.807  0.00  0.00    -0.022 C 
ATOM      6  C   UNL     1       4.279   2.626   6.114  0.00  0.00    +0.008 C 
ATOM      7  C   UNL     1       5.220   2.076   7.183  0.00  0.00    +0.005 C 
ATOM      8  C   UNL     1       4.470   1.692   8.458  0.00  0.00    +0.031 C 
ATOM      9  C   UNL     1       3.249   0.845   8.130  0.00  0.00    -0.066 C 
ATOM     10  C   UNL     1       2.996  -0.311   8.743  0.00  0.00    -0.000 C 
ATOM     11  C   UNL     1       3.963   0.245   5.526  0.00  0.00    +0.012 C 
ENDROOT
BRANCH  10  12
ATOM     12  C   UNL     1       3.910  -0.809   9.774  0.00  0.00    +0.004 C 
ATOM     13  C   UNL     1       3.654  -1.979  10.394  0.00  0.00    -0.040 C 
ATOM     14  C   UNL     1       4.575  -2.528  11.466  0.00  0.00    +0.067 C 
ATOM     15  C   UNL     1       4.826  -4.011  11.173  0.00  0.00    +0.122 C 
ATOM     16  C   UNL     1       3.495  -4.763  11.130  0.00  0.00    +0.067 C 
ATOM     17  C   UNL     1       2.667  -4.284   9.933  0.00  0.00    +0.147 C 
ATOM     18  C   UNL     1       2.459  -2.784  10.067  0.00  0.00    -0.023 C 
ATOM     19  C   UNL     1       1.263  -2.222   9.895  0.00  0.00    +0.015 C 
BRANCH  17  20
ATOM     20  O   UNL     1       3.364  -4.571   8.719  0.00  0.00    -0.387 OA
ATOM     21  H   UNL     1       2.894  -4.293   7.921  0.00  0.00    +0.210 HD
ENDBRANCH  17  20
BRANCH  15  22
ATOM     22  O   UNL     1       5.652  -4.564  12.200  0.00  0.00    -0.391 OA
ATOM     23  H   UNL     1       6.516  -4.139  12.281  0.00  0.00    +0.210 HD
ENDBRANCH  15  22
ENDBRANCH  10  12
BRANCH   1  25
ATOM     24  C   UNL     1       4.082   1.971   3.016  0.00  0.00    +0.012 C 
ATOM     25  C   UNL     1       2.757   1.292   3.367  0.00  0.00    +0.012 C 
BRANCH  25  26
ATOM     26  C   UNL     1       1.748   1.571   2.283  0.00  0.00    -0.025 C 
ATOM     27  C   UNL     1       1.210   0.579   1.617  0.00  0.00    +0.000 C 
BRANCH  27  28
ATOM     28  C   UNL     1       0.200   0.859   0.534  0.00  0.00    +0.140 C 
BRANCH  28  29
ATOM     29  C   UNL     1       0.717   0.311  -0.798  0.00  0.00    +0.022 C 
ATOM     30  C   UNL     1       1.109   1.326  -1.874  0.00  0.00    +0.007 C 
ATOM     31  C   UNL     1      -0.170   0.499  -2.031  0.00  0.00    +0.007 C 
ENDBRANCH  28  29
BRANCH  28  32
ATOM     32  O   UNL     1      -1.037   0.224   0.861  0.00  0.00    -0.387 OA
ATOM     33  H   UNL     1      -0.975  -0.737   0.953  0.00  0.00    +0.210 HD
ENDBRANCH  28  32
ENDBRANCH  27  28
ENDBRANCH  25  26
ENDBRANCH   1  25
TORSDOF 8
