REMARK  Name = ZINC14148102
REMARK  9 active torsions:
REMARK  status: ('A' for Active; 'I' for Inactive)
REMARK    1  A    between atoms: C_4  and  S_26
REMARK    2  A    between atoms: C_5  and  N_7
REMARK    3  A    between atoms: C_8  and  C_10
REMARK    4  A    between atoms: C_10  and  O_11
REMARK    5  A    between atoms: O_11  and  C_12
REMARK    6  A    between atoms: C_12  and  C_14
REMARK    7  A    between atoms: C_17  and  C_20
REMARK    8  A    between atoms: C_20  and  N_21
REMARK    9  A    between atoms: S_26  and  C_27
REMARK                            x       y       z     vdW  Elec       q    Type
REMARK                         _______ _______ _______ _____ _____    ______ ____
ROOT
ATOM      1  N   UNL     1       4.796   1.560  -0.194  0.00  0.00    -0.282 N 
ATOM      2  C   UNL     1       3.622   1.950  -0.729  0.00  0.00    +0.255 C 
ATOM      3  O   UNL     1       3.491   3.081  -1.146  0.00  0.00    -0.272 OA
ATOM      4  H   UNL     1       4.879   0.681   0.207  0.00  0.00    +0.155 HD
ENDROOT
BRANCH   1   9
ATOM      5  C   UNL     1       6.793   4.651  -0.224  0.00  0.00    +0.002 A 
ATOM      6  C   UNL     1       8.077   4.139  -0.264  0.00  0.00    +0.001 A 
ATOM      7  C   UNL     1       8.280   2.772  -0.281  0.00  0.00    +0.017 A 
ATOM      8  C   UNL     1       7.193   1.909  -0.252  0.00  0.00    +0.034 A 
ATOM      9  C   UNL     1       5.898   2.426  -0.218  0.00  0.00    +0.047 A 
ATOM     10  C   UNL     1       5.704   3.799  -0.201  0.00  0.00    +0.024 A 
BRANCH   8  11
ATOM     11  S   UNL     1       7.449   0.166  -0.266  0.00  0.00    -0.088 S 
BRANCH  11  12
ATOM     12  C   UNL     1       9.202  -0.008  -0.285  0.00  0.00    +0.013 A 
ATOM     13  C   UNL     1       9.871  -0.186  -1.490  0.00  0.00    +0.016 A 
ATOM     14  C   UNL     1      11.246  -0.316  -1.502  0.00  0.00    +0.021 A 
ATOM     15  C   UNL     1      11.956  -0.281  -0.315  0.00  0.00    +0.041 A 
ATOM     16  C   UNL     1      11.292  -0.110   0.888  0.00  0.00    +0.021 A 
ATOM     17  C   UNL     1       9.918   0.027   0.906  0.00  0.00    +0.016 A 
ATOM     18 CL   UNL     1      13.684  -0.452  -0.333  0.00  0.00    -0.084 Cl
ENDBRANCH  11  12
ENDBRANCH   8  11
ENDBRANCH   1   9
BRANCH   2  19
ATOM     19  C   UNL     1       2.472   0.979  -0.809  0.00  0.00    +0.328 C 
BRANCH  19  20
ATOM     20  O   UNL     1       1.328   1.633  -1.420  0.00  0.00    -0.452 OA
BRANCH  20  21
ATOM     21  C   UNL     1       0.209   0.898  -1.566  0.00  0.00    +0.340 C 
ATOM     22  O   UNL     1       0.189  -0.258  -1.193  0.00  0.00    -0.245 OA
BRANCH  21  23
ATOM     23  C   UNL     1      -0.992   1.495  -2.185  0.00  0.00    +0.059 A 
ATOM     24  C   UNL     1      -0.974   2.825  -2.610  0.00  0.00    +0.015 A 
ATOM     25  C   UNL     1      -2.097   3.375  -3.192  0.00  0.00    +0.006 A 
ATOM     26  C   UNL     1      -3.243   2.615  -3.346  0.00  0.00    -0.026 A 
ATOM     27  C   UNL     1      -3.269   1.298  -2.922  0.00  0.00    +0.006 A 
ATOM     28  C   UNL     1      -2.151   0.734  -2.343  0.00  0.00    +0.015 A 
BRANCH  26  29
ATOM     29  C   UNL     1      -4.468   3.224  -3.978  0.00  0.00    +0.180 C 
BRANCH  29  30
ATOM     30  N   UNL     1      -5.303   3.831  -2.939  0.00  0.00    -0.248 N 
ATOM     31  C   UNL     1      -5.740   5.101  -2.896  0.00  0.00    +0.219 A 
ATOM     32  N   UNL     1      -6.456   5.248  -1.811  0.00  0.00    -0.223 NA
ATOM     33  C   UNL     1      -6.499   4.098  -1.139  0.00  0.00    +0.245 A 
ATOM     34  N   UNL     1      -5.812   3.199  -1.793  0.00  0.00    -0.158 NA
ENDBRANCH  29  30
ENDBRANCH  26  29
ENDBRANCH  21  23
ENDBRANCH  20  21
ENDBRANCH  19  20
ENDBRANCH   2  19
TORSDOF 9
