REMARK  Name = ZINC27508631
REMARK  4 active torsions:
REMARK  status: ('A' for Active; 'I' for Inactive)
REMARK    1  A    between atoms: C_5  and  S_6
REMARK    2  A    between atoms: S_6  and  N_9
REMARK    3  A    between atoms: N_12  and  C_15
REMARK    4  A    between atoms: C_15  and  N_16
REMARK                            x       y       z     vdW  Elec       q    Type
REMARK                         _______ _______ _______ _____ _____    ______ ____
ROOT
ATOM      1  N   UNL     1       4.369   0.497  -3.661  0.00  0.00    -0.180 NA
ATOM      2  C   UNL     1       5.054   1.360  -2.687  0.00  0.00    +0.091 C 
ATOM      3  C   UNL     1       4.460   1.097  -1.300  0.00  0.00    -0.059 C 
ATOM      4  N   UNL     1       3.001   1.261  -1.357  0.00  0.00    +0.394 N 
ATOM      5  C   UNL     1       2.389   0.275  -2.257  0.00  0.00    -0.059 C 
ATOM      6  C   UNL     1       2.898   0.504  -3.683  0.00  0.00    +0.091 C 
ATOM      7  H   UNL     1       2.793   2.261  -1.764  0.00  0.00    -0.079 HD
ENDROOT
BRANCH   1   8
ATOM      8  S   UNL     1       5.230  -0.459  -4.704  0.00  0.00    +0.067 S 
ATOM      9  O   UNL     1       4.385  -0.705  -5.820  0.00  0.00    -0.152 OA
ATOM     10  O   UNL     1       6.513   0.139  -4.837  0.00  0.00    -0.152 OA
BRANCH   8  15
ATOM     11  C   UNL     1       4.697  -3.118  -3.935  0.00  0.00    +0.037 A 
ATOM     12  C   UNL     1       5.093  -4.236  -3.224  0.00  0.00    +0.025 A 
ATOM     13  C   UNL     1       6.250  -4.189  -2.518  0.00  0.00    +0.057 A 
ATOM     14  S   UNL     1       6.823  -2.532  -2.856  0.00  0.00    -0.062 S 
ATOM     15  C   UNL     1       5.477  -2.010  -3.906  0.00  0.00    +0.144 A 
ATOM     16 BR   UNL     1       7.053  -5.534  -1.458  0.00  0.00    -0.043 Br
ENDBRANCH   8  15
ENDBRANCH   1   8
BRANCH   4  17
ATOM     17  C   UNL     1       2.410   1.186  -0.014  0.00  0.00    +0.073 C 
BRANCH  17  18
ATOM     18  N   UNL     1       1.138   1.913   0.002  0.00  0.00    -0.245 N 
ATOM     19  C   UNL     1      -0.015   1.217   0.009  0.00  0.00    +0.285 A 
ATOM     20  O   UNL     1       0.002  -0.004   0.002  0.00  0.00    -0.265 OA
ATOM     21  C   UNL     1      -1.242   1.913   0.018  0.00  0.00    +0.126 A 
ATOM     22  C   UNL     1      -1.199   3.281   0.030  0.00  0.00    +0.084 A 
ATOM     23  C   UNL     1       0.059   3.908   0.022  0.00  0.00    +0.154 A 
ATOM     24  N   UNL     1       1.152   3.196   0.008  0.00  0.00    -0.177 NA
ATOM     25 CL   UNL     1      -2.661   4.218   0.049  0.00  0.00    -0.080 Cl
ATOM     26 CL   UNL     1      -2.756   1.063   0.021  0.00  0.00    -0.076 Cl
ENDBRANCH  17  18
ENDBRANCH   4  17
TORSDOF 4
