REMARK  Name = ZINC39914469
REMARK  15 active torsions:
REMARK  status: ('A' for Active; 'I' for Inactive)
REMARK    1  A    between atoms: C_1  and  C_2
REMARK    2  A    between atoms: C_2  and  C_3
REMARK    3  A    between atoms: C_3  and  C_4
REMARK    4  A    between atoms: C_4  and  C_5
REMARK    5  A    between atoms: C_5  and  N_6
REMARK    6  A    between atoms: C_7  and  C_26
REMARK    7  A    between atoms: C_10  and  C_17
REMARK    8  A    between atoms: C_20  and  C_24
REMARK    9  A    between atoms: C_22  and  O_23
REMARK   10  A    between atoms: C_29  and  O_35
REMARK   11  A    between atoms: C_30  and  O_32
REMARK   12  A    between atoms: O_32  and  C_33
REMARK   13  A    between atoms: C_33  and  C_34
REMARK   14  A    between atoms: O_35  and  C_36
REMARK   15  A    between atoms: C_36  and  C_37
REMARK                            x       y       z     vdW  Elec       q    Type
REMARK                         _______ _______ _______ _____ _____    ______ ____
ROOT
ATOM      1  N   UNL     1       0.983  -4.298  -1.621  0.00  0.00    -0.285 N 
ATOM      2  C   UNL     1       2.260  -4.968  -1.346  0.00  0.00    +0.141 C 
ATOM      3  C   UNL     1       2.129  -6.359  -1.902  0.00  0.00    +0.035 A 
ATOM      4  C   UNL     1       2.725  -7.607  -2.111  0.00  0.00    +0.102 A 
ATOM      5  N   UNL     1       1.847  -8.364  -2.739  0.00  0.00    -0.173 NA
ATOM      6  N   UNL     1       0.756  -7.718  -2.948  0.00  0.00    -0.272 N 
ATOM      7  H   UNL     1      -0.027  -8.077  -3.394  0.00  0.00    +0.189 HD
ATOM      8  C   UNL     1       0.863  -6.452  -2.447  0.00  0.00    +0.126 A 
ATOM      9  C   UNL     1       0.177  -5.168  -2.255  0.00  0.00    +0.265 C 
ATOM     10  O   UNL     1      -0.958  -4.926  -2.619  0.00  0.00    -0.268 OA
ENDROOT
BRANCH   4  11
ATOM     11  C   UNL     1       4.095  -8.006  -1.701  0.00  0.00    +0.045 A 
ATOM     12  C   UNL     1       4.961  -7.066  -1.148  0.00  0.00    +0.034 A 
ATOM     13  C   UNL     1       6.234  -7.442  -0.768  0.00  0.00    +0.045 A 
ATOM     14  C   UNL     1       6.653  -8.751  -0.935  0.00  0.00    -0.029 A 
ATOM     15  C   UNL     1       5.801  -9.691  -1.482  0.00  0.00    +0.050 A 
ATOM     16  C   UNL     1       4.519  -9.328  -1.863  0.00  0.00    +0.126 A 
ATOM     17  C   UNL     1       8.045  -9.152  -0.518  0.00  0.00    +0.045 C 
ATOM     18 CL   UNL     1       7.313  -6.269  -0.079  0.00  0.00    -0.083 Cl
BRANCH  16  19
ATOM     19  O   UNL     1       3.679 -10.253  -2.396  0.00  0.00    -0.506 OA
ATOM     20  H   UNL     1       3.734 -10.325  -3.359  0.00  0.00    +0.292 HD
ENDBRANCH  16  19
ENDBRANCH   4  11
BRANCH   2  21
ATOM     21  C   UNL     1       2.508  -5.023   0.140  0.00  0.00    -0.019 A 
ATOM     22  C   UNL     1       3.741  -4.656   0.647  0.00  0.00    +0.009 A 
ATOM     23  C   UNL     1       3.973  -4.704   2.009  0.00  0.00    +0.050 A 
ATOM     24  C   UNL     1       2.970  -5.121   2.869  0.00  0.00    +0.162 A 
ATOM     25  C   UNL     1       1.729  -5.490   2.358  0.00  0.00    +0.162 A 
ATOM     26  C   UNL     1       1.501  -5.434   0.992  0.00  0.00    +0.055 A 
BRANCH  25  27
ATOM     27  O   UNL     1       0.741  -5.899   3.198  0.00  0.00    -0.489 OA
BRANCH  27  28
ATOM     28  C   UNL     1      -0.465  -6.376   2.597  0.00  0.00    +0.226 C 
ATOM     29  C   UNL     1      -1.408  -6.891   3.686  0.00  0.00    +0.048 C 
ENDBRANCH  27  28
ENDBRANCH  25  27
BRANCH  24  30
ATOM     30  O   UNL     1       3.197  -5.169   4.209  0.00  0.00    -0.489 OA
BRANCH  30  31
ATOM     31  C   UNL     1       4.494  -4.776   4.662  0.00  0.00    +0.226 C 
ATOM     32  C   UNL     1       4.560  -4.896   6.185  0.00  0.00    +0.048 C 
ENDBRANCH  30  31
ENDBRANCH  24  30
ENDBRANCH   2  21
BRANCH   1  33
ATOM     33  C   UNL     1       0.642  -2.919  -1.261  0.00  0.00    +0.109 C 
BRANCH  33  34
ATOM     34  C   UNL     1       0.017  -2.896   0.135  0.00  0.00    +0.019 C 
BRANCH  34  35
ATOM     35  C   UNL     1      -0.339  -1.456   0.511  0.00  0.00    +0.001 C 
BRANCH  35  37
ATOM     36  C   UNL     1      -1.320   0.006   2.283  0.00  0.00    +0.004 C 
ATOM     37  C   UNL     1      -0.964  -1.433   1.907  0.00  0.00    -0.003 C 
ENDBRANCH  35  37
ENDBRANCH  34  35
ENDBRANCH  33  34
ENDBRANCH   1  33
TORSDOF 11
