REMARK  Name = ZINC63297493
REMARK  7 active torsions:
REMARK  status: ('A' for Active; 'I' for Inactive)
REMARK    1  A    between atoms: C_6  and  C_10
REMARK    2  A    between atoms: C_10  and  S_11
REMARK    3  A    between atoms: S_11  and  C_12
REMARK    4  A    between atoms: C_16  and  C_25
REMARK    5  A    between atoms: N_18  and  C_19
REMARK    6  A    between atoms: C_19  and  C_20
REMARK    7  A    between atoms: C_25  and  C_26
REMARK                            x       y       z     vdW  Elec       q    Type
REMARK                         _______ _______ _______ _____ _____    ______ ____
ROOT
ATOM      1  C   UNL     1       3.489  -3.090  -4.020  0.00  0.00    +0.200 C 
ATOM      2  N   UNL     1       3.000  -4.482  -3.900  0.00  0.00    -0.229 NA
ATOM      3  N   UNL     1       4.116  -5.308  -4.386  0.00  0.00    -0.237 NA
ATOM      4  C   UNL     1       5.312  -4.594  -3.868  0.00  0.00    +0.146 C 
ATOM      5  N   UNL     1       4.965  -3.159  -3.999  0.00  0.00    -0.254 NA
ATOM      6  H   UNL     1       2.173  -4.624  -4.461  0.00  0.00    +0.143 HD
ATOM      7  H   UNL     1       4.063  -6.243  -4.013  0.00  0.00    +0.142 HD
ENDROOT
BRANCH   1   8
ATOM      8  S   UNL     1       2.894  -2.098  -2.623  0.00  0.00    -0.121 S 
BRANCH   8   9
ATOM      9  C   UNL     1       1.171  -1.726  -3.051  0.00  0.00    +0.118 C 
BRANCH   9  15
ATOM     10  C   UNL     1       2.733   0.615   1.798  0.00  0.00    +0.002 A 
ATOM     11  C   UNL     1       2.298  -0.613   2.327  0.00  0.00    +0.002 A 
ATOM     12  C   UNL     1       1.571  -1.495   1.613  0.00  0.00    +0.027 A 
ATOM     13  C   UNL     1       1.207  -1.180   0.225  0.00  0.00    +0.060 A 
ATOM     14  N   UNL     1       0.530  -1.824  -0.681  0.00  0.00    -0.363 N 
ATOM     15  C   UNL     1       0.503  -0.989  -1.889  0.00  0.00    +0.184 C 
ATOM     16  N   UNL     1       1.256   0.230  -1.566  0.00  0.00    -0.363 N 
ATOM     17  C   UNL     1       1.667   0.120  -0.335  0.00  0.00    +0.060 A 
ATOM     18  C   UNL     1       2.454   1.003   0.537  0.00  0.00    +0.027 A 
ATOM     19  H   UNL     1       0.119  -2.697  -0.578  0.00  0.00    +0.162 HD
ATOM     20  H   UNL     1       1.418   0.979  -2.160  0.00  0.00    +0.162 HD
ENDBRANCH   9  15
ENDBRANCH   8   9
ENDBRANCH   1   8
BRANCH   5  21
ATOM     21  C   UNL     1       5.513  -2.380  -2.881  0.00  0.00    +0.162 C 
BRANCH  21  22
ATOM     22  C   UNL     1       7.008  -2.267  -3.031  0.00  0.00    +0.119 A 
ATOM     23  C   UNL     1       7.657  -1.355  -3.776  0.00  0.00    +0.046 A 
ATOM     24  C   UNL     1       9.039  -1.614  -3.630  0.00  0.00    +0.041 A 
ATOM     25  C   UNL     1       9.152  -2.670  -2.804  0.00  0.00    +0.195 A 
ATOM     26  O   UNL     1       7.919  -3.058  -2.440  0.00  0.00    -0.467 OA
ENDBRANCH  21  22
ENDBRANCH   5  21
BRANCH   4  27
ATOM     27  C   UNL     1       6.543  -4.929  -4.712  0.00  0.00    +0.078 C 
BRANCH  27  28
ATOM     28  C   UNL     1       6.820  -6.408  -4.633  0.00  0.00    -0.007 A 
ATOM     29  C   UNL     1       6.362  -7.406  -5.428  0.00  0.00    +0.011 A 
ATOM     30  C   UNL     1       6.753  -8.705  -5.165  0.00  0.00    +0.008 A 
ATOM     31  C   UNL     1       7.581  -8.944  -4.119  0.00  0.00    +0.045 A 
ATOM     32  S   UNL     1       7.840  -7.301  -3.471  0.00  0.00    -0.102 S 
ENDBRANCH  27  28
ENDBRANCH   4  27
TORSDOF 7
