REMARK  Name = ZINC08864678
REMARK  4 active torsions:
REMARK  status: ('A' for Active; 'I' for Inactive)
REMARK    1  A    between atoms: C_1  and  C_2
REMARK    2  A    between atoms: C_2  and  C_3
REMARK    3  A    between atoms: N_12  and  S_13
REMARK    4  A    between atoms: S_13  and  C_16
REMARK                            x       y       z     vdW  Elec       q    Type
REMARK                         _______ _______ _______ _____ _____    ______ ____
ROOT
ATOM      1  C   UNL     1       3.893  -2.814  -5.728  0.00  0.00    -0.021 A 
ATOM      2  C   UNL     1       5.076  -2.378  -6.267  0.00  0.00    +0.006 A 
ATOM      3  C   UNL     1       6.004  -1.679  -5.510  0.00  0.00    +0.001 A 
ATOM      4  C   UNL     1       5.731  -1.416  -4.179  0.00  0.00    +0.017 A 
ATOM      5  C   UNL     1       4.551  -1.849  -3.631  0.00  0.00    +0.041 A 
ATOM      6  C   UNL     1       3.581  -2.562  -4.372  0.00  0.00    +0.083 A 
ATOM      7  N   UNL     1       2.472  -2.924  -3.690  0.00  0.00    -0.223 NA
ATOM      8  C   UNL     1       2.295  -2.626  -2.423  0.00  0.00    +0.179 A 
ATOM      9  S   UNL     1       3.798  -1.745  -2.025  0.00  0.00    -0.051 S 
ATOM     10  N   UNL     1       1.223  -2.923  -1.606  0.00  0.00    -0.194 N 
ATOM     11  H   UNL     1       0.465  -3.413  -1.960  0.00  0.00    +0.176 HD
ENDROOT
BRANCH  10  12
ATOM     12  S   UNL     1       1.231  -2.441  -0.022  0.00  0.00    +0.074 S 
ATOM     13  O   UNL     1       2.487  -2.833   0.515  0.00  0.00    -0.150 OA
ATOM     14  O   UNL     1      -0.003  -2.866   0.538  0.00  0.00    -0.150 OA
BRANCH  12  15
ATOM     15  C   UNL     1       1.208  -0.679  -0.013  0.00  0.00    +0.109 A 
ATOM     16  C   UNL     1       0.002  -0.004   0.002  0.00  0.00    +0.030 A 
ATOM     17  C   UNL     1      -0.017   1.378   0.010  0.00  0.00    +0.022 A 
ATOM     18  C   UNL     1       1.172   2.086   0.002  0.00  0.00    +0.041 A 
ATOM     19  C   UNL     1       2.379   1.409  -0.013  0.00  0.00    +0.022 A 
ATOM     20  C   UNL     1       2.397   0.027  -0.021  0.00  0.00    +0.030 A 
ATOM     21 CL   UNL     1       1.149   3.821   0.011  0.00  0.00    -0.084 Cl
ENDBRANCH  12  15
ENDBRANCH  10  12
BRANCH   1  23
ATOM     22  C   UNL     1       1.878  -2.597  -7.157  0.00  0.00    +0.009 C 
ATOM     23  C   UNL     1       2.914  -3.569  -6.590  0.00  0.00    +0.034 C 
ENDBRANCH   1  23
TORSDOF 3
