REMARK  Name = ZINC14545727
REMARK  9 active torsions:
REMARK  status: ('A' for Active; 'I' for Inactive)
REMARK    1  A    between atoms: C_1  and  C_2
REMARK    2  A    between atoms: C_2  and  C_3
REMARK    3  A    between atoms: C_3  and  C_4
REMARK    4  A    between atoms: C_4  and  N_5
REMARK    5  A    between atoms: C_6  and  C_8
REMARK    6  A    between atoms: C_15  and  C_24
REMARK    7  A    between atoms: C_29  and  O_30
REMARK    8  A    between atoms: O_30  and  C_31
REMARK    9  A    between atoms: C_31  and  C_32
REMARK                            x       y       z     vdW  Elec       q    Type
REMARK                         _______ _______ _______ _____ _____    ______ ____
ROOT
ATOM      1  C   UNL     1      -3.491  -2.252   1.357  0.00  0.00    +0.058 A 
ATOM      2  C   UNL     1      -4.511  -3.189   1.194  0.00  0.00    +0.015 A 
ATOM      3  C   UNL     1      -5.553  -2.920   0.333  0.00  0.00    +0.001 A 
ATOM      4  C   UNL     1      -5.588  -1.726  -0.364  0.00  0.00    +0.006 A 
ATOM      5  C   UNL     1      -4.585  -0.780  -0.214  0.00  0.00    -0.019 A 
ATOM      6  C   UNL     1      -3.530  -1.037   0.644  0.00  0.00    +0.044 A 
ATOM      7  N   UNL     1      -2.493  -0.138   0.835  0.00  0.00    -0.336 N 
ATOM      8  C   UNL     1      -2.900   1.243   0.572  0.00  0.00    +0.108 C 
ATOM      9  C   UNL     1      -3.423   1.355  -0.862  0.00  0.00    +0.029 C 
ATOM     10  C   UNL     1      -4.697   0.495  -0.998  0.00  0.00    +0.049 C 
ATOM     11  C   UNL     1      -5.795   1.370  -0.437  0.00  0.00    -0.023 C 
ATOM     12  C   UNL     1      -5.431   2.628  -0.452  0.00  0.00    -0.030 C 
ATOM     13  C   UNL     1      -4.039   2.772  -1.035  0.00  0.00    +0.033 C 
ATOM     14  H   UNL     1      -2.101  -0.229   1.760  0.00  0.00    +0.147 HD
ENDROOT
BRANCH   8  15
ATOM     15  C   UNL     1      -1.716   2.159   0.748  0.00  0.00    +0.015 A 
ATOM     16  C   UNL     1      -1.849   3.330   1.469  0.00  0.00    +0.009 A 
ATOM     17  C   UNL     1      -0.762   4.168   1.636  0.00  0.00    +0.001 A 
ATOM     18  C   UNL     1       0.460   3.838   1.078  0.00  0.00    +0.004 A 
ATOM     19  C   UNL     1       0.597   2.670   0.353  0.00  0.00    +0.046 A 
ATOM     20  C   UNL     1      -0.493   1.828   0.184  0.00  0.00    +0.125 A 
BRANCH  20  21
ATOM     21  O   UNL     1      -0.361   0.679  -0.529  0.00  0.00    -0.492 OA
BRANCH  21  22
ATOM     22  C   UNL     1       0.930   0.399  -1.076  0.00  0.00    +0.225 C 
ATOM     23  C   UNL     1       0.884  -0.926  -1.839  0.00  0.00    +0.048 C 
ENDBRANCH  21  22
ENDBRANCH  20  21
ENDBRANCH   8  15
BRANCH   1  25
ATOM     24  N   UNL     1      -2.401  -3.629   3.057  0.00  0.00    -0.311 N 
ATOM     25  C   UNL     1      -2.372  -2.532   2.275  0.00  0.00    +0.246 C 
ATOM     26  O   UNL     1      -1.424  -1.773   2.327  0.00  0.00    -0.270 OA
ATOM     27  H   UNL     1      -3.158  -4.235   3.016  0.00  0.00    +0.149 HD
BRANCH  24  28
ATOM     28  C   UNL     1      -1.289  -3.908   3.970  0.00  0.00    +0.104 C 
BRANCH  28  29
ATOM     29  C   UNL     1      -1.570  -5.202   4.735  0.00  0.00    +0.018 C 
BRANCH  29  31
ATOM     30  C   UNL     1      -0.689  -6.788   6.453  0.00  0.00    +0.004 C 
ATOM     31  C   UNL     1      -0.409  -5.493   5.688  0.00  0.00    -0.002 C 
ENDBRANCH  29  31
ENDBRANCH  28  29
ENDBRANCH  24  28
ENDBRANCH   1  25
TORSDOF 7
