REMARK  Name = ZINC12381548
REMARK  12 active torsions:
REMARK  status: ('A' for Active; 'I' for Inactive)
REMARK    1  A    between atoms: C_1  and  C_2
REMARK    2  A    between atoms: C_2  and  C_3
REMARK    3  A    between atoms: C_2  and  C_4
REMARK    4  A    between atoms: C_2  and  C_5
REMARK    5  A    between atoms: C_7  and  C_16
REMARK    6  A    between atoms: C_9  and  C_12
REMARK    7  A    between atoms: C_10  and  O_11
REMARK    8  A    between atoms: C_12  and  C_13
REMARK    9  A    between atoms: C_12  and  C_14
REMARK   10  A    between atoms: C_12  and  C_15
REMARK   11  A    between atoms: C_16  and  N_17
REMARK   12  A    between atoms: N_26  and  C_27
REMARK                            x       y       z     vdW  Elec       q    Type
REMARK                         _______ _______ _______ _____ _____    ______ ____
ROOT
ATOM      1  C   UNL     1       2.030   7.420  -1.180  0.00  0.00    +0.000 A 
ATOM      2  C   UNL     1       1.442   6.170  -1.178  0.00  0.00    +0.013 A 
ATOM      3  C   UNL     1       1.160   5.539   0.020  0.00  0.00    -0.030 A 
ATOM      4  C   UNL     1       1.460   6.160   1.218  0.00  0.00    +0.013 A 
ATOM      5  C   UNL     1       2.054   7.407   1.222  0.00  0.00    +0.000 A 
ATOM      6  C   UNL     1       2.338   8.042   0.021  0.00  0.00    +0.124 A 
ENDROOT
BRANCH   1   8
ATOM      7  C   UNL     1       1.901   7.212  -3.647  0.00  0.00    +0.015 C 
ATOM      8  C   UNL     1       2.337   8.107  -2.486  0.00  0.00    -0.009 C 
ATOM      9  C   UNL     1       1.580   9.435  -2.553  0.00  0.00    +0.015 C 
ATOM     10  C   UNL     1       3.841   8.371  -2.582  0.00  0.00    +0.015 C 
ENDBRANCH   1   8
BRANCH   5  11
ATOM     11  C   UNL     1       2.386   8.081   2.528  0.00  0.00    -0.009 C 
ATOM     12  C   UNL     1       1.974   7.173   3.689  0.00  0.00    +0.015 C 
ATOM     13  C   UNL     1       3.892   8.344   2.597  0.00  0.00    +0.015 C 
ATOM     14  C   UNL     1       1.631   9.408   2.625  0.00  0.00    +0.015 C 
ENDBRANCH   5  11
BRANCH   6  15
ATOM     15  O   UNL     1       2.917   9.272   0.022  0.00  0.00    -0.506 OA
ATOM     16  H   UNL     1       2.285  10.004   0.032  0.00  0.00    +0.292 HD
ENDBRANCH   6  15
BRANCH   3  17
ATOM     17  C   UNL     1       0.518   4.175   0.019  0.00  0.00    +0.139 C 
BRANCH  17  18
ATOM     18  N   UNL     1       1.560   3.145   0.004  0.00  0.00    -0.311 N 
ATOM     19  C   UNL     1       1.211   1.811   0.000  0.00  0.00    +0.197 A 
ATOM     20  N   UNL     1      -0.016   1.355   0.009  0.00  0.00    -0.214 NA
ATOM     21  C   UNL     1       0.002  -0.004   0.002  0.00  0.00    +0.091 A 
ATOM     22  C   UNL     1      -1.000  -0.978   0.007  0.00  0.00    +0.030 A 
ATOM     23  C   UNL     1      -0.658  -2.311  -0.003  0.00  0.00    +0.002 A 
ATOM     24  C   UNL     1       0.675  -2.696  -0.018  0.00  0.00    +0.002 A 
ATOM     25  C   UNL     1       1.676  -1.747  -0.023  0.00  0.00    +0.028 A 
ATOM     26  C   UNL     1       1.350  -0.399  -0.013  0.00  0.00    +0.070 A 
ATOM     27  N   UNL     1       2.094   0.770  -0.014  0.00  0.00    -0.315 N 
ATOM     28  C   UNL     1       3.555   0.869  -0.027  0.00  0.00    +0.152 C 
ATOM     29  H   UNL     1       2.496   3.402  -0.004  0.00  0.00    +0.149 HD
ENDBRANCH  17  18
ENDBRANCH   3  17
TORSDOF 5
