REMARK  Name = ZINC56156186
REMARK  10 active torsions:
REMARK  status: ('A' for Active; 'I' for Inactive)
REMARK    1  A    between atoms: C_1  and  C_2
REMARK    2  A    between atoms: N_7  and  C_9
REMARK    3  A    between atoms: C_9  and  C_10
REMARK    4  A    between atoms: C_15  and  C_16
REMARK    5  A    between atoms: C_16  and  N_17
REMARK    6  A    between atoms: N_17  and  C_18
REMARK    7  A    between atoms: C_18  and  C_20
REMARK    8  A    between atoms: C_18  and  C_21
REMARK    9  A    between atoms: N_23  and  C_24
REMARK   10  A    between atoms: C_29  and  C_30
REMARK                            x       y       z     vdW  Elec       q    Type
REMARK                         _______ _______ _______ _____ _____    ______ ____
ROOT
ATOM      1  C   UNL     1       3.500  -3.629   0.664  0.00  0.00    +0.117 C 
ENDROOT
BRANCH   1   7
ATOM      2  C   UNL     1       1.661  -3.936   2.334  0.00  0.00    -0.060 A 
ATOM      3  C   UNL     1       0.832  -4.742   3.092  0.00  0.00    +0.002 A 
ATOM      4  C   UNL     1       0.947  -6.117   3.017  0.00  0.00    +0.000 A 
ATOM      5  C   UNL     1       1.890  -6.688   2.182  0.00  0.00    +0.000 A 
ATOM      6  C   UNL     1       2.718  -5.882   1.423  0.00  0.00    +0.005 A 
ATOM      7  C   UNL     1       2.601  -4.507   1.496  0.00  0.00    -0.032 A 
BRANCH   2   8
ATOM      8  C   UNL     1       1.537  -2.437   2.416  0.00  0.00    -0.043 C 
BRANCH   8  14
ATOM      9  C   UNL     1      -0.007   1.568   0.062  0.00  0.00    +0.005 C 
ATOM     10  C   UNL     1       0.006   0.038   0.047  0.00  0.00    -0.031 C 
ATOM     11  C   UNL     1      -1.433  -0.486   0.064  0.00  0.00    -0.001 C 
ATOM     12  C   UNL     1      -1.408  -2.015   0.128  0.00  0.00    -0.018 C 
ATOM     13  C   UNL     1      -0.615  -2.456   1.360  0.00  0.00    -0.078 C 
ATOM     14  N   UNL     1       0.758  -1.946   1.271  0.00  0.00    +0.383 N 
ATOM     15  C   UNL     1       0.748  -0.479   1.281  0.00  0.00    -0.075 C 
ATOM     16  H   UNL     1       1.182  -2.272   0.415  0.00  0.00    -0.081 HD
ENDBRANCH   8  14
ENDBRANCH   2   8
ENDBRANCH   1   7
BRANCH   1  17
ATOM     17  N   UNL     1       4.601  -3.128   1.497  0.00  0.00    -0.302 NA
ATOM     18  H   UNL     1       4.249  -2.643   2.308  0.00  0.00    +0.123 HD
BRANCH  17  19
ATOM     19  C   UNL     1       5.501  -2.267   0.718  0.00  0.00    +0.138 C 
ATOM     20  C   UNL     1       4.952  -0.839   0.701  0.00  0.00    +0.034 C 
BRANCH  19  21
ATOM     21  C   UNL     1       6.870  -2.270   1.347  0.00  0.00    +0.234 C 
ATOM     22  O   UNL     1       7.077  -2.926   2.346  0.00  0.00    -0.274 OA
ATOM     23  N   UNL     1       7.865  -1.545   0.800  0.00  0.00    -0.283 N 
ATOM     24  H   UNL     1       7.724  -1.085  -0.043  0.00  0.00    +0.155 HD
BRANCH  23  25
ATOM     25  C   UNL     1       9.099  -1.456   1.444  0.00  0.00    +0.051 A 
ATOM     26  C   UNL     1       9.183  -1.639   2.817  0.00  0.00    +0.024 A 
ATOM     27  C   UNL     1      10.405  -1.551   3.453  0.00  0.00    +0.002 A 
ATOM     28  C   UNL     1      11.555  -1.278   2.729  0.00  0.00    +0.001 A 
ATOM     29  C   UNL     1      11.490  -1.092   1.365  0.00  0.00    +0.021 A 
ATOM     30  C   UNL     1      10.261  -1.185   0.706  0.00  0.00    +0.073 A 
BRANCH  30  31
ATOM     31  C   UNL     1      10.188  -1.000  -0.712  0.00  0.00    +0.101 C 
ATOM     32  N   UNL     1      10.130  -0.852  -1.837  0.00  0.00    -0.191 NA
ENDBRANCH  30  31
ENDBRANCH  23  25
ENDBRANCH  19  21
ENDBRANCH  17  19
ENDBRANCH   1  17
TORSDOF 8
