REMARK  Name = ZINC47133435
REMARK  4 active torsions:
REMARK  status: ('A' for Active; 'I' for Inactive)
REMARK    1  A    between atoms: C_6  and  O_7
REMARK    2  A    between atoms: O_7  and  C_8
REMARK    3  A    between atoms: C_8  and  C_9
REMARK    4  A    between atoms: C_13  and  C_17
REMARK                            x       y       z     vdW  Elec       q    Type
REMARK                         _______ _______ _______ _____ _____    ______ ____
ROOT
ATOM      1  C   UNL     1      -2.454  -2.722   0.012  0.00  0.00    +0.256 C 
ATOM      2  O   UNL     1      -3.426  -1.997   0.025  0.00  0.00    -0.272 OA
ATOM      3  N   UNL     1      -2.611  -4.061   0.006  0.00  0.00    -0.263 N 
ATOM      4  C   UNL     1      -3.891  -4.612   0.016  0.00  0.00    +0.197 A 
ATOM      5  C   UNL     1      -4.210  -6.044   0.017  0.00  0.00    +0.156 A 
ATOM      6  N   UNL     1      -5.511  -6.174   0.028  0.00  0.00    -0.047 NA
ATOM      7  O   UNL     1      -6.076  -4.876   0.034  0.00  0.00    -0.240 OA
ATOM      8  N   UNL     1      -5.010  -3.943   0.031  0.00  0.00    -0.033 NA
ATOM      9  H   UNL     1      -1.834  -4.641  -0.005  0.00  0.00    +0.156 HD
ENDROOT
BRANCH   5  10
ATOM     10  C   UNL     1      -3.225  -7.154   0.008  0.00  0.00    +0.007 A 
ATOM     11  C   UNL     1      -2.025  -7.021  -0.689  0.00  0.00    +0.010 A 
ATOM     12  C   UNL     1      -1.121  -8.060  -0.692  0.00  0.00    +0.004 A 
ATOM     13  C   UNL     1      -1.392  -9.239  -0.006  0.00  0.00    -0.044 A 
ATOM     14  C   UNL     1      -2.575  -9.373   0.688  0.00  0.00    -0.044 A 
ATOM     15  C   UNL     1      -3.490  -8.331   0.698  0.00  0.00    +0.014 A 
ATOM     16  C   UNL     1      -2.923 -10.617   1.464  0.00  0.00    +0.035 C 
ATOM     17  C   UNL     1      -2.052 -11.790   1.018  0.00  0.00    +0.005 C 
ATOM     18  C   UNL     1      -0.585 -11.345   1.058  0.00  0.00    +0.005 C 
ATOM     19  C   UNL     1      -0.358 -10.333  -0.063  0.00  0.00    +0.035 C 
ENDBRANCH   5  10
BRANCH   1  20
ATOM     20  C   UNL     1      -1.070  -2.126   0.001  0.00  0.00    +0.324 C 
BRANCH  20  21
ATOM     21  O   UNL     1      -1.165  -0.701   0.010  0.00  0.00    -0.483 OA
BRANCH  21  27
ATOM     22  C   UNL     1      -0.017   1.383   0.010  0.00  0.00    +0.047 A 
ATOM     23  C   UNL     1       1.171   2.089   0.002  0.00  0.00    +0.023 A 
ATOM     24  C   UNL     1       2.378   1.414  -0.013  0.00  0.00    +0.041 A 
ATOM     25  C   UNL     1       2.399   0.030  -0.021  0.00  0.00    +0.023 A 
ATOM     26  C   UNL     1       1.214  -0.679  -0.014  0.00  0.00    +0.047 A 
ATOM     27  C   UNL     1       0.002  -0.004   0.002  0.00  0.00    +0.121 A 
ATOM     28 CL   UNL     1       3.869   2.303  -0.024  0.00  0.00    -0.084 Cl
ENDBRANCH  21  27
ENDBRANCH  20  21
ENDBRANCH   1  20
TORSDOF 4
