REMARK  Name = ZINC00546173
REMARK  6 active torsions:
REMARK  status: ('A' for Active; 'I' for Inactive)
REMARK    1  A    between atoms: C_1  and  C_2
REMARK    2  A    between atoms: C_2  and  C_3
REMARK    3  A    between atoms: C_3  and  C_21
REMARK    4  A    between atoms: N_15  and  C_20
REMARK    5  A    between atoms: C_16  and  S_18
REMARK    6  A    between atoms: S_18  and  C_19
REMARK                            x       y       z     vdW  Elec       q    Type
REMARK                         _______ _______ _______ _____ _____    ______ ____
ROOT
ATOM      1  C   UNL     1      -0.740   1.586  -1.237  0.00  0.00    +0.004 C 
ATOM      2  C   UNL     1       0.205   1.391  -0.055  0.00  0.00    +0.047 C 
ATOM      3  C   UNL     1      -0.441   1.857   1.222  0.00  0.00    -0.037 A 
ATOM      4  C   UNL     1       0.315   2.458   2.208  0.00  0.00    +0.004 A 
ATOM      5  C   UNL     1      -0.286   2.880   3.381  0.00  0.00    +0.000 A 
ATOM      6  C   UNL     1      -1.644   2.703   3.575  0.00  0.00    +0.001 A 
ATOM      7  C   UNL     1      -2.411   2.104   2.595  0.00  0.00    +0.010 A 
ATOM      8  C   UNL     1      -1.811   1.680   1.413  0.00  0.00    +0.004 A 
ATOM      9  C   UNL     1      -2.608   1.039   0.343  0.00  0.00    +0.083 A 
ATOM     10  C   UNL     1      -2.087   0.989  -0.942  0.00  0.00    +0.049 A 
ATOM     11  C   UNL     1      -2.839   0.375  -1.952  0.00  0.00    +0.259 A 
ATOM     12  O   UNL     1      -2.413   0.310  -3.094  0.00  0.00    -0.267 OA
ATOM     13  N   UNL     1      -4.045  -0.143  -1.635  0.00  0.00    -0.291 N 
ATOM     14  C   UNL     1      -4.513  -0.063  -0.359  0.00  0.00    +0.172 A 
ATOM     15  N   UNL     1      -3.811   0.513   0.597  0.00  0.00    -0.223 NA
ATOM     16  C   UNL     1      -4.854  -0.794  -2.669  0.00  0.00    +0.154 C 
ATOM     17  C   UNL     1      -0.148   0.908  -2.474  0.00  0.00    +0.016 C 
ENDROOT
BRANCH   1  19
ATOM     18  C   UNL     1      -1.849   3.284  -2.697  0.00  0.00    +0.005 C 
ATOM     19  C   UNL     1      -0.901   3.083  -1.512  0.00  0.00    +0.008 C 
ENDBRANCH   1  19
BRANCH  14  20
ATOM     20  S   UNL     1      -6.093  -0.744   0.024  0.00  0.00    -0.091 S 
ATOM     21  C   UNL     1      -6.181  -0.358   1.790  0.00  0.00    +0.093 C 
ENDBRANCH  14  20
TORSDOF 2
