REMARK  Name = ZINC20180732
REMARK  13 active torsions:
REMARK  status: ('A' for Active; 'I' for Inactive)
REMARK    1  A    between atoms: C_1  and  C_2
REMARK    2  A    between atoms: C_2  and  C_3
REMARK    3  A    between atoms: C_3  and  C_4
REMARK    4  A    between atoms: C_4  and  N_5
REMARK    5  A    between atoms: N_5  and  C_6
REMARK    6  A    between atoms: N_5  and  C_8
REMARK    7  A    between atoms: C_6  and  C_7
REMARK    8  A    between atoms: C_8  and  C_9
REMARK    9  A    between atoms: C_9  and  C_10
REMARK   10  A    between atoms: C_10  and  N_11
REMARK   11  A    between atoms: C_12  and  C_14
REMARK   12  A    between atoms: C_14  and  N_15
REMARK   13  A    between atoms: C_24  and  C_25
REMARK                            x       y       z     vdW  Elec       q    Type
REMARK                         _______ _______ _______ _____ _____    ______ ____
ROOT
ATOM      1  N   UNL     1      -2.953   2.403   3.489  0.00  0.00    -0.253 N 
ATOM      2  C   UNL     1      -3.142   1.095   3.952  0.00  0.00    +0.080 A 
ATOM      3  C   UNL     1      -3.751   0.151   3.135  0.00  0.00    +0.027 A 
ATOM      4  C   UNL     1      -3.931  -1.141   3.591  0.00  0.00    +0.002 A 
ATOM      5  C   UNL     1      -3.502  -1.500   4.855  0.00  0.00    +0.004 A 
ATOM      6  C   UNL     1      -2.890  -0.567   5.673  0.00  0.00    +0.048 A 
ATOM      7  C   UNL     1      -2.707   0.730   5.224  0.00  0.00    +0.150 A 
ATOM      8  O   UNL     1      -2.106   1.653   6.026  0.00  0.00    -0.449 OA
ATOM      9  C   UNL     1      -1.470   2.681   5.384  0.00  0.00    +0.191 C 
ATOM     10  C   UNL     1      -0.297   3.177   5.837  0.00  0.00    +0.062 C 
ATOM     11  C   UNL     1      -2.122   3.225   4.175  0.00  0.00    +0.287 C 
ATOM     12  O   UNL     1      -1.921   4.368   3.809  0.00  0.00    -0.266 OA
ENDROOT
BRANCH  10  13
ATOM     13  C   UNL     1       0.239   2.731   7.132  0.00  0.00    +0.014 A 
ATOM     14  C   UNL     1      -0.601   2.117   8.067  0.00  0.00    +0.011 A 
ATOM     15  C   UNL     1      -0.090   1.698   9.277  0.00  0.00    +0.001 A 
ATOM     16  C   UNL     1       1.249   1.892   9.573  0.00  0.00    +0.003 A 
ATOM     17  C   UNL     1       2.086   2.503   8.658  0.00  0.00    +0.039 A 
ATOM     18  C   UNL     1       1.592   2.925   7.438  0.00  0.00    +0.131 A 
ATOM     19  F   UNL     1       2.411   3.522   6.544  0.00  0.00    -0.205 F 
ENDBRANCH  10  13
BRANCH   1  20
ATOM     20  C   UNL     1      -3.646   2.877   2.288  0.00  0.00    +0.209 C 
BRANCH  20  22
ATOM     21  N   UNL     1      -3.230   2.958  -0.149  0.00  0.00    -0.314 N 
ATOM     22  C   UNL     1      -2.793   2.605   1.076  0.00  0.00    +0.231 C 
ATOM     23  O   UNL     1      -1.713   2.068   1.202  0.00  0.00    -0.274 OA
ATOM     24  H   UNL     1      -4.210   3.445  -0.264  0.00  0.00    +0.149 HD
BRANCH  21  25
ATOM     25  C   UNL     1      -2.401   2.694  -1.327  0.00  0.00    +0.102 C 
BRANCH  25  26
ATOM     26  C   UNL     1      -3.125   3.188  -2.582  0.00  0.00    +0.000 C 
BRANCH  26  27
ATOM     27  C   UNL     1      -2.259   2.912  -3.812  0.00  0.00    -0.077 C 
BRANCH  27  28
ATOM     28  N   UNL     1      -2.953   3.387  -5.016  0.00  0.00    +0.380 N 
ATOM     29  H   UNL     1      -3.251   4.432  -4.845  0.00  0.00    -0.082 HD
BRANCH  28  30
ATOM     30  C   UNL     1      -4.172   2.605  -5.264  0.00  0.00    -0.082 C 
ATOM     31  C   UNL     1      -5.092   3.380  -6.209  0.00  0.00    -0.017 C 
ENDBRANCH  28  30
BRANCH  28  32
ATOM     32  C   UNL     1      -2.062   3.358  -6.184  0.00  0.00    -0.079 C 
BRANCH  32  33
ATOM     33  C   UNL     1      -1.074   4.522  -6.101  0.00  0.00    -0.019 C 
BRANCH  33  35
ATOM     34  C   UNL     1       0.738   5.750  -7.306  0.00  0.00    +0.004 C 
ATOM     35  C   UNL     1      -0.250   4.585  -7.389  0.00  0.00    -0.005 C 
ENDBRANCH  33  35
ENDBRANCH  32  33
ENDBRANCH  28  32
ENDBRANCH  27  28
ENDBRANCH  26  27
ENDBRANCH  25  26
ENDBRANCH  21  25
ENDBRANCH  20  22
ENDBRANCH   1  20
TORSDOF 11
