REMARK  Name = ZINC32508566
REMARK  15 active torsions:
REMARK  status: ('A' for Active; 'I' for Inactive)
REMARK    1  A    between atoms: C_1  and  C_2
REMARK    2  A    between atoms: C_2  and  N_3
REMARK    3  A    between atoms: N_3  and  C_4
REMARK    4  A    between atoms: N_3  and  C_6
REMARK    5  A    between atoms: C_4  and  C_5
REMARK    6  A    between atoms: C_9  and  N_13
REMARK    7  A    between atoms: C_10  and  C_12
REMARK    8  A    between atoms: N_25  and  C_26
REMARK    9  A    between atoms: C_26  and  C_28
REMARK   10  A    between atoms: C_28  and  N_29
REMARK   11  A    between atoms: C_30  and  O_32
REMARK   12  A    between atoms: O_32  and  C_33
REMARK   13  A    between atoms: C_33  and  C_34
REMARK   14  A    between atoms: C_33  and  C_35
REMARK   15  A    between atoms: C_33  and  C_36
REMARK                            x       y       z     vdW  Elec       q    Type
REMARK                         _______ _______ _______ _____ _____    ______ ____
ROOT
ATOM      1  N   UNL     1      -0.617   1.143   2.523  0.00  0.00    -0.276 N 
ATOM      2  C   UNL     1      -0.842   1.636   1.184  0.00  0.00    +0.116 C 
ATOM      3  C   UNL     1      -0.013   1.086   0.008  0.00  0.00    +0.190 C 
ATOM      4  S   UNL     1      -1.039   1.764  -1.383  0.00  0.00    -0.028 S 
ATOM      5  O   UNL     1      -0.556   3.055  -1.728  0.00  0.00    -0.174 OA
ATOM      6  O   UNL     1      -1.169   0.771  -2.390  0.00  0.00    -0.174 OA
ATOM      7  C   UNL     1      -2.656   1.940  -0.492  0.00  0.00    +0.182 C 
ATOM      8  C   UNL     1      -2.324   1.260   0.805  0.00  0.00    +0.097 C 
ATOM      9  S   UNL     1      -3.068   1.807   2.362  0.00  0.00    -0.086 S 
ATOM     10  C   UNL     1      -1.672   1.334   3.410  0.00  0.00    +0.154 C 
ATOM     11  N   UNL     1      -1.658   1.196   4.731  0.00  0.00    -0.157 NA
ENDROOT
BRANCH   1  15
ATOM     12  C   UNL     1       2.938  -0.724   3.649  0.00  0.00    +0.030 A 
ATOM     13  C   UNL     1       2.806   0.653   3.777  0.00  0.00    +0.025 A 
ATOM     14  C   UNL     1       1.629   1.271   3.404  0.00  0.00    +0.025 A 
ATOM     15  C   UNL     1       0.577   0.516   2.901  0.00  0.00    +0.039 A 
ATOM     16  C   UNL     1       0.708  -0.861   2.778  0.00  0.00    -0.027 A 
ATOM     17  C   UNL     1       1.887  -1.478   3.145  0.00  0.00    +0.028 A 
ATOM     18  C   UNL     1      -0.435  -1.681   2.238  0.00  0.00    +0.046 C 
BRANCH  12  19
ATOM     19  N   UNL     1       4.131  -1.349   4.026  0.00  0.00    -0.330 N 
BRANCH  19  21
ATOM     20  C   UNL     1       5.112  -0.450   6.078  0.00  0.00    +0.024 C 
ATOM     21  C   UNL     1       5.240  -0.553   4.557  0.00  0.00    +0.102 C 
ENDBRANCH  19  21
BRANCH  19  22
ATOM     22  C   UNL     1       4.271  -2.802   3.891  0.00  0.00    +0.102 C 
ATOM     23  C   UNL     1       4.834  -3.133   2.507  0.00  0.00    +0.024 C 
ENDBRANCH  19  22
ENDBRANCH  12  19
ENDBRANCH   1  15
BRANCH  11  24
ATOM     24  C   UNL     1      -2.764   1.419   5.435  0.00  0.00    +0.255 C 
ATOM     25  O   UNL     1      -3.788   1.751   4.869  0.00  0.00    -0.272 OA
BRANCH  24  26
ATOM     26  C   UNL     1      -2.748   1.262   6.934  0.00  0.00    +0.205 C 
BRANCH  26  27
ATOM     27  N   UNL     1      -4.078   1.563   7.470  0.00  0.00    -0.272 N 
ATOM     28  C   UNL     1      -4.302   1.488   8.797  0.00  0.00    +0.401 C 
ATOM     29  O   UNL     1      -3.401   1.170   9.548  0.00  0.00    -0.226 OA
ATOM     30  H   UNL     1      -4.893   1.850   6.790  0.00  0.00    +0.153 HD
BRANCH  28  31
ATOM     31  O   UNL     1      -5.524   1.764   9.290  0.00  0.00    -0.445 OA
BRANCH  31  32
ATOM     32  C   UNL     1      -5.692   1.662  10.729  0.00  0.00    +0.107 C 
ATOM     33  C   UNL     1      -4.739   2.636  11.424  0.00  0.00    +0.055 C 
ATOM     34  C   UNL     1      -7.135   2.010  11.099  0.00  0.00    +0.055 C 
ATOM     35  C   UNL     1      -5.380   0.234  11.180  0.00  0.00    +0.055 C 
ENDBRANCH  31  32
ENDBRANCH  28  31
ENDBRANCH  26  27
ENDBRANCH  24  26
ENDBRANCH  11  24
TORSDOF 9
