REMARK  Name = ZINC39991737
REMARK  10 active torsions:
REMARK  status: ('A' for Active; 'I' for Inactive)
REMARK    1  A    between atoms: C_1  and  C_2
REMARK    2  A    between atoms: C_5  and  N_9
REMARK    3  A    between atoms: C_6  and  C_8
REMARK    4  A    between atoms: C_10  and  C_12
REMARK    5  A    between atoms: C_14  and  C_33
REMARK    6  A    between atoms: C_18  and  C_22
REMARK    7  A    between atoms: C_22  and  S_23
REMARK    8  A    between atoms: S_23  and  C_24
REMARK    9  A    between atoms: C_27  and  N_30
REMARK   10  A    between atoms: N_30  and  C_31
REMARK                            x       y       z     vdW  Elec       q    Type
REMARK                         _______ _______ _______ _____ _____    ______ ____
ROOT
ATOM      1  C   UNL     1      -0.134  -6.343  -1.187  0.00  0.00    +0.165 C 
ATOM      2  C   UNL     1      -0.865  -6.839  -2.413  0.00  0.00    -0.036 C 
ATOM      3  C   UNL     1      -0.193  -7.628  -3.264  0.00  0.00    +0.071 C 
ATOM      4  C   UNL     1       1.212  -7.951  -2.937  0.00  0.00    +0.112 C 
ATOM      5  N   UNL     1       1.923  -8.718  -3.729  0.00  0.00    -0.227 NA
ATOM      6  C   UNL     1       1.409  -9.225  -4.839  0.00  0.00    +0.134 C 
ATOM      7  N   UNL     1       0.176  -9.007  -5.230  0.00  0.00    -0.160 NA
ATOM      8  C   UNL     1      -0.679  -8.248  -4.538  0.00  0.00    +0.271 C 
ATOM      9  O   UNL     1      -1.819  -8.066  -4.931  0.00  0.00    -0.268 OA
ATOM     10  S   UNL     1       1.525  -7.106  -1.406  0.00  0.00    -0.088 S 
ATOM     11  C   UNL     1      -2.301  -6.462  -2.671  0.00  0.00    +0.041 C 
ENDROOT
BRANCH   1  13
ATOM     12  N   UNL     1       0.059  -4.170  -0.021  0.00  0.00    -0.284 N 
ATOM     13  C   UNL     1      -0.040  -4.839  -1.187  0.00  0.00    +0.235 C 
ATOM     14  O   UNL     1      -0.054  -4.230  -2.236  0.00  0.00    -0.274 OA
ATOM     15  H   UNL     1       0.135  -4.658   0.814  0.00  0.00    +0.155 HD
BRANCH  12  20
ATOM     16  C   UNL     1       0.025   1.503   0.005  0.00  0.00    +0.044 C 
ATOM     17  C   UNL     1       0.034  -0.004  -0.002  0.00  0.00    -0.050 A 
ATOM     18  C   UNL     1       0.632  -0.685  -1.046  0.00  0.00    +0.005 A 
ATOM     19  C   UNL     1       0.641  -2.066  -1.055  0.00  0.00    +0.024 A 
ATOM     20  C   UNL     1       0.051  -2.771  -0.014  0.00  0.00    +0.036 A 
ATOM     21  C   UNL     1      -0.548  -2.083   1.033  0.00  0.00    -0.029 A 
ATOM     22  C   UNL     1      -0.550  -0.702   1.039  0.00  0.00    +0.008 A 
ATOM     23  C   UNL     1      -1.190  -2.843   2.165  0.00  0.00    +0.045 C 
ENDBRANCH  12  20
ENDBRANCH   1  13
BRANCH   6  24
ATOM     24  C   UNL     1       2.287 -10.097  -5.699  0.00  0.00    +0.150 C 
BRANCH  24  25
ATOM     25  S   UNL     1       1.350 -10.658  -7.147  0.00  0.00    -0.090 S 
BRANCH  25  26
ATOM     26  C   UNL     1       2.499 -11.652  -8.040  0.00  0.00    +0.151 C 
ATOM     27  N   UNL     1       3.729 -11.926  -7.729  0.00  0.00    -0.171 NA
ATOM     28  N   UNL     1       4.544 -12.721  -8.504  0.00  0.00    -0.241 N 
ATOM     29  C   UNL     1       3.920 -13.254  -9.736  0.00  0.00    +0.222 C 
ATOM     30  S   UNL     1       2.239 -12.523  -9.576  0.00  0.00    -0.058 S 
ATOM     31  H   UNL     1       5.462 -12.917  -8.259  0.00  0.00    +0.171 HD
BRANCH  29  32
ATOM     32  N   UNL     1       3.865 -14.722  -9.715  0.00  0.00    -0.292 NA
ATOM     33  C   UNL     1       3.584 -15.257 -11.054  0.00  0.00    +0.103 C 
ATOM     34  H   UNL     1       4.718 -15.111  -9.342  0.00  0.00    +0.124 HD
ENDBRANCH  29  32
ENDBRANCH  25  26
ENDBRANCH  24  25
ENDBRANCH   6  24
TORSDOF 6
