REMARK  Name = ZINC34686408
REMARK  13 active torsions:
REMARK  status: ('A' for Active; 'I' for Inactive)
REMARK    1  A    between atoms: C_1  and  C_2
REMARK    2  A    between atoms: C_2  and  C_3
REMARK    3  A    between atoms: C_3  and  C_5
REMARK    4  A    between atoms: C_3  and  O_15
REMARK    5  A    between atoms: N_7  and  C_8
REMARK    6  A    between atoms: C_8  and  C_9
REMARK    7  A    between atoms: C_9  and  N_10
REMARK    8  A    between atoms: O_15  and  C_16
REMARK    9  A    between atoms: C_22  and  C_33
REMARK   10  A    between atoms: C_27  and  C_29
REMARK   11  A    between atoms: C_29  and  C_30
REMARK   12  A    between atoms: C_30  and  C_31
REMARK   13  A    between atoms: C_30  and  C_32
REMARK                            x       y       z     vdW  Elec       q    Type
REMARK                         _______ _______ _______ _____ _____    ______ ____
ROOT
ATOM      1  C   UNL     1       2.412   1.137   1.643  0.00  0.00    +0.122 A 
ATOM      2  C   UNL     1       1.441   1.923   2.247  0.00  0.00    +0.046 A 
ATOM      3  C   UNL     1       1.764   3.184   2.698  0.00  0.00    +0.007 A 
ATOM      4  C   UNL     1       3.056   3.678   2.557  0.00  0.00    -0.040 A 
ATOM      5  C   UNL     1       4.023   2.895   1.967  0.00  0.00    -0.016 A 
ATOM      6  C   UNL     1       3.701   1.625   1.509  0.00  0.00    +0.051 A 
ATOM      7  C   UNL     1       5.450   3.357   1.809  0.00  0.00    +0.137 C 
ATOM      8  N   UNL     1       5.540   4.792   2.103  0.00  0.00    -0.290 N 
ATOM      9  C   UNL     1       4.824   5.284   3.292  0.00  0.00    +0.113 C 
ATOM     10  C   UNL     1       3.329   5.071   3.061  0.00  0.00    +0.054 C 
ATOM     11  C   UNL     1       6.250   5.625   1.317  0.00  0.00    +0.217 C 
ATOM     12  O   UNL     1       6.830   5.194   0.344  0.00  0.00    -0.276 OA
ENDROOT
BRANCH   7  13
ATOM     13  C   UNL     1       6.333   2.594   2.762  0.00  0.00    -0.020 A 
ATOM     14  C   UNL     1       7.438   1.913   2.286  0.00  0.00    +0.006 A 
ATOM     15  C   UNL     1       8.248   1.212   3.159  0.00  0.00    +0.003 A 
ATOM     16  C   UNL     1       7.955   1.192   4.510  0.00  0.00    +0.038 A 
ATOM     17  C   UNL     1       6.849   1.873   4.988  0.00  0.00    +0.124 A 
ATOM     18  C   UNL     1       6.041   2.580   4.113  0.00  0.00    +0.044 A 
ATOM     19  F   UNL     1       6.561   1.854   6.308  0.00  0.00    -0.205 F 
ENDBRANCH   7  13
BRANCH   1  20
ATOM     20  O   UNL     1       2.102  -0.106   1.190  0.00  0.00    -0.480 OA
BRANCH  20  21
ATOM     21  C   UNL     1       0.737  -0.513   1.297  0.00  0.00    +0.258 C 
BRANCH  21  22
ATOM     22  C   UNL     1       0.674  -1.992   1.581  0.00  0.00    +0.254 C 
ATOM     23  O   UNL     1       1.692  -2.651   1.592  0.00  0.00    -0.272 OA
ATOM     24  N   UNL     1      -0.513  -2.582   1.823  0.00  0.00    -0.314 N 
ATOM     25  H   UNL     1      -1.327  -2.055   1.814  0.00  0.00    +0.149 HD
BRANCH  24  26
ATOM     26  C   UNL     1      -0.574  -4.020   2.099  0.00  0.00    +0.086 C 
BRANCH  26  27
ATOM     27  C   UNL     1      -2.028  -4.433   2.338  0.00  0.00    -0.060 C 
BRANCH  27  28
ATOM     28  N   UNL     1      -2.088  -5.874   2.615  0.00  0.00    +0.381 N 
ATOM     29  C   UNL     1      -1.464  -6.169   3.930  0.00  0.00    -0.079 C 
ATOM     30  C   UNL     1      -2.088  -7.533   4.320  0.00  0.00    -0.020 C 
ATOM     31  C   UNL     1      -3.542  -7.406   3.812  0.00  0.00    -0.020 C 
ATOM     32  C   UNL     1      -3.496  -6.312   2.729  0.00  0.00    -0.079 C 
ATOM     33  H   UNL     1      -1.621  -6.389   1.883  0.00  0.00    -0.082 HD
ENDBRANCH  27  28
ENDBRANCH  26  27
ENDBRANCH  24  26
ENDBRANCH  21  22
BRANCH  21  35
ATOM     34  C   UNL     1      -0.035   1.297  -0.243  0.00  0.00    +0.008 C 
ATOM     35  C   UNL     1       0.011  -0.216  -0.017  0.00  0.00    +0.051 C 
ENDBRANCH  21  35
ENDBRANCH  20  21
ENDBRANCH   1  20
BRANCH  11  36
ATOM     36  C   UNL     1       6.322   7.094   1.649  0.00  0.00    +0.099 C 
BRANCH  36  37
ATOM     37  C   UNL     1       7.183   7.810   0.606  0.00  0.00    -0.008 C 
ATOM     38  C   UNL     1       7.155   9.317   0.870  0.00  0.00    +0.008 C 
ATOM     39  C   UNL     1       8.624   7.303   0.700  0.00  0.00    +0.008 C 
ENDBRANCH  36  37
ENDBRANCH  11  36
TORSDOF 10
