REMARK  Name = ZINC20610887
REMARK  6 active torsions:
REMARK  status: ('A' for Active; 'I' for Inactive)
REMARK    1  A    between atoms: C_1  and  C_2
REMARK    2  A    between atoms: C_5  and  N_9
REMARK    3  A    between atoms: C_6  and  C_8
REMARK    4  A    between atoms: C_12  and  C_19
REMARK    5  A    between atoms: C_25  and  O_31
REMARK    6  A    between atoms: O_31  and  C_32
REMARK                            x       y       z     vdW  Elec       q    Type
REMARK                         _______ _______ _______ _____ _____    ______ ____
ROOT
ATOM      1  N   UNL     1       0.059  -4.172  -0.021  0.00  0.00    -0.229 N 
ATOM      2  C   UNL     1      -1.103  -4.856  -0.024  0.00  0.00    +0.267 A 
ATOM      3  O   UNL     1      -2.166  -4.260  -0.020  0.00  0.00    -0.267 OA
ATOM      4  C   UNL     1      -1.079  -6.262  -0.032  0.00  0.00    +0.073 A 
ATOM      5  C   UNL     1       0.124  -6.904  -0.037  0.00  0.00    +0.260 A 
ATOM      6  N   UNL     1       1.282  -6.169  -0.033  0.00  0.00    -0.274 N 
ATOM      7  H   UNL     1       2.140  -6.621  -0.037  0.00  0.00    +0.173 HD
ATOM      8  C   UNL     1       1.236  -4.824  -0.031  0.00  0.00    +0.337 A 
ATOM      9  O   UNL     1       2.272  -4.189  -0.033  0.00  0.00    -0.246 OA
ATOM     10  O   UNL     1       0.174  -8.253  -0.044  0.00  0.00    -0.267 OA
ENDROOT
BRANCH   4  11
ATOM     11  C   UNL     1      -2.365  -7.047  -0.035  0.00  0.00    +0.018 C 
ATOM     12  C   UNL     1      -3.114  -6.799   1.252  0.00  0.00    +0.011 A 
ATOM     13  C   UNL     1      -4.450  -6.596   1.298  0.00  0.00    -0.022 A 
ATOM     14  C   UNL     1      -4.806  -6.392   2.684  0.00  0.00    +0.006 A 
ATOM     15  C   UNL     1      -6.023  -6.140   3.326  0.00  0.00    +0.056 A 
ATOM     16  C   UNL     1      -5.984  -5.995   4.705  0.00  0.00    +0.121 A 
ATOM     17  C   UNL     1      -4.796  -6.095   5.419  0.00  0.00    +0.047 A 
ATOM     18  C   UNL     1      -3.583  -6.344   4.801  0.00  0.00    +0.030 A 
ATOM     19  C   UNL     1      -3.595  -6.494   3.416  0.00  0.00    +0.047 A 
ATOM     20  N   UNL     1      -2.594  -6.742   2.516  0.00  0.00    -0.359 N 
ATOM     21  H   UNL     1      -1.658  -6.858   2.741  0.00  0.00    +0.166 HD
ATOM     22  C   UNL     1      -5.329  -6.603   0.072  0.00  0.00    +0.018 C 
ATOM     23  C   UNL     1      -4.532  -7.241  -1.074  0.00  0.00    -0.076 C 
ATOM     24  N   UNL     1      -3.205  -6.614  -1.162  0.00  0.00    +0.388 N 
ATOM     25  H   UNL     1      -3.309  -5.611  -1.136  0.00  0.00    -0.084 HD
ATOM     26  H   UNL     1      -2.764  -6.880  -2.030  0.00  0.00    -0.084 HD
BRANCH  16  27
ATOM     27  O   UNL     1      -7.140  -5.748   5.377  0.00  0.00    -0.495 OA
ATOM     28  C   UNL     1      -7.048  -5.607   6.796  0.00  0.00    +0.277 C 
ENDBRANCH  16  27
ENDBRANCH   4  11
BRANCH   1  33
ATOM     29  C   UNL     1      -0.018   1.503   0.010  0.00  0.00    +0.044 C 
ATOM     30  C   UNL     1       0.002  -0.004   0.002  0.00  0.00    -0.050 A 
ATOM     31  C   UNL     1       0.006  -0.688  -1.200  0.00  0.00    +0.005 A 
ATOM     32  C   UNL     1       0.025  -2.068  -1.211  0.00  0.00    +0.027 A 
ATOM     33  C   UNL     1       0.040  -2.771  -0.013  0.00  0.00    +0.057 A 
ATOM     34  C   UNL     1       0.037  -2.082   1.192  0.00  0.00    -0.026 A 
ATOM     35  C   UNL     1       0.023  -0.700   1.196  0.00  0.00    +0.008 A 
ATOM     36  C   UNL     1       0.054  -2.840   2.494  0.00  0.00    +0.046 C 
ENDBRANCH   1  33
TORSDOF 3
