REMARK  Name = ZINC54156148
REMARK  7 active torsions:
REMARK  status: ('A' for Active; 'I' for Inactive)
REMARK    1  A    between atoms: C_1  and  C_2
REMARK    2  A    between atoms: C_2  and  C_4
REMARK    3  A    between atoms: C_2  and  C_16
REMARK    4  A    between atoms: C_4  and  N_5
REMARK    5  A    between atoms: N_5  and  S_6
REMARK    6  A    between atoms: S_6  and  C_9
REMARK    7  A    between atoms: N_17  and  O_18
REMARK                            x       y       z     vdW  Elec       q    Type
REMARK                         _______ _______ _______ _____ _____    ______ ____
ROOT
ATOM      1  N   UNL     1      -0.074  -0.021   2.533  0.00  0.00    -0.189 NA
ATOM      2  H   UNL     1      -0.800   0.621   2.556  0.00  0.00    +0.148 HD
ENDROOT
BRANCH   1   3
ATOM      3  S   UNL     1       0.255  -0.947   3.866  0.00  0.00    +0.059 S 
ATOM      4  O   UNL     1      -0.663  -0.548   4.874  0.00  0.00    -0.153 OA
ATOM      5  O   UNL     1       0.353  -2.290   3.413  0.00  0.00    -0.153 OA
BRANCH   3   6
ATOM      6  C   UNL     1       1.858  -0.490   4.435  0.00  0.00    +0.119 A 
ATOM      7  C   UNL     1       2.888  -1.412   4.415  0.00  0.00    +0.029 A 
ATOM      8  C   UNL     1       4.146  -1.053   4.862  0.00  0.00    +0.002 A 
ATOM      9  C   UNL     1       4.375   0.228   5.328  0.00  0.00    +0.001 A 
ATOM     10  C   UNL     1       3.346   1.151   5.349  0.00  0.00    +0.017 A 
ATOM     11  C   UNL     1       2.088   0.793   4.897  0.00  0.00    +0.044 A 
ATOM     12 BR   UNL     1       0.682   2.057   4.919  0.00  0.00    -0.048 Br
ENDBRANCH   3   6
ENDBRANCH   1   3
BRANCH   1  13
ATOM     13  C   UNL     1       0.733  -0.172   1.319  0.00  0.00    +0.116 C 
BRANCH  13  15
ATOM     14  C   UNL     1      -0.073   2.001   0.386  0.00  0.00    +0.017 C 
ATOM     15  C   UNL     1       0.014   0.493   0.143  0.00  0.00    +0.068 C 
BRANCH  15  16
ATOM     16  C   UNL     1       0.782   0.232  -1.127  0.00  0.00    +0.136 C 
ATOM     17  N   UNL     1       1.635   1.102  -1.556  0.00  0.00    -0.076 NA
ATOM     18  N   UNL     1       0.573  -0.933  -1.831  0.00  0.00    -0.344 N 
ATOM     19  H   UNL     1      -0.068  -1.586  -1.508  0.00  0.00    +0.144 HD
ATOM     20  H   UNL     1       1.067  -1.101  -2.648  0.00  0.00    +0.144 HD
BRANCH  17  21
ATOM     21  O   UNL     1       2.357   0.857  -2.750  0.00  0.00    -0.408 OA
ATOM     22  H   UNL     1       2.971   1.564  -2.990  0.00  0.00    +0.328 HD
ENDBRANCH  17  21
ENDBRANCH  15  16
ENDBRANCH  13  15
ENDBRANCH   1  13
TORSDOF 6
