REMARK  Name = ZINC48731562
REMARK  6 active torsions:
REMARK  status: ('A' for Active; 'I' for Inactive)
REMARK    1  A    between atoms: C_3  and  N_9
REMARK    2  A    between atoms: C_10  and  C_12
REMARK    3  A    between atoms: N_14  and  C_15
REMARK    4  A    between atoms: C_15  and  C_16
REMARK    5  A    between atoms: C_16  and  C_18
REMARK    6  A    between atoms: C_16  and  N_23
REMARK                            x       y       z     vdW  Elec       q    Type
REMARK                         _______ _______ _______ _____ _____    ______ ____
ROOT
ATOM      1  C   UNL     1       6.722   4.609   1.639  0.00  0.00    +0.299 C 
ATOM      2  O   UNL     1       6.637   3.782   0.755  0.00  0.00    -0.265 OA
ATOM      3  N   UNL     1       6.288   5.867   1.429  0.00  0.00    -0.309 N 
ATOM      4  H   UNL     1       6.356   6.529   2.136  0.00  0.00    +0.149 HD
ENDROOT
BRANCH   1   6
ATOM      5  N   UNL     1       7.744   2.974   3.170  0.00  0.00    -0.275 N 
ATOM      6  C   UNL     1       7.309   4.232   2.960  0.00  0.00    +0.303 C 
ATOM      7  O   UNL     1       7.395   5.059   3.844  0.00  0.00    -0.265 OA
ATOM      8  H   UNL     1       7.747   2.334   2.441  0.00  0.00    +0.155 HD
BRANCH   5  11
ATOM      9  C   UNL     1       8.187   2.888   6.819  0.00  0.00    +0.003 A 
ATOM     10  C   UNL     1       7.745   3.269   5.566  0.00  0.00    +0.026 A 
ATOM     11  C   UNL     1       8.189   2.591   4.439  0.00  0.00    +0.071 A 
ATOM     12  C   UNL     1       9.078   1.529   4.575  0.00  0.00    +0.163 A 
ATOM     13  C   UNL     1       9.516   1.153   5.832  0.00  0.00    +0.078 A 
ATOM     14  C   UNL     1       9.070   1.833   6.953  0.00  0.00    +0.023 A 
ATOM     15 CL   UNL     1      10.624  -0.171   6.005  0.00  0.00    -0.081 Cl
ATOM     16  F   UNL     1       9.512   0.866   3.481  0.00  0.00    -0.202 F 
ENDBRANCH   5  11
ENDBRANCH   1   6
BRANCH   3  17
ATOM     17  C   UNL     1       5.713   6.237   0.134  0.00  0.00    +0.097 C 
BRANCH  17  18
ATOM     18  C   UNL     1       5.417   7.738   0.116  0.00  0.00    +0.016 C 
BRANCH  18  19
ATOM     19  N   UNL     1       4.553   8.081   1.254  0.00  0.00    +0.387 N 
ATOM     20  C   UNL     1       3.343   7.250   1.214  0.00  0.00    -0.078 C 
ATOM     21  C   UNL     1       2.477   7.545   2.441  0.00  0.00    -0.019 C 
ATOM     22  C   UNL     1       2.083   9.025   2.436  0.00  0.00    -0.004 C 
ATOM     23  C   UNL     1       3.352   9.881   2.402  0.00  0.00    -0.019 C 
ATOM     24  C   UNL     1       4.185   9.500   1.177  0.00  0.00    -0.078 C 
ATOM     25  H   UNL     1       5.048   7.909   2.115  0.00  0.00    -0.081 HD
ENDBRANCH  18  19
BRANCH  18  26
ATOM     26  C   UNL     1       6.710   8.506   0.220  0.00  0.00    +0.093 A 
ATOM     27  C   UNL     1       7.369   9.078  -0.804  0.00  0.00    +0.043 A 
ATOM     28  C   UNL     1       8.523   9.686  -0.259  0.00  0.00    +0.041 A 
ATOM     29  C   UNL     1       8.500   9.450   1.065  0.00  0.00    +0.195 A 
ATOM     30  O   UNL     1       7.397   8.739   1.350  0.00  0.00    -0.469 OA
ENDBRANCH  18  26
ENDBRANCH  17  18
ENDBRANCH   3  17
TORSDOF 6
