REMARK  Name = ZINC10157096
REMARK  4 active torsions:
REMARK  status: ('A' for Active; 'I' for Inactive)
REMARK    1  A    between atoms: C_1  and  C_2
REMARK    2  A    between atoms: C_3  and  C_19
REMARK    3  A    between atoms: C_4  and  C_12
REMARK    4  A    between atoms: C_17  and  O_18
REMARK                            x       y       z     vdW  Elec       q    Type
REMARK                         _______ _______ _______ _____ _____    ______ ____
ROOT
ATOM      1  C   UNL     1      -0.059   1.089  -0.042  0.00  0.00    +0.061 C 
ATOM      2  C   UNL     1      -0.735   1.565   1.218  0.00  0.00    +0.018 C 
ATOM      3  C   UNL     1      -0.835   2.883   1.440  0.00  0.00    +0.060 C 
ATOM      4  C   UNL     1      -1.486   3.463   2.668  0.00  0.00    +0.181 C 
ATOM      5  N   UNL     1      -2.200   2.410   3.384  0.00  0.00    -0.221 N 
ATOM      6  C   UNL     1      -2.062   1.089   3.110  0.00  0.00    +0.218 A 
ATOM      7  N   UNL     1      -2.826   0.424   3.933  0.00  0.00    -0.201 NA
ATOM      8  C   UNL     1      -3.467   1.279   4.737  0.00  0.00    +0.247 A 
ATOM      9  N   UNL     1      -3.114   2.504   4.433  0.00  0.00    -0.156 NA
ATOM     10  N   UNL     1      -1.222   0.634   2.102  0.00  0.00    -0.287 N 
ATOM     11  H   UNL     1      -0.989  -0.304   2.026  0.00  0.00    +0.155 HD
ENDROOT
BRANCH   3  12
ATOM     12  C   UNL     1      -0.310   3.772   0.472  0.00  0.00    +0.246 C 
ATOM     13  O   UNL     1       0.806   4.238   0.616  0.00  0.00    -0.270 OA
ATOM     14  N   UNL     1      -1.045   4.103  -0.608  0.00  0.00    -0.298 N 
ATOM     15  C   UNL     1      -2.434   3.641  -0.739  0.00  0.00    +0.108 C 
ATOM     16  C   UNL     1      -3.333   4.861  -0.991  0.00  0.00    +0.019 C 
ATOM     17  C   UNL     1      -2.809   5.630  -2.207  0.00  0.00    +0.003 C 
ATOM     18  C   UNL     1      -1.390   6.128  -1.925  0.00  0.00    +0.019 C 
ATOM     19  C   UNL     1      -0.471   4.928  -1.680  0.00  0.00    +0.108 C 
ENDBRANCH   3  12
BRANCH   4  20
ATOM     20  C   UNL     1      -0.424   4.048   3.564  0.00  0.00    +0.023 A 
ATOM     21  C   UNL     1       0.520   3.224   4.146  0.00  0.00    +0.009 A 
ATOM     22  C   UNL     1       1.494   3.760   4.967  0.00  0.00    +0.001 A 
ATOM     23  C   UNL     1       1.526   5.122   5.209  0.00  0.00    +0.004 A 
ATOM     24  C   UNL     1       0.585   5.949   4.629  0.00  0.00    +0.046 A 
ATOM     25  C   UNL     1      -0.391   5.414   3.800  0.00  0.00    +0.122 A 
BRANCH  25  26
ATOM     26  O   UNL     1      -1.316   6.227   3.224  0.00  0.00    -0.506 OA
ATOM     27  H   UNL     1      -2.113   6.354   3.756  0.00  0.00    +0.292 HD
ENDBRANCH  25  26
ENDBRANCH   4  20
TORSDOF 3
