REMARK  Name = ZINC35999707
REMARK  7 active torsions:
REMARK  status: ('A' for Active; 'I' for Inactive)
REMARK    1  A    between atoms: C_3  and  C_19
REMARK    2  A    between atoms: C_6  and  C_7
REMARK    3  A    between atoms: C_7  and  N_8
REMARK    4  A    between atoms: C_12  and  C_15
REMARK    5  A    between atoms: C_24  and  C_26
REMARK    6  A    between atoms: C_26  and  C_27
REMARK    7  A    between atoms: C_27  and  N_28
REMARK                            x       y       z     vdW  Elec       q    Type
REMARK                         _______ _______ _______ _____ _____    ______ ____
ROOT
ATOM      1  C   UNL     1      -0.017   1.379   0.010  0.00  0.00    +0.002 A 
ATOM      2  C   UNL     1       1.167   2.088   0.002  0.00  0.00    +0.012 A 
ATOM      3  C   UNL     1       2.384   1.407  -0.013  0.00  0.00    +0.019 A 
ATOM      4  C   UNL     1       2.397   0.014  -0.021  0.00  0.00    +0.012 A 
ATOM      5  C   UNL     1       1.206  -0.685  -0.013  0.00  0.00    +0.002 A 
ATOM      6  C   UNL     1       0.002  -0.004   0.002  0.00  0.00    -0.064 A 
ENDROOT
BRANCH   3   7
ATOM      7  C   UNL     1       3.660   2.164  -0.022  0.00  0.00    +0.164 A 
ATOM      8  N   UNL     1       3.626   3.489  -0.009  0.00  0.00    -0.189 NA
ATOM      9  C   UNL     1       4.750   4.194  -0.016  0.00  0.00    +0.274 A 
ATOM     10  O   UNL     1       4.711   5.549  -0.003  0.00  0.00    -0.266 OA
ATOM     11  C   UNL     1       5.972   3.522  -0.037  0.00  0.00    +0.095 A 
ATOM     12  C   UNL     1       5.964   2.139  -0.049  0.00  0.00    +0.047 A 
ATOM     13  N   UNL     1       4.806   1.498  -0.036  0.00  0.00    -0.232 NA
BRANCH  12  14
ATOM     14  C   UNL     1       7.260   1.370  -0.072  0.00  0.00    +0.036 C 
BRANCH  14  15
ATOM     15  C   UNL     1       7.290   0.387   1.101  0.00  0.00    -0.080 C 
BRANCH  15  16
ATOM     16  N   UNL     1       8.554  -0.362   1.078  0.00  0.00    +0.378 N 
ATOM     17  H   UNL     1       8.574  -1.010   1.851  0.00  0.00    -0.090 HD
ATOM     18  H   UNL     1       8.627  -0.872   0.210  0.00  0.00    -0.090 HD
ATOM     19  H   UNL     1       9.328   0.281   1.158  0.00  0.00    -0.090 HD
ENDBRANCH  15  16
ENDBRANCH  14  15
ENDBRANCH  12  14
ENDBRANCH   3   7
BRANCH   6  20
ATOM     20  C   UNL     1      -1.294  -0.772   0.011  0.00  0.00    -0.043 C 
BRANCH  20  21
ATOM     21  N   UNL     1      -1.729  -1.015  -1.371  0.00  0.00    +0.383 N 
ATOM     22  C   UNL     1      -2.032   0.267  -2.019  0.00  0.00    -0.078 C 
ATOM     23  C   UNL     1      -2.408   0.027  -3.483  0.00  0.00    -0.018 C 
ATOM     24  C   UNL     1      -3.639  -0.882  -3.546  0.00  0.00    +0.008 C 
ATOM     25  C   UNL     1      -3.336  -2.186  -2.803  0.00  0.00    +0.077 C 
ATOM     26  C   UNL     1      -2.926  -1.864  -1.364  0.00  0.00    -0.066 C 
ATOM     27  H   UNL     1      -0.991  -1.479  -1.879  0.00  0.00    -0.081 HD
BRANCH  25  28
ATOM     28  C   UNL     1      -4.585  -3.070  -2.793  0.00  0.00    +0.391 C 
ATOM     29  F   UNL     1      -4.961  -3.360  -4.109  0.00  0.00    -0.171 F 
ATOM     30  F   UNL     1      -4.308  -4.262  -2.114  0.00  0.00    -0.171 F 
ATOM     31  F   UNL     1      -5.628  -2.397  -2.147  0.00  0.00    -0.171 F 
ENDBRANCH  25  28
ENDBRANCH  20  21
ENDBRANCH   6  20
TORSDOF 7
