REMARK  Name = ZINC54201397
REMARK  10 active torsions:
REMARK  status: ('A' for Active; 'I' for Inactive)
REMARK    1  A    between atoms: C_1  and  C_2
REMARK    2  A    between atoms: C_2  and  C_3
REMARK    3  A    between atoms: C_2  and  C_4
REMARK    4  A    between atoms: C_2  and  C_5
REMARK    5  A    between atoms: C_8  and  C_11
REMARK    6  A    between atoms: C_19  and  C_32
REMARK    7  A    between atoms: C_22  and  C_24
REMARK    8  A    between atoms: C_27  and  O_30
REMARK    9  A    between atoms: O_30  and  C_31
REMARK   10  A    between atoms: C_37  and  O_38
REMARK                            x       y       z     vdW  Elec       q    Type
REMARK                         _______ _______ _______ _____ _____    ______ ____
ROOT
ATOM      1  C   UNL     1       2.693  -1.859  -4.726  0.00  0.00    +0.028 C 
ATOM      2  C   UNL     1       3.951  -1.435  -5.000  0.00  0.00    +0.079 C 
ATOM      3  C   UNL     1       4.800  -1.685  -6.191  0.00  0.00    +0.276 C 
ATOM      4  O   UNL     1       4.409  -2.360  -7.130  0.00  0.00    -0.267 OA
ATOM      5  N   UNL     1       5.994  -1.138  -6.180  0.00  0.00    -0.152 NA
ATOM      6  C   UNL     1       6.430  -0.403  -5.168  0.00  0.00    +0.174 C 
ATOM      7  S   UNL     1       5.053  -0.413  -4.030  0.00  0.00    -0.050 S 
ATOM      8  N   UNL     1       7.641   0.219  -5.029  0.00  0.00    -0.195 N 
ATOM      9  C   UNL     1       8.733   0.197  -6.016  0.00  0.00    +0.139 C 
ATOM     10  C   UNL     1       9.837   1.045  -5.354  0.00  0.00    +0.087 C 
ATOM     11  C   UNL     1       9.232   1.463  -4.033  0.00  0.00    +0.069 C 
ATOM     12  N   UNL     1       8.040   0.982  -3.933  0.00  0.00    -0.182 NA
ENDROOT
BRANCH   1  16
ATOM     13  C   UNL     1       1.025  -1.205  -0.882  0.00  0.00    -0.042 A 
ATOM     14  C   UNL     1       0.227  -1.687  -1.906  0.00  0.00    +0.005 A 
ATOM     15  C   UNL     1       0.762  -1.902  -3.158  0.00  0.00    +0.008 A 
ATOM     16  C   UNL     1       2.114  -1.631  -3.394  0.00  0.00    -0.024 A 
ATOM     17  C   UNL     1       2.914  -1.144  -2.354  0.00  0.00    +0.008 A 
ATOM     18  C   UNL     1       2.362  -0.929  -1.109  0.00  0.00    +0.005 A 
BRANCH  13  20
ATOM     19  C   UNL     1       0.576   0.504   0.858  0.00  0.00    +0.015 C 
ATOM     20  C   UNL     1       0.432  -0.973   0.484  0.00  0.00    -0.013 C 
ATOM     21  C   UNL     1       1.169  -1.834   1.512  0.00  0.00    +0.015 C 
ATOM     22  C   UNL     1      -1.050  -1.353   0.468  0.00  0.00    +0.015 C 
ENDBRANCH  13  20
ENDBRANCH   1  16
BRANCH  11  23
ATOM     23  C   UNL     1       9.899   2.298  -3.018  0.00  0.00    -0.002 A 
ATOM     24  C   UNL     1      11.194   2.774  -3.243  0.00  0.00    +0.013 A 
ATOM     25  C   UNL     1      11.814   3.555  -2.292  0.00  0.00    +0.046 A 
ATOM     26  C   UNL     1      11.154   3.869  -1.110  0.00  0.00    +0.120 A 
ATOM     27  C   UNL     1       9.867   3.398  -0.882  0.00  0.00    +0.046 A 
ATOM     28  C   UNL     1       9.238   2.621  -1.830  0.00  0.00    +0.013 A 
BRANCH  26  29
ATOM     29  O   UNL     1      11.770   4.638  -0.175  0.00  0.00    -0.495 OA
ATOM     30  C   UNL     1      11.034   4.923   1.017  0.00  0.00    +0.277 C 
ENDBRANCH  26  29
ENDBRANCH  11  23
BRANCH   9  31
ATOM     31  C   UNL     1       8.287   0.820  -7.314  0.00  0.00    +0.017 A 
ATOM     32  C   UNL     1       7.244   1.726  -7.323  0.00  0.00    +0.009 A 
ATOM     33  C   UNL     1       6.834   2.297  -8.514  0.00  0.00    +0.001 A 
ATOM     34  C   UNL     1       7.468   1.964  -9.697  0.00  0.00    +0.004 A 
ATOM     35  C   UNL     1       8.511   1.060  -9.693  0.00  0.00    +0.046 A 
ATOM     36  C   UNL     1       8.928   0.489  -8.498  0.00  0.00    +0.122 A 
BRANCH  36  37
ATOM     37  O   UNL     1       9.958  -0.397  -8.491  0.00  0.00    -0.506 OA
ATOM     38  H   UNL     1       9.687  -1.318  -8.611  0.00  0.00    +0.292 HD
ENDBRANCH  36  37
ENDBRANCH   9  31
TORSDOF 6
