REMARK  Name = ZINC07260410
REMARK  6 active torsions:
REMARK  status: ('A' for Active; 'I' for Inactive)
REMARK    1  A    between atoms: C_1  and  C_2
REMARK    2  A    between atoms: C_5  and  C_12
REMARK    3  A    between atoms: C_9  and  C_10
REMARK    4  A    between atoms: C_9  and  C_11
REMARK    5  A    between atoms: N_14  and  C_15
REMARK    6  A    between atoms: C_20  and  N_21
REMARK                            x       y       z     vdW  Elec       q    Type
REMARK                         _______ _______ _______ _____ _____    ______ ____
ROOT
ATOM      1  C   UNL     1       1.250  -2.892  -0.235  0.00  0.00    +0.225 C 
ATOM      2  O   UNL     1       2.096  -3.007  -1.097  0.00  0.00    -0.275 OA
ATOM      3  N   UNL     1       1.060  -3.882   0.659  0.00  0.00    -0.283 N 
ATOM      4  H   UNL     1       0.331  -3.827   1.297  0.00  0.00    +0.155 HD
ENDROOT
BRANCH   1   9
ATOM      5  C   UNL     1      -0.016   1.871  -0.071  0.00  0.00    +0.013 C 
ATOM      6  C   UNL     1      -0.120   0.344  -0.096  0.00  0.00    -0.013 C 
ATOM      7  C   UNL     1      -1.540  -0.299   0.062  0.00  0.00    +0.009 C 
ATOM      8  C   UNL     1      -1.138  -1.804   0.010  0.00  0.00    +0.018 C 
ATOM      9  C   UNL     1       0.411  -1.642  -0.165  0.00  0.00    +0.066 C 
ATOM     10  C   UNL     1       0.754  -0.520   0.847  0.00  0.00    +0.079 C 
ATOM     11 BR   UNL     1      -0.022  -0.805   2.631  0.00  0.00    -0.086 Br
ATOM     12  C   UNL     1       0.660  -0.465  -1.176  0.00  0.00    -0.013 C 
ATOM     13  C   UNL     1       2.125  -0.055  -1.336  0.00  0.00    +0.012 C 
ATOM     14  C   UNL     1      -0.078  -0.616  -2.508  0.00  0.00    +0.012 C 
ENDBRANCH   1   9
BRANCH   3  15
ATOM     15  C   UNL     1       1.914  -4.991   0.668  0.00  0.00    +0.064 A 
ATOM     16  C   UNL     1       3.261  -4.834   0.365  0.00  0.00    +0.025 A 
ATOM     17  C   UNL     1       4.101  -5.929   0.374  0.00  0.00    +0.002 A 
ATOM     18  C   UNL     1       3.603  -7.182   0.685  0.00  0.00    +0.002 A 
ATOM     19  C   UNL     1       2.263  -7.342   0.986  0.00  0.00    +0.034 A 
ATOM     20  C   UNL     1       1.419  -6.248   0.984  0.00  0.00    +0.147 A 
BRANCH  20  21
ATOM     21  N   UNL     1      -0.014  -6.419   1.313  0.00  0.00    +0.058 N 
ATOM     22  O   UNL     1      -0.464  -7.525   1.502  0.00  0.00    -0.126 OA
ATOM     23  O   UNL     1      -0.735  -5.452   1.394  0.00  0.00    -0.126 OA
ENDBRANCH  20  21
ENDBRANCH   3  15
TORSDOF 3
