REMARK  Name = ZINC08793211
REMARK  5 active torsions:
REMARK  status: ('A' for Active; 'I' for Inactive)
REMARK    1  A    between atoms: C_1  and  N_56
REMARK    2  A    between atoms: C_7  and  N_18
REMARK    3  A    between atoms: C_8  and  C_9
REMARK    4  A    between atoms: C_19  and  C_21
REMARK    5  A    between atoms: C_21  and  C_22
REMARK                            x       y       z     vdW  Elec       q    Type
REMARK                         _______ _______ _______ _____ _____    ______ ____
ROOT
ATOM      1  C   UNL     1       0.635  -1.932   1.324  0.00  0.00    -0.096 C 
ATOM      2  C   UNL     1       0.002  -0.004   0.002  0.00  0.00    -0.074 C 
ATOM      3  C   UNL     1      -0.019   1.527   0.010  0.00  0.00    +0.018 C 
ATOM      4  C   UNL     1       1.424   2.023  -0.001  0.00  0.00    -0.029 A 
ATOM      5  C   UNL     1       2.428   1.181   0.344  0.00  0.00    -0.021 A 
ATOM      6  S   UNL     1       3.902   2.150   0.192  0.00  0.00    -0.079 S 
ATOM      7  C   UNL     1       3.162   3.687  -0.333  0.00  0.00    +0.082 A 
ATOM      8  C   UNL     1       1.813   3.371  -0.364  0.00  0.00    +0.039 A 
ATOM      9  C   UNL     1       2.290  -0.250   0.757  0.00  0.00    -0.036 C 
ATOM     10  N   UNL     1       0.866  -0.489   1.097  0.00  0.00    +0.381 N 
ATOM     11  H   UNL     1       0.637   0.025   1.956  0.00  0.00    -0.082 HD
ENDROOT
BRANCH   8  12
ATOM     12  C   UNL     1       0.807   4.373  -0.754  0.00  0.00    +0.112 A 
ATOM     13  N   UNL     1      -0.501   4.240  -0.843  0.00  0.00    -0.239 NA
ATOM     14  C   UNL     1      -1.308   5.256  -1.212  0.00  0.00    +0.079 A 
ATOM     15  C   UNL     1      -2.717   5.248  -1.342  0.00  0.00    +0.029 A 
ATOM     16  C   UNL     1      -3.389   6.374  -1.738  0.00  0.00    +0.002 A 
ATOM     17  C   UNL     1      -2.720   7.555  -2.025  0.00  0.00    +0.001 A 
ATOM     18  C   UNL     1      -1.343   7.599  -1.909  0.00  0.00    +0.017 A 
ATOM     19  C   UNL     1      -0.660   6.476  -1.513  0.00  0.00    +0.040 A 
ATOM     20  S   UNL     1       1.049   6.077  -1.236  0.00  0.00    -0.067 S 
ENDBRANCH   8  12
BRANCH   7  21
ATOM     21  N   UNL     1       3.782   4.895  -0.634  0.00  0.00    -0.279 N 
ATOM     22  C   UNL     1       5.122   5.006  -0.542  0.00  0.00    +0.222 C 
ATOM     23  O   UNL     1       5.788   4.052  -0.198  0.00  0.00    -0.275 OA
ATOM     24  H   UNL     1       3.250   5.658  -0.909  0.00  0.00    +0.155 HD
BRANCH  22  25
ATOM     25  C   UNL     1       5.794   6.315  -0.869  0.00  0.00    +0.131 C 
BRANCH  25  26
ATOM     26  C   UNL     1       7.283   6.174  -0.689  0.00  0.00    -0.031 A 
ATOM     27  C   UNL     1       7.868   6.540   0.485  0.00  0.00    +0.005 A 
ATOM     28  C   UNL     1       9.244   6.417   0.670  0.00  0.00    +0.001 A 
ATOM     29  C   UNL     1      10.043   5.927  -0.318  0.00  0.00    +0.008 A 
ATOM     30  C   UNL     1       9.475   5.538  -1.542  0.00  0.00    -0.018 A 
ATOM     31  C   UNL     1       8.075   5.659  -1.729  0.00  0.00    -0.014 A 
ATOM     32  C   UNL     1       7.507   5.274  -2.956  0.00  0.00    +0.009 A 
ATOM     33  C   UNL     1       8.306   4.785  -3.943  0.00  0.00    +0.001 A 
ATOM     34  C   UNL     1       9.682   4.662  -3.758  0.00  0.00    +0.001 A 
ATOM     35  C   UNL     1      10.267   5.028  -2.585  0.00  0.00    +0.008 A 
ENDBRANCH  25  26
ENDBRANCH  22  25
ENDBRANCH   7  21
TORSDOF 4
