REMARK  Name = ZINC20850142
REMARK  8 active torsions:
REMARK  status: ('A' for Active; 'I' for Inactive)
REMARK    1  A    between atoms: C_1  and  C_2
REMARK    2  A    between atoms: C_5  and  C_8
REMARK    3  A    between atoms: C_13  and  C_17
REMARK    4  A    between atoms: C_13  and  C_18
REMARK    5  A    between atoms: C_23  and  S_25
REMARK    6  A    between atoms: S_25  and  C_26
REMARK    7  A    between atoms: C_26  and  C_27
REMARK    8  A    between atoms: C_30  and  N_33
REMARK                            x       y       z     vdW  Elec       q    Type
REMARK                         _______ _______ _______ _____ _____    ______ ____
ROOT
ATOM      1  C   UNL     1      -2.717   2.951   4.762  0.00  0.00    +0.175 C 
ATOM      2  C   UNL     1      -3.751   1.930   5.185  0.00  0.00    +0.041 C 
ATOM      3  C   UNL     1      -5.074   2.133   5.010  0.00  0.00    +0.020 C 
ATOM      4  C   UNL     1      -6.080   1.084   5.419  0.00  0.00    +0.058 C 
ATOM      5  C   UNL     1      -5.552   0.308   6.627  0.00  0.00    -0.023 C 
ATOM      6  C   UNL     1      -4.214  -0.331   6.243  0.00  0.00    +0.086 C 
ATOM      7  C   UNL     1      -3.275   0.745   5.775  0.00  0.00    +0.164 C 
ATOM      8  O   UNL     1      -2.077   0.588   5.910  0.00  0.00    -0.292 OA
ATOM      9  C   UNL     1      -5.348   1.263   7.805  0.00  0.00    +0.011 C 
ATOM     10  C   UNL     1      -6.552  -0.784   7.016  0.00  0.00    +0.011 C 
ATOM     11  N   UNL     1      -5.562   3.291   4.454  0.00  0.00    -0.287 N 
ATOM     12  C   UNL     1      -4.702   4.371   4.335  0.00  0.00    +0.219 A 
ATOM     13  N   UNL     1      -3.362   4.227   4.482  0.00  0.00    -0.220 N 
ATOM     14  N   UNL     1      -2.804   5.494   4.311  0.00  0.00    -0.141 NA
ATOM     15  C   UNL     1      -3.801   6.318   4.071  0.00  0.00    +0.211 A 
ATOM     16  N   UNL     1      -4.951   5.627   4.086  0.00  0.00    -0.187 NA
ATOM     17  H   UNL     1      -6.608   3.342   4.119  0.00  0.00    +0.155 HD
ENDROOT
BRANCH   1  22
ATOM     18  C   UNL     1      -0.013   1.086   0.008  0.00  0.00    +0.044 C 
ATOM     19  C   UNL     1      -0.718   1.572   1.248  0.00  0.00    -0.050 A 
ATOM     20  C   UNL     1      -2.083   1.789   1.226  0.00  0.00    +0.004 A 
ATOM     21  C   UNL     1      -2.731   2.230   2.365  0.00  0.00    +0.006 A 
ATOM     22  C   UNL     1      -2.012   2.464   3.522  0.00  0.00    -0.018 A 
ATOM     23  C   UNL     1      -0.646   2.252   3.542  0.00  0.00    +0.006 A 
ATOM     24  C   UNL     1       0.001   1.806   2.405  0.00  0.00    +0.004 A 
ENDBRANCH   1  22
BRANCH  15  25
ATOM     25  S   UNL     1      -3.651   8.049   3.778  0.00  0.00    -0.080 S 
BRANCH  25  26
ATOM     26  C   UNL     1      -5.360   8.600   3.519  0.00  0.00    +0.112 C 
BRANCH  26  27
ATOM     27  C   UNL     1      -5.374  10.084   3.254  0.00  0.00    -0.037 A 
ATOM     28  C   UNL     1      -5.497  10.972   4.306  0.00  0.00    +0.007 A 
ATOM     29  C   UNL     1      -5.505  12.333   4.064  0.00  0.00    +0.033 A 
ATOM     30  C   UNL     1      -5.401  12.805   2.768  0.00  0.00    +0.126 A 
ATOM     31  C   UNL     1      -5.284  11.916   1.716  0.00  0.00    +0.033 A 
ATOM     32  C   UNL     1      -5.270  10.555   1.959  0.00  0.00    +0.007 A 
BRANCH  30  33
ATOM     33  N   UNL     1      -5.416  14.262   2.508  0.00  0.00    +0.056 N 
ATOM     34  O   UNL     1      -5.325  14.678   1.367  0.00  0.00    -0.126 OA
ATOM     35  O   UNL     1      -5.520  15.045   3.435  0.00  0.00    -0.126 OA
ENDBRANCH  30  33
ENDBRANCH  26  27
ENDBRANCH  25  26
ENDBRANCH  15  25
TORSDOF 5
