REMARK  Name = ZINC12391447
REMARK  5 active torsions:
REMARK  status: ('A' for Active; 'I' for Inactive)
REMARK    1  A    between atoms: C_1  and  O_2
REMARK    2  A    between atoms: O_2  and  C_3
REMARK    3  A    between atoms: C_5  and  C_10
REMARK    4  A    between atoms: C_8  and  O_9
REMARK    5  A    between atoms: C_15  and  C_20
REMARK                            x       y       z     vdW  Elec       q    Type
REMARK                         _______ _______ _______ _____ _____    ______ ____
ROOT
ATOM      1  C   UNL     1      -1.294  -0.774   0.011  0.00  0.00    +0.137 C 
ATOM      2  C   UNL     1      -1.498  -1.344   1.399  0.00  0.00    +0.037 C 
ATOM      3  C   UNL     1      -1.415  -2.609   1.837  0.00  0.00    +0.019 C 
ATOM      4  C   UNL     1      -1.636  -2.950   3.301  0.00  0.00    +0.060 C 
ATOM      5  C   UNL     1      -1.163  -1.796   4.183  0.00  0.00    +0.039 C 
ATOM      6  C   UNL     1      -1.991  -0.564   3.796  0.00  0.00    +0.088 C 
ATOM      7  C   UNL     1      -1.824  -0.317   2.330  0.00  0.00    +0.163 C 
ATOM      8  O   UNL     1      -1.974   0.815   1.914  0.00  0.00    -0.292 OA
ATOM      9  N   UNL     1      -1.161  -3.695   1.052  0.00  0.00    -0.297 N 
ATOM     10  C   UNL     1      -0.192  -3.696   0.059  0.00  0.00    +0.208 A 
ATOM     11  C   UNL     1      -0.280  -2.745  -1.041  0.00  0.00    +0.205 A 
ATOM     12  N   UNL     1       0.686  -2.980  -1.873  0.00  0.00    -0.032 NA
ATOM     13  O   UNL     1       1.456  -4.048  -1.337  0.00  0.00    -0.239 OA
ATOM     14  N   UNL     1       0.854  -4.438  -0.110  0.00  0.00    -0.032 NA
ATOM     15  N   UNL     1      -1.252  -1.747  -1.066  0.00  0.00    -0.313 N 
ATOM     16  H   UNL     1      -1.679  -4.502   1.194  0.00  0.00    +0.153 HD
ATOM     17  H   UNL     1      -1.893  -1.703  -1.792  0.00  0.00    +0.149 HD
ENDROOT
BRANCH   1  20
ATOM     18  C   UNL     1       1.181   2.073  -0.208  0.00  0.00    +0.162 A 
ATOM     19  C   UNL     1      -0.009   1.363  -0.200  0.00  0.00    +0.055 A 
ATOM     20  C   UNL     1       0.002  -0.004   0.002  0.00  0.00    -0.019 A 
ATOM     21  C   UNL     1       1.200  -0.667   0.197  0.00  0.00    +0.009 A 
ATOM     22  C   UNL     1       2.391   0.034   0.189  0.00  0.00    +0.049 A 
ATOM     23  C   UNL     1       2.386   1.405  -0.013  0.00  0.00    +0.158 A 
BRANCH  18  25
ATOM     24  C   UNL     1      -0.102   4.036  -0.602  0.00  0.00    +0.277 C 
ATOM     25  O   UNL     1       1.172   3.418  -0.407  0.00  0.00    -0.491 OA
ENDBRANCH  18  25
BRANCH  23  26
ATOM     26  O   UNL     1       3.557   2.096  -0.020  0.00  0.00    -0.503 OA
ATOM     27  H   UNL     1       3.966   2.168  -0.894  0.00  0.00    +0.292 HD
ENDBRANCH  23  26
ENDBRANCH   1  20
BRANCH   5  28
ATOM     28  C   UNL     1      -1.387  -2.131   5.635  0.00  0.00    -0.006 A 
ATOM     29  C   UNL     1      -0.488  -2.187   6.647  0.00  0.00    +0.011 A 
ATOM     30  C   UNL     1      -0.925  -2.519   7.915  0.00  0.00    +0.008 A 
ATOM     31  C   UNL     1      -2.241  -2.779   8.109  0.00  0.00    +0.045 A 
ATOM     32  S   UNL     1      -2.909  -2.549   6.470  0.00  0.00    -0.101 S 
ENDBRANCH   5  28
TORSDOF 4
