REMARK  Name = ZINC62332825
REMARK  4 active torsions:
REMARK  status: ('A' for Active; 'I' for Inactive)
REMARK    1  A    between atoms: C_1  and  N_2
REMARK    2  A    between atoms: N_2  and  C_3
REMARK    3  A    between atoms: C_3  and  C_5
REMARK    4  A    between atoms: C_3  and  C_14
REMARK                            x       y       z     vdW  Elec       q    Type
REMARK                         _______ _______ _______ _____ _____    ______ ____
ROOT
ATOM      1  C   UNL     1      -1.376  -0.512   0.012  0.00  0.00    -0.009 C 
ENDROOT
BRANCH   1   2
ATOM      2  C   UNL     1      -2.067  -0.116  -1.267  0.00  0.00    -0.057 A 
ATOM      3  C   UNL     1      -1.384  -0.171  -2.467  0.00  0.00    +0.002 A 
ATOM      4  C   UNL     1      -2.017   0.192  -3.642  0.00  0.00    +0.006 A 
ATOM      5  C   UNL     1      -3.332   0.609  -3.614  0.00  0.00    -0.017 A 
ATOM      6  C   UNL     1      -4.018   0.663  -2.411  0.00  0.00    -0.016 A 
ATOM      7  C   UNL     1      -3.387   0.296  -1.240  0.00  0.00    +0.008 A 
ATOM      8  C   UNL     1      -5.415   1.152  -2.712  0.00  0.00    +0.195 C 
ATOM      9  O   UNL     1      -5.350   1.756  -4.018  0.00  0.00    -0.371 OA
ATOM     10  C   UNL     1      -4.286   1.062  -4.694  0.00  0.00    +0.195 C 
ENDBRANCH   1   2
BRANCH   1  11
ATOM     11  C   UNL     1      -1.356  -2.015   0.128  0.00  0.00    -0.044 A 
ATOM     12  C   UNL     1      -0.212  -2.719  -0.200  0.00  0.00    +0.003 A 
ATOM     13  C   UNL     1      -0.194  -4.096  -0.094  0.00  0.00    +0.000 A 
ATOM     14  C   UNL     1      -1.320  -4.772   0.340  0.00  0.00    +0.001 A 
ATOM     15  C   UNL     1      -2.464  -4.069   0.668  0.00  0.00    +0.014 A 
ATOM     16  C   UNL     1      -2.481  -2.689   0.567  0.00  0.00    +0.015 A 
ATOM     17  I   UNL     1      -4.212  -1.623   1.072  0.00  0.00    -0.044 I 
ENDBRANCH   1  11
BRANCH   1  19
ATOM     18  C   UNL     1      -0.018   1.465   0.010  0.00  0.00    -0.099 C 
ATOM     19  N   UNL     1       0.002  -0.004   0.002  0.00  0.00    +0.384 N 
ATOM     20  H   UNL     1       0.474  -0.330  -0.828  0.00  0.00    -0.085 HD
ATOM     21  H   UNL     1       0.490  -0.338   0.820  0.00  0.00    -0.085 HD
ENDBRANCH   1  19
TORSDOF 3
