REMARK  Name = ZINC11842022
REMARK  8 active torsions:
REMARK  status: ('A' for Active; 'I' for Inactive)
REMARK    1  A    between atoms: C_1  and  C_2
REMARK    2  A    between atoms: C_2  and  C_19
REMARK    3  A    between atoms: N_5  and  C_9
REMARK    4  A    between atoms: C_9  and  C_10
REMARK    5  A    between atoms: C_10  and  C_11
REMARK    6  A    between atoms: C_14  and  O_17
REMARK    7  A    between atoms: O_17  and  C_18
REMARK    8  A    between atoms: C_24  and  N_60
REMARK                            x       y       z     vdW  Elec       q    Type
REMARK                         _______ _______ _______ _____ _____    ______ ____
ROOT
ATOM      1  C   UNL     1       1.093  -5.721  -4.193  0.00  0.00    +0.042 C 
ATOM      2  C   UNL     1       1.745  -4.371  -4.497  0.00  0.00    +0.112 C 
ATOM      3  C   UNL     1       3.065  -4.566  -5.217  0.00  0.00    +0.247 C 
ATOM      4  O   UNL     1       4.046  -5.146  -4.803  0.00  0.00    -0.273 OA
ATOM      5  N   UNL     1       2.921  -3.960  -6.412  0.00  0.00    -0.224 N 
ATOM      6  C   UNL     1       1.707  -3.414  -6.545  0.00  0.00    +0.309 C 
ATOM      7  O   UNL     1       1.341  -2.813  -7.536  0.00  0.00    -0.252 OA
ATOM      8  N   UNL     1       0.935  -3.605  -5.460  0.00  0.00    -0.285 N 
ATOM      9  H   UNL     1       0.023  -3.299  -5.336  0.00  0.00    +0.151 HD
ENDROOT
BRANCH   2  10
ATOM     10  C   UNL     1       1.948  -3.570  -3.208  0.00  0.00    +0.018 C 
ATOM     11  C   UNL     1       0.602  -3.388  -2.502  0.00  0.00    -0.013 C 
ATOM     12  C   UNL     1       0.802  -2.535  -1.247  0.00  0.00    -0.078 C 
ATOM     13  C   UNL     1       2.673  -1.377  -2.261  0.00  0.00    -0.078 C 
ATOM     14  C   UNL     1       2.529  -2.195  -3.547  0.00  0.00    -0.013 C 
ATOM     15  N   UNL     1       1.340  -1.217  -1.643  0.00  0.00    +0.382 N 
ATOM     16  H   UNL     1       0.704  -0.790  -2.327  0.00  0.00    -0.081 HD
BRANCH  15  17
ATOM     17  C   UNL     1       1.434  -0.335  -0.461  0.00  0.00    -0.058 C 
ATOM     18  C   UNL     1       2.250   0.899  -0.846  0.00  0.00    -0.004 C 
ATOM     19  C   UNL     1       1.801   2.126  -0.004  0.00  0.00    +0.067 C 
ATOM     20  S   UNL     1      -0.023   1.837   0.012  0.00  0.00    -0.162 S 
ATOM     21  C   UNL     1       0.002  -0.004   0.002  0.00  0.00    +0.054 C 
ENDBRANCH  15  17
ENDBRANCH   2  10
BRANCH   5  22
ATOM     22  C   UNL     1       3.965  -3.905  -7.438  0.00  0.00    +0.122 C 
BRANCH  22  23
ATOM     23  C   UNL     1       3.836  -5.119  -8.361  0.00  0.00    +0.054 C 
BRANCH  23  24
ATOM     24  C   UNL     1       4.910  -5.063  -9.417  0.00  0.00    -0.046 A 
ATOM     25  C   UNL     1       4.666  -4.421 -10.617  0.00  0.00    +0.007 A 
ATOM     26  C   UNL     1       5.651  -4.363 -11.584  0.00  0.00    +0.046 A 
ATOM     27  C   UNL     1       6.882  -4.960 -11.355  0.00  0.00    +0.120 A 
ATOM     28  C   UNL     1       7.123  -5.609 -10.152  0.00  0.00    +0.046 A 
ATOM     29  C   UNL     1       6.137  -5.659  -9.186  0.00  0.00    +0.007 A 
BRANCH  27  30
ATOM     30  O   UNL     1       7.851  -4.910 -12.306  0.00  0.00    -0.495 OA
ATOM     31  C   UNL     1       7.532  -4.225 -13.520  0.00  0.00    +0.277 C 
ENDBRANCH  27  30
ENDBRANCH  23  24
ENDBRANCH  22  23
ENDBRANCH   5  22
TORSDOF 6
