REMARK  Name = ZINC59268247
REMARK  4 active torsions:
REMARK  status: ('A' for Active; 'I' for Inactive)
REMARK    1  A    between atoms: C_3  and  N_9
REMARK    2  A    between atoms: C_10  and  C_12
REMARK    3  A    between atoms: C_12  and  S_13
REMARK    4  A    between atoms: S_13  and  C_14
REMARK                            x       y       z     vdW  Elec       q    Type
REMARK                         _______ _______ _______ _____ _____    ______ ____
ROOT
ATOM      1  N   UNL     1       3.584   2.127  -0.021  0.00  0.00    -0.284 N 
ATOM      2  C   UNL     1       3.568   3.471  -0.116  0.00  0.00    +0.227 C 
ATOM      3  O   UNL     1       2.512   4.067  -0.103  0.00  0.00    -0.275 OA
ATOM      4  H   UNL     1       4.429   1.656   0.049  0.00  0.00    +0.155 HD
ENDROOT
BRANCH   1   7
ATOM      5  C   UNL     1       0.065   1.243  -0.620  0.00  0.00    +0.022 A 
ATOM      6  C   UNL     1       1.250   1.953  -0.618  0.00  0.00    +0.026 A 
ATOM      7  C   UNL     1       2.381   1.410  -0.024  0.00  0.00    +0.052 A 
ATOM      8  C   UNL     1       2.318   0.154   0.567  0.00  0.00    +0.064 A 
ATOM      9  C   UNL     1       1.129  -0.551   0.562  0.00  0.00    +0.041 A 
ATOM     10  C   UNL     1       0.004  -0.007  -0.031  0.00  0.00    +0.042 A 
ATOM     11 CL   UNL     1      -1.488  -0.895  -0.035  0.00  0.00    -0.083 Cl
ATOM     12 CL   UNL     1       3.730  -0.528   1.311  0.00  0.00    -0.082 Cl
ENDBRANCH   1   7
BRANCH   2  13
ATOM     13  C   UNL     1       4.862   4.234  -0.238  0.00  0.00    +0.172 C 
BRANCH  13  14
ATOM     14  S   UNL     1       4.509   6.010  -0.346  0.00  0.00    -0.088 S 
BRANCH  14  15
ATOM     15  C   UNL     1       6.101   6.753  -0.483  0.00  0.00    +0.159 A 
ATOM     16  N   UNL     1       7.276   6.180  -0.509  0.00  0.00    -0.149 NA
ATOM     17  N   UNL     1       8.440   6.930  -0.623  0.00  0.00    -0.193 N 
ATOM     18  C   UNL     1       9.805   6.749  -0.686  0.00  0.00    +0.249 A 
ATOM     19  N   UNL     1      10.363   7.922  -0.794  0.00  0.00    -0.135 NA
ATOM     20  N   UNL     1       9.460   8.840  -0.806  0.00  0.00    -0.121 NA
ATOM     21  C   UNL     1       8.287   8.290  -0.706  0.00  0.00    +0.218 A 
ATOM     22  S   UNL     1       6.524   8.482  -0.629  0.00  0.00    -0.020 S 
ENDBRANCH  14  15
ENDBRANCH  13  14
ENDBRANCH   2  13
TORSDOF 4
