REMARK  Name = ZINC37036701
REMARK  4 active torsions:
REMARK  status: ('A' for Active; 'I' for Inactive)
REMARK    1  A    between atoms: C_1  and  C_2
REMARK    2  A    between atoms: C_3  and  S_8
REMARK    3  A    between atoms: S_8  and  C_9
REMARK    4  A    between atoms: C_9  and  C_10
REMARK                            x       y       z     vdW  Elec       q    Type
REMARK                         _______ _______ _______ _____ _____    ______ ____
ROOT
ATOM      1  C   UNL     1      -0.010  -1.173  -5.311  0.00  0.00    -0.032 A 
ATOM      2  C   UNL     1      -1.215  -1.005  -5.969  0.00  0.00    +0.054 A 
ATOM      3  C   UNL     1      -1.224  -0.647  -7.306  0.00  0.00    +0.164 A 
ATOM      4  C   UNL     1      -0.027  -0.456  -7.983  0.00  0.00    +0.180 A 
ATOM      5  C   UNL     1       1.178  -0.624  -7.321  0.00  0.00    +0.086 A 
ATOM      6  C   UNL     1       1.182  -0.978  -5.982  0.00  0.00    +0.028 A 
ATOM      7 CL   UNL     1       2.676  -0.387  -8.165  0.00  0.00    -0.080 Cl
ATOM      8  O   UNL     1      -0.047  -0.102  -9.301  0.00  0.00    -0.487 OA
ATOM      9  C   UNL     1      -0.523  -1.099 -10.208  0.00  0.00    +0.232 C 
ATOM     10  C   UNL     1      -2.041  -1.070 -10.293  0.00  0.00    +0.082 C 
ATOM     11  C   UNL     1      -2.701  -1.446  -8.976  0.00  0.00    +0.232 C 
ATOM     12  O   UNL     1      -2.406  -0.478  -7.967  0.00  0.00    -0.488 OA
ENDROOT
BRANCH   1  13
ATOM     13  C   UNL     1       0.003  -1.562  -3.855  0.00  0.00    +0.110 C 
BRANCH  13  14
ATOM     14  S   UNL     1      -0.012  -0.066  -2.829  0.00  0.00    -0.112 S 
BRANCH  14  17
ATOM     15  C   UNL     1      -0.018   1.503   0.010  0.00  0.00    +0.067 C 
ATOM     16  C   UNL     1       0.002  -0.004   0.002  0.00  0.00    +0.061 A 
ATOM     17  C   UNL     1       0.005  -0.682  -1.178  0.00  0.00    +0.070 A 
ATOM     18  S   UNL     1       0.031  -2.370  -0.589  0.00  0.00    -0.046 S 
ATOM     19  C   UNL     1       0.035  -1.995   1.158  0.00  0.00    +0.157 A 
ATOM     20  N   UNL     1       0.022  -0.675   1.141  0.00  0.00    -0.229 NA
ATOM     21  N   UNL     1       0.052  -2.861   2.245  0.00  0.00    -0.337 N 
ATOM     22  H   UNL     1       0.065  -3.820   2.100  0.00  0.00    +0.144 HD
ATOM     23  H   UNL     1       0.052  -2.507   3.148  0.00  0.00    +0.144 HD
ENDBRANCH  14  17
ENDBRANCH  13  14
ENDBRANCH   1  13
TORSDOF 3
