REMARK  Name = ZINC20646128
REMARK  9 active torsions:
REMARK  status: ('A' for Active; 'I' for Inactive)
REMARK    1  A    between atoms: C_4  and  C_7
REMARK    2  A    between atoms: C_7  and  N_8
REMARK    3  A    between atoms: C_11  and  N_14
REMARK    4  A    between atoms: C_15  and  C_17
REMARK    5  A    between atoms: C_17  and  C_18
REMARK    6  A    between atoms: C_18  and  C_19
REMARK    7  A    between atoms: C_19  and  C_20
REMARK    8  A    between atoms: C_20  and  C_21
REMARK    9  A    between atoms: C_21  and  N_22
REMARK                            x       y       z     vdW  Elec       q    Type
REMARK                         _______ _______ _______ _____ _____    ______ ____
ROOT
ATOM      1  C   UNL     1       2.441   5.722   0.371  0.00  0.00    +0.096 C 
ENDROOT
BRANCH   1   3
ATOM      2  N   UNL     1       1.406   3.515  -0.051  0.00  0.00    -0.313 N 
ATOM      3  C   UNL     1       2.455   4.216   0.423  0.00  0.00    +0.213 C 
ATOM      4  O   UNL     1       3.410   3.634   0.892  0.00  0.00    -0.276 OA
ATOM      5  H   UNL     1       0.539   4.043  -0.477  0.00  0.00    +0.149 HD
BRANCH   2   9
ATOM      6  N   UNL     1       0.706  -0.479  -1.196  0.00  0.00    +0.382 N 
ATOM      7  C   UNL     1       0.002  -0.004   0.002  0.00  0.00    -0.077 C 
ATOM      8  C   UNL     1      -0.019   1.526   0.010  0.00  0.00    +0.003 C 
ATOM      9  C   UNL     1       1.420   2.051  -0.001  0.00  0.00    +0.069 C 
ATOM     10  C   UNL     1       2.145   1.503  -1.232  0.00  0.00    +0.003 C 
ATOM     11  C   UNL     1       2.103  -0.026  -1.205  0.00  0.00    -0.077 C 
ATOM     12  H   UNL     1       0.207  -0.042  -2.073  0.00  0.00    -0.081 HD
BRANCH   6  13
ATOM     13  C   UNL     1       0.626  -1.941  -1.309  0.00  0.00    -0.043 C 
BRANCH  13  17
ATOM     14  C   UNL     1       2.079  -3.155  -5.138  0.00  0.00    +0.000 A 
ATOM     15  C   UNL     1       2.949  -3.055  -4.069  0.00  0.00    +0.000 A 
ATOM     16  C   UNL     1       2.479  -2.661  -2.830  0.00  0.00    +0.002 A 
ATOM     17  C   UNL     1       1.139  -2.369  -2.660  0.00  0.00    -0.064 A 
ATOM     18  C   UNL     1       0.268  -2.476  -3.728  0.00  0.00    +0.002 A 
ATOM     19  C   UNL     1       0.739  -2.864  -4.968  0.00  0.00    +0.000 A 
ENDBRANCH  13  17
ENDBRANCH   6  13
ENDBRANCH   2   9
ENDBRANCH   1   3
BRANCH   1  20
ATOM     20  C   UNL     1       3.740   6.265   0.969  0.00  0.00    +0.009 C 
BRANCH  20  21
ATOM     21  C   UNL     1       3.726   7.794   0.916  0.00  0.00    +0.002 C 
BRANCH  21  22
ATOM     22  C   UNL     1       5.025   8.338   1.514  0.00  0.00    +0.019 C 
BRANCH  22  23
ATOM     23  C   UNL     1       5.011   9.867   1.460  0.00  0.00    +0.103 C 
BRANCH  23  24
ATOM     24  N   UNL     1       6.255  10.387   2.033  0.00  0.00    -0.328 N 
ATOM     25  C   UNL     1       6.469  11.740   2.093  0.00  0.00    +0.131 A 
ATOM     26  C   UNL     1       7.711  12.280   2.664  0.00  0.00    +0.038 A 
ATOM     27  C   UNL     1       8.714  11.450   3.164  0.00  0.00    +0.013 A 
ATOM     28  C   UNL     1       9.858  12.011   3.688  0.00  0.00    +0.001 A 
ATOM     29  C   UNL     1      10.017  13.389   3.721  0.00  0.00    +0.002 A 
ATOM     30  C   UNL     1       9.033  14.222   3.230  0.00  0.00    +0.026 A 
ATOM     31  C   UNL     1       7.873  13.677   2.697  0.00  0.00    +0.052 A 
ATOM     32  N   UNL     1       6.859  14.471   2.194  0.00  0.00    -0.333 N 
ATOM     33  H   UNL     1       6.959  15.566   2.208  0.00  0.00    +0.168 HD
ATOM     34  C   UNL     1       5.748  13.908   1.685  0.00  0.00    +0.179 A 
ATOM     35  S   UNL     1       4.520  14.930   1.072  0.00  0.00    -0.011 S 
ATOM     36  N   UNL     1       5.564  12.589   1.633  0.00  0.00    -0.207 NA
ATOM     37  H   UNL     1       7.018   9.692   2.414  0.00  0.00    +0.147 HD
ENDBRANCH  23  24
ENDBRANCH  22  23
ENDBRANCH  21  22
ENDBRANCH  20  21
ENDBRANCH   1  20
TORSDOF 9
