REMARK  Name = ZINC05480613
REMARK  5 active torsions:
REMARK  status: ('A' for Active; 'I' for Inactive)
REMARK    1  A    between atoms: C_2  and  C_3
REMARK    2  A    between atoms: C_3  and  N_4
REMARK    3  A    between atoms: C_9  and  S_11
REMARK    4  A    between atoms: S_11  and  C_12
REMARK    5  A    between atoms: C_12  and  C_13
REMARK                            x       y       z     vdW  Elec       q    Type
REMARK                         _______ _______ _______ _____ _____    ______ ____
ROOT
ATOM      1  N   UNL     1      -1.417   3.134  -3.500  0.00  0.00    -0.325 N 
ATOM      2  C   UNL     1      -1.319   3.788  -2.283  0.00  0.00    +0.127 A 
ATOM      3  C   UNL     1      -0.995   3.078  -1.120  0.00  0.00    +0.014 A 
ATOM      4  C   UNL     1      -0.905   3.765   0.066  0.00  0.00    +0.051 A 
ATOM      5  N   UNL     1      -1.134   5.076   0.071  0.00  0.00    -0.226 NA
ATOM      6  C   UNL     1      -1.441   5.723  -1.042  0.00  0.00    +0.190 A 
ATOM      7  N   UNL     1      -1.533   5.096  -2.206  0.00  0.00    -0.207 NA
ATOM      8  C   UNL     1      -0.548   3.096   1.365  0.00  0.00    +0.056 C 
ATOM      9  C   UNL     1      -0.739   1.584   1.263  0.00  0.00    +0.006 C 
ATOM     10  C   UNL     1      -0.013   1.086   0.008  0.00  0.00    +0.005 C 
ATOM     11  C   UNL     1      -0.760   1.596  -1.223  0.00  0.00    +0.040 C 
ATOM     12  H   UNL     1      -1.260   2.178  -3.550  0.00  0.00    +0.148 HD
ENDROOT
BRANCH   1  13
ATOM     13  C   UNL     1      -1.756   3.885  -4.711  0.00  0.00    +0.130 C 
BRANCH  13  15
ATOM     14  C   UNL     1      -2.873   2.879  -6.635  0.00  0.00    +0.005 C 
ATOM     15  C   UNL     1      -1.798   2.946  -5.889  0.00  0.00    -0.016 C 
ENDBRANCH  13  15
ENDBRANCH   1  13
BRANCH   6  16
ATOM     16  S   UNL     1      -1.733   7.460  -0.974  0.00  0.00    -0.081 S 
BRANCH  16  17
ATOM     17  C   UNL     1      -2.092   7.786  -2.718  0.00  0.00    +0.114 C 
BRANCH  17  18
ATOM     18  C   UNL     1      -2.382   9.253  -2.905  0.00  0.00    -0.019 A 
ATOM     19  C   UNL     1      -3.678   9.722  -2.796  0.00  0.00    +0.006 A 
ATOM     20  C   UNL     1      -3.943  11.068  -2.963  0.00  0.00    +0.000 A 
ATOM     21  C   UNL     1      -2.913  11.945  -3.250  0.00  0.00    +0.001 A 
ATOM     22  C   UNL     1      -1.618  11.477  -3.365  0.00  0.00    +0.020 A 
ATOM     23  C   UNL     1      -1.351  10.130  -3.193  0.00  0.00    +0.045 A 
ATOM     24 CL   UNL     1       0.275   9.541  -3.338  0.00  0.00    -0.083 Cl
ENDBRANCH  17  18
ENDBRANCH  16  17
ENDBRANCH   6  16
TORSDOF 5
