REMARK  Name = ZINC65618678
REMARK  6 active torsions:
REMARK  status: ('A' for Active; 'I' for Inactive)
REMARK    1  A    between atoms: C_1  and  N_2
REMARK    2  A    between atoms: N_2  and  C_3
REMARK    3  A    between atoms: C_3  and  C_4
REMARK    4  A    between atoms: C_8  and  O_10
REMARK    5  A    between atoms: C_11  and  C_13
REMARK    6  A    between atoms: C_18  and  O_19
REMARK                            x       y       z     vdW  Elec       q    Type
REMARK                         _______ _______ _______ _____ _____    ______ ____
ROOT
ATOM      1  C   UNL     1      -1.483   0.973  -0.248  0.00  0.00    +0.132 C 
ATOM      2  N   UNL     1      -0.683  -0.248  -0.128  0.00  0.00    -0.296 N 
ATOM      3  C   UNL     1      -0.052  -0.749  -1.209  0.00  0.00    +0.250 C 
ATOM      4  O   UNL     1       0.532  -1.813  -1.133  0.00  0.00    -0.270 OA
ENDROOT
BRANCH   3   5
ATOM      5  C   UNL     1      -0.071  -0.007  -2.484  0.00  0.00    +0.078 A 
ATOM      6  C   UNL     1       0.127   1.373  -2.498  0.00  0.00    +0.020 A 
ATOM      7  C   UNL     1       0.113   2.074  -3.692  0.00  0.00    -0.043 A 
ATOM      8  C   UNL     1      -0.095   1.404  -4.881  0.00  0.00    -0.041 A 
ATOM      9  C   UNL     1      -0.296   0.031  -4.878  0.00  0.00    +0.050 A 
ATOM     10  C   UNL     1      -0.281  -0.683  -3.693  0.00  0.00    +0.129 A 
ATOM     11  C   UNL     1      -0.105   2.107  -6.214  0.00  0.00    +0.035 C 
ATOM     12  C   UNL     1      -0.306   3.610  -6.028  0.00  0.00    +0.005 C 
ATOM     13  C   UNL     1       0.716   4.110  -5.000  0.00  0.00    +0.005 C 
ATOM     14  C   UNL     1       0.326   3.564  -3.628  0.00  0.00    +0.035 C 
BRANCH  10  15
ATOM     15  O   UNL     1      -0.473  -2.026  -3.701  0.00  0.00    -0.506 OA
ATOM     16  H   UNL     1      -1.399  -2.292  -3.622  0.00  0.00    +0.292 HD
ENDBRANCH  10  15
ENDBRANCH   3   5
BRANCH   2  17
ATOM     17  C   UNL     1      -0.569  -0.925   1.166  0.00  0.00    +0.143 C 
BRANCH  17  18
ATOM     18  C   UNL     1      -1.677  -1.938   1.302  0.00  0.00    -0.027 A 
ATOM     19  C   UNL     1      -2.888  -1.567   1.858  0.00  0.00    +0.005 A 
ATOM     20  C   UNL     1      -3.906  -2.494   1.984  0.00  0.00    +0.004 A 
ATOM     21  C   UNL     1      -3.715  -3.794   1.556  0.00  0.00    +0.045 A 
ATOM     22  C   UNL     1      -2.501  -4.168   0.999  0.00  0.00    +0.117 A 
ATOM     23  C   UNL     1      -1.483  -3.235   0.867  0.00  0.00    +0.050 A 
BRANCH  22  24
ATOM     24  O   UNL     1      -2.311  -5.446   0.577  0.00  0.00    -0.507 OA
ATOM     25  H   UNL     1      -2.556  -5.596  -0.346  0.00  0.00    +0.292 HD
ENDBRANCH  22  24
ENDBRANCH  17  18
ENDBRANCH   2  17
TORSDOF 5
