REMARK  Name = ZINC09253961
REMARK  5 active torsions:
REMARK  status: ('A' for Active; 'I' for Inactive)
REMARK    1  A    between atoms: C_1  and  C_2
REMARK    2  A    between atoms: C_11  and  C_13
REMARK    3  A    between atoms: N_20  and  C_21
REMARK    4  A    between atoms: C_24  and  O_27
REMARK    5  A    between atoms: O_27  and  C_28
REMARK                            x       y       z     vdW  Elec       q    Type
REMARK                         _______ _______ _______ _____ _____    ______ ____
ROOT
ATOM      1  C   UNL     1       6.862   7.135  -3.424  0.00  0.00    +0.066 C 
ATOM      2  C   UNL     1       5.668   6.752  -2.589  0.00  0.00    +0.047 A 
ATOM      3  C   UNL     1       4.524   7.492  -2.659  0.00  0.00    +0.093 A 
ATOM      4  C   UNL     1       3.421   7.121  -1.865  0.00  0.00    +0.257 A 
ATOM      5  O   UNL     1       2.380   7.755  -1.908  0.00  0.00    -0.267 OA
ATOM      6  N   UNL     1       3.544   6.053  -1.058  0.00  0.00    -0.255 N 
ATOM      7  C   UNL     1       4.709   5.339  -1.044  0.00  0.00    +0.207 A 
ATOM      8  N   UNL     1       5.734   5.692  -1.783  0.00  0.00    -0.221 NA
ATOM      9  N   UNL     1       4.752   4.223  -0.225  0.00  0.00    -0.259 N 
ATOM     10  C   UNL     1       3.568   3.501  -0.117  0.00  0.00    +0.166 C 
ATOM     11  C   UNL     1       2.453   5.628  -0.176  0.00  0.00    +0.220 C 
ATOM     12  N   UNL     1       3.585   2.129  -0.020  0.00  0.00    -0.289 N 
ATOM     13  H   UNL     1       5.559   3.959   0.245  0.00  0.00    +0.158 HD
ATOM     14  H   UNL     1       4.430   1.658   0.051  0.00  0.00    +0.155 HD
ATOM     15  N   UNL     1       2.380   4.125  -0.101  0.00  0.00    -0.336 N 
ATOM     16  H   UNL     1       1.489   3.617  -0.042  0.00  0.00    +0.164 HD
ENDROOT
BRANCH  11  17
ATOM     17  C   UNL     1       2.667   6.197   1.202  0.00  0.00    -0.004 A 
ATOM     18  C   UNL     1       3.320   7.406   1.357  0.00  0.00    +0.007 A 
ATOM     19  C   UNL     1       3.512   7.931   2.621  0.00  0.00    +0.001 A 
ATOM     20  C   UNL     1       3.060   7.244   3.732  0.00  0.00    +0.015 A 
ATOM     21  C   UNL     1       2.411   6.032   3.578  0.00  0.00    +0.018 A 
ATOM     22  C   UNL     1       2.215   5.509   2.312  0.00  0.00    +0.022 A 
ATOM     23 BR   UNL     1       1.794   5.090   5.097  0.00  0.00    -0.050 Br
ENDBRANCH  11  17
BRANCH  12  24
ATOM     24  C   UNL     1       2.382   1.411  -0.025  0.00  0.00    +0.034 A 
ATOM     25  C   UNL     1       2.271   0.236   0.706  0.00  0.00    +0.027 A 
ATOM     26  C   UNL     1       1.085  -0.471   0.701  0.00  0.00    +0.047 A 
ATOM     27  C   UNL     1       0.003  -0.006  -0.034  0.00  0.00    +0.120 A 
ATOM     28  C   UNL     1       0.113   1.168  -0.764  0.00  0.00    +0.047 A 
ATOM     29  C   UNL     1       1.299   1.875  -0.760  0.00  0.00    +0.027 A 
BRANCH  27  30
ATOM     30  O   UNL     1      -1.165  -0.703  -0.038  0.00  0.00    -0.495 OA
ATOM     31  C   UNL     1      -2.236  -0.167  -0.816  0.00  0.00    +0.277 C 
ENDBRANCH  27  30
ENDBRANCH  12  24
TORSDOF 3
