REMARK  Name = ZINC58591839
REMARK  12 active torsions:
REMARK  status: ('A' for Active; 'I' for Inactive)
REMARK    1  A    between atoms: C_1  and  C_2
REMARK    2  A    between atoms: C_2  and  C_4
REMARK    3  A    between atoms: C_2  and  N_10
REMARK    4  A    between atoms: C_4  and  C_5
REMARK    5  A    between atoms: C_5  and  C_6
REMARK    6  A    between atoms: C_6  and  C_7
REMARK    7  A    between atoms: C_7  and  C_8
REMARK    8  A    between atoms: C_7  and  C_9
REMARK    9  A    between atoms: C_11  and  C_13
REMARK   10  A    between atoms: C_18  and  N_19
REMARK   11  A    between atoms: N_19  and  S_20
REMARK   12  A    between atoms: S_20  and  C_23
REMARK                            x       y       z     vdW  Elec       q    Type
REMARK                         _______ _______ _______ _____ _____    ______ ____
ROOT
ATOM      1  C   UNL     1       0.713  -0.804   3.473  0.00  0.00    +0.059 A 
ATOM      2  C   UNL     1       2.099  -0.925   3.342  0.00  0.00    +0.015 A 
ATOM      3  C   UNL     1       2.859  -1.323   4.420  0.00  0.00    +0.001 A 
ATOM      4  C   UNL     1       2.256  -1.606   5.636  0.00  0.00    +0.002 A 
ATOM      5  C   UNL     1       0.889  -1.492   5.781  0.00  0.00    +0.025 A 
ATOM      6  C   UNL     1       0.106  -1.085   4.707  0.00  0.00    +0.060 A 
ENDROOT
BRANCH   1   8
ATOM      7  N   UNL     1       0.480  -0.110   1.141  0.00  0.00    -0.309 N 
ATOM      8  C   UNL     1      -0.106  -0.379   2.324  0.00  0.00    +0.246 C 
ATOM      9  O   UNL     1      -1.312  -0.270   2.443  0.00  0.00    -0.270 OA
ATOM     10  H   UNL     1       1.442  -0.196   1.046  0.00  0.00    +0.149 HD
BRANCH   7  12
ATOM     11  C   UNL     1      -0.559   1.825   0.065  0.00  0.00    +0.028 C 
ATOM     12  C   UNL     1      -0.334   0.313  -0.001  0.00  0.00    +0.070 C 
BRANCH  12  13
ATOM     13  C   UNL     1       0.391  -0.038  -1.302  0.00  0.00    +0.022 C 
BRANCH  13  14
ATOM     14  C   UNL     1       0.505  -1.559  -1.427  0.00  0.00    +0.002 C 
BRANCH  14  15
ATOM     15  C   UNL     1       1.229  -1.911  -2.728  0.00  0.00    +0.003 C 
BRANCH  15  16
ATOM     16  C   UNL     1       1.343  -3.432  -2.853  0.00  0.00    -0.017 C 
ATOM     17  C   UNL     1       1.955  -3.787  -4.210  0.00  0.00    +0.007 C 
ATOM     18  C   UNL     1       2.237  -3.970  -1.734  0.00  0.00    +0.007 C 
ENDBRANCH  15  16
ENDBRANCH  14  15
ENDBRANCH  13  14
ENDBRANCH  12  13
ENDBRANCH   7  12
ENDBRANCH   1   8
BRANCH   6  19
ATOM     19  N   UNL     1      -1.269  -0.964   4.853  0.00  0.00    -0.216 N 
ATOM     20  H   UNL     1      -1.857  -1.193   4.116  0.00  0.00    +0.174 HD
BRANCH  19  21
ATOM     21  S   UNL     1      -1.907  -0.429   6.284  0.00  0.00    +0.072 S 
ATOM     22  O   UNL     1      -3.306  -0.288   6.079  0.00  0.00    -0.150 OA
ATOM     23  O   UNL     1      -1.366  -1.257   7.305  0.00  0.00    -0.150 OA
BRANCH  21  24
ATOM     24  C   UNL     1      -1.273   1.192   6.563  0.00  0.00    +0.111 A 
ATOM     25  C   UNL     1      -0.088   1.358   7.258  0.00  0.00    +0.031 A 
ATOM     26  C   UNL     1       0.417   2.625   7.481  0.00  0.00    +0.030 A 
ATOM     27  C   UNL     1      -0.268   3.733   7.007  0.00  0.00    +0.067 A 
ATOM     28  C   UNL     1      -1.463   3.565   6.306  0.00  0.00    +0.069 A 
ATOM     29  C   UNL     1      -1.959   2.290   6.082  0.00  0.00    +0.056 A 
ATOM     30  N   UNL     1      -1.911   4.839   5.962  0.00  0.00    -0.306 N 
ATOM     31  H   UNL     1      -2.720   5.042   5.468  0.00  0.00    +0.170 HD
ATOM     32  C   UNL     1      -1.028   5.740   6.432  0.00  0.00    +0.325 A 
ATOM     33  O   UNL     1      -1.121   6.946   6.302  0.00  0.00    -0.247 OA
ATOM     34  N   UNL     1      -0.025   5.104   7.067  0.00  0.00    -0.306 N 
ATOM     35  H   UNL     1       0.736   5.528   7.494  0.00  0.00    +0.170 HD
ENDBRANCH  21  24
ENDBRANCH  19  21
ENDBRANCH   6  19
TORSDOF 9
