REMARK  Name = ZINC40152861
REMARK  11 active torsions:
REMARK  status: ('A' for Active; 'I' for Inactive)
REMARK    1  A    between atoms: C_1  and  C_2
REMARK    2  A    between atoms: C_2  and  C_3
REMARK    3  A    between atoms: C_2  and  N_4
REMARK    4  A    between atoms: N_4  and  C_5
REMARK    5  A    between atoms: N_4  and  C_12
REMARK    6  A    between atoms: C_5  and  C_6
REMARK    7  A    between atoms: C_12  and  C_13
REMARK    8  A    between atoms: N_15  and  C_16
REMARK    9  A    between atoms: C_16  and  C_17
REMARK   10  A    between atoms: C_20  and  S_23
REMARK   11  A    between atoms: S_23  and  N_26
REMARK                            x       y       z     vdW  Elec       q    Type
REMARK                         _______ _______ _______ _____ _____    ______ ____
ROOT
ATOM      1  C   UNL     1       1.414  -2.411  -0.209  0.00  0.00    +0.197 C 
ATOM      2  O   UNL     1       2.097  -1.530  -0.686  0.00  0.00    -0.278 OA
ATOM      3  N   UNL     1       1.487  -3.663  -0.705  0.00  0.00    -0.313 N 
ATOM      4  H   UNL     1       0.940  -4.368  -0.324  0.00  0.00    +0.149 HD
ENDROOT
BRANCH   1   5
ATOM      5  C   UNL     1       0.484  -2.107   0.937  0.00  0.00    +0.019 C 
BRANCH   5   6
ATOM      6  N   UNL     1       0.470  -0.660   1.186  0.00  0.00    +0.391 N 
ATOM      7  H   UNL     1       1.395  -0.284   1.034  0.00  0.00    -0.080 HD
BRANCH   6   9
ATOM      8  C   UNL     1      -0.083  -0.325  -1.176  0.00  0.00    -0.013 C 
ATOM      9  C   UNL     1      -0.478  -0.014   0.269  0.00  0.00    -0.074 C 
ATOM     10  C   UNL     1      -1.888  -0.543   0.538  0.00  0.00    -0.013 C 
ENDBRANCH   6   9
BRANCH   6  11
ATOM     11  C   UNL     1       0.060  -0.406   2.574  0.00  0.00    -0.021 C 
BRANCH  11  12
ATOM     12  C   UNL     1       0.177   1.067   2.870  0.00  0.00    +0.025 A 
ATOM     13  C   UNL     1      -0.933   1.880   2.741  0.00  0.00    +0.021 A 
ATOM     14  C   UNL     1      -0.814   3.234   3.017  0.00  0.00    +0.003 A 
ATOM     15  C   UNL     1       0.422   3.721   3.414  0.00  0.00    +0.020 A 
ATOM     16  C   UNL     1       1.487   2.847   3.521  0.00  0.00    +0.111 A 
ATOM     17  N   UNL     1       1.337   1.564   3.256  0.00  0.00    -0.262 NA
ENDBRANCH  11  12
ENDBRANCH   6  11
ENDBRANCH   5   6
ENDBRANCH   1   5
BRANCH   3  18
ATOM     18  C   UNL     1       2.391  -3.958  -1.819  0.00  0.00    +0.139 C 
BRANCH  18  19
ATOM     19  C   UNL     1       2.283  -5.417  -2.180  0.00  0.00    -0.030 A 
ATOM     20  C   UNL     1       3.103  -6.344  -1.565  0.00  0.00    +0.007 A 
ATOM     21  C   UNL     1       3.004  -7.682  -1.896  0.00  0.00    +0.029 A 
ATOM     22  C   UNL     1       2.085  -8.094  -2.843  0.00  0.00    +0.105 A 
ATOM     23  C   UNL     1       1.264  -7.167  -3.458  0.00  0.00    +0.029 A 
ATOM     24  C   UNL     1       1.360  -5.829  -3.123  0.00  0.00    +0.007 A 
BRANCH  22  25
ATOM     25  S   UNL     1       1.959  -9.800  -3.266  0.00  0.00    +0.056 S 
ATOM     26  O   UNL     1       1.402  -9.854  -4.572  0.00  0.00    -0.153 OA
ATOM     27  O   UNL     1       3.212 -10.390  -2.948  0.00  0.00    -0.153 OA
BRANCH  25  28
ATOM     28  N   UNL     1       0.844 -10.476  -2.247  0.00  0.00    -0.204 NA
ATOM     29  H   UNL     1       0.405  -9.930  -1.577  0.00  0.00    +0.144 HD
ATOM     30  H   UNL     1       0.630 -11.420  -2.319  0.00  0.00    +0.144 HD
ENDBRANCH  25  28
ENDBRANCH  22  25
ENDBRANCH  18  19
ENDBRANCH   3  18
TORSDOF 9
