REMARK  Name = ZINC65532019
REMARK  7 active torsions:
REMARK  status: ('A' for Active; 'I' for Inactive)
REMARK    1  A    between atoms: C_1  and  C_2
REMARK    2  A    between atoms: C_5  and  N_9
REMARK    3  A    between atoms: C_6  and  C_8
REMARK    4  A    between atoms: C_10  and  C_12
REMARK    5  A    between atoms: C_12  and  C_14
REMARK    6  A    between atoms: C_12  and  N_15
REMARK    7  A    between atoms: C_16  and  C_21
REMARK                            x       y       z     vdW  Elec       q    Type
REMARK                         _______ _______ _______ _____ _____    ______ ____
ROOT
ATOM      1  C   UNL     1      -0.134  -6.343  -1.187  0.00  0.00    +0.174 C 
ATOM      2  C   UNL     1       1.115  -6.931  -0.528  0.00  0.00    +0.041 C 
ENDROOT
BRANCH   1   3
ATOM      3  N   UNL     1      -0.232  -6.826  -2.567  0.00  0.00    -0.291 N 
ATOM      4  C   UNL     1      -1.279  -7.555  -3.097  0.00  0.00    +0.170 A 
ATOM      5  N   UNL     1      -1.016  -7.805  -4.352  0.00  0.00    -0.153 NA
ATOM      6  N   UNL     1       0.225  -7.231  -4.657  0.00  0.00    -0.254 N 
ATOM      7  C   UNL     1       0.681  -6.630  -3.539  0.00  0.00    +0.176 A 
ATOM      8  S   UNL     1       2.156  -5.775  -3.381  0.00  0.00    -0.011 S 
ATOM      9  H   UNL     1       0.673  -7.258  -5.516  0.00  0.00    +0.191 HD
BRANCH   4  10
ATOM     10  C   UNL     1      -2.487  -7.980  -2.369  0.00  0.00    +0.056 A 
ATOM     11  C   UNL     1      -3.559  -8.706  -2.823  0.00  0.00    +0.019 A 
ATOM     12  C   UNL     1      -4.585  -8.986  -1.950  0.00  0.00    +0.008 A 
ATOM     13  C   UNL     1      -4.506  -8.538  -0.670  0.00  0.00    +0.046 A 
ATOM     14  S   UNL     1      -2.935  -7.691  -0.665  0.00  0.00    -0.094 S 
ENDBRANCH   4  10
ENDBRANCH   1   3
BRANCH   1  16
ATOM     15  N   UNL     1       0.059  -4.170  -0.021  0.00  0.00    -0.284 N 
ATOM     16  C   UNL     1      -0.040  -4.839  -1.187  0.00  0.00    +0.240 C 
ATOM     17  O   UNL     1      -0.054  -4.230  -2.236  0.00  0.00    -0.273 OA
ATOM     18  H   UNL     1       0.135  -4.658   0.814  0.00  0.00    +0.155 HD
BRANCH  15  23
ATOM     19  C   UNL     1       0.026   1.503   0.005  0.00  0.00    +0.044 C 
ATOM     20  C   UNL     1       0.034  -0.004  -0.002  0.00  0.00    -0.050 A 
ATOM     21  C   UNL     1       0.632  -0.685  -1.046  0.00  0.00    +0.005 A 
ATOM     22  C   UNL     1       0.642  -2.066  -1.055  0.00  0.00    +0.024 A 
ATOM     23  C   UNL     1       0.051  -2.771  -0.014  0.00  0.00    +0.036 A 
ATOM     24  C   UNL     1      -0.548  -2.083   1.033  0.00  0.00    -0.029 A 
ATOM     25  C   UNL     1      -0.550  -0.702   1.039  0.00  0.00    +0.008 A 
ATOM     26  C   UNL     1      -1.190  -2.843   2.165  0.00  0.00    +0.045 C 
ENDBRANCH  15  23
ENDBRANCH   1  16
TORSDOF 4
