REMARK  Name = ZINC06492553
REMARK  9 active torsions:
REMARK  status: ('A' for Active; 'I' for Inactive)
REMARK    1  A    between atoms: C_1  and  C_2
REMARK    2  A    between atoms: C_2  and  C_3
REMARK    3  A    between atoms: C_2  and  C_4
REMARK    4  A    between atoms: C_11  and  N_31
REMARK    5  A    between atoms: C_12  and  C_29
REMARK    6  A    between atoms: C_13  and  C_15
REMARK    7  A    between atoms: C_18  and  O_21
REMARK    8  A    between atoms: O_21  and  C_22
REMARK    9  A    between atoms: C_22  and  C_24
REMARK                            x       y       z     vdW  Elec       q    Type
REMARK                         _______ _______ _______ _____ _____    ______ ____
ROOT
ATOM      1  C   UNL     1      -1.288  -0.440  -0.009  0.00  0.00    +0.073 A 
ATOM      2  C   UNL     1      -1.936  -1.286  -0.898  0.00  0.00    +0.050 A 
ATOM      3  C   UNL     1      -3.202  -1.505  -0.429  0.00  0.00    +0.222 A 
ATOM      4  N   UNL     1      -3.334  -0.817   0.716  0.00  0.00    -0.246 N 
ATOM      5  H   UNL     1      -4.127  -0.784   1.274  0.00  0.00    +0.192 HD
ATOM      6  N   UNL     1      -2.120  -0.159   0.966  0.00  0.00    -0.175 NA
ATOM      7  O   UNL     1      -4.097  -2.292  -1.076  0.00  0.00    -0.423 OA
ATOM      8  C   UNL     1      -3.813  -2.647  -2.346  0.00  0.00    +0.200 C 
ATOM      9  C   UNL     1      -2.598  -2.492  -2.916  0.00  0.00    +0.098 C 
ATOM     10  C   UNL     1      -1.424  -1.904  -2.173  0.00  0.00    +0.101 C 
ENDROOT
BRANCH  10  11
ATOM     11  C   UNL     1      -0.430  -2.990  -1.849  0.00  0.00    -0.034 A 
ATOM     12  C   UNL     1      -0.821  -4.079  -1.092  0.00  0.00    +0.008 A 
ATOM     13  C   UNL     1       0.088  -5.075  -0.793  0.00  0.00    +0.047 A 
ATOM     14  C   UNL     1       1.394  -4.982  -1.253  0.00  0.00    +0.132 A 
ATOM     15  C   UNL     1       1.783  -3.889  -2.012  0.00  0.00    +0.047 A 
ATOM     16  C   UNL     1       0.869  -2.897  -2.313  0.00  0.00    +0.008 A 
BRANCH  14  17
ATOM     17  O   UNL     1       2.290  -5.961  -0.959  0.00  0.00    -0.420 OA
BRANCH  17  18
ATOM     18  C   UNL     1       2.122  -7.168  -1.538  0.00  0.00    +0.380 C 
ATOM     19  O   UNL     1       1.254  -7.325  -2.376  0.00  0.00    -0.241 OA
BRANCH  18  20
ATOM     20  C   UNL     1       2.985  -8.289  -1.158  0.00  0.00    +0.212 A 
ATOM     21  C   UNL     1       2.926  -9.556  -1.667  0.00  0.00    +0.056 A 
ATOM     22  C   UNL     1       3.929 -10.296  -1.023  0.00  0.00    +0.042 A 
ATOM     23  C   UNL     1       4.548  -9.460  -0.159  0.00  0.00    +0.196 A 
ATOM     24  O   UNL     1       3.980  -8.250  -0.248  0.00  0.00    -0.456 OA
ENDBRANCH  18  20
ENDBRANCH  17  18
ENDBRANCH  14  17
ENDBRANCH  10  11
BRANCH   1  26
ATOM     25  C   UNL     1       0.121   1.592  -0.201  0.00  0.00    +0.014 C 
ATOM     26  C   UNL     1       0.127   0.063  -0.137  0.00  0.00    +0.034 C 
ATOM     27  C   UNL     1       0.942  -0.394   1.074  0.00  0.00    +0.014 C 
ENDBRANCH   1  26
BRANCH   8  28
ATOM     28  N   UNL     1      -4.817  -3.197  -3.103  0.00  0.00    -0.328 N 
ATOM     29  H   UNL     1      -5.700  -3.320  -2.721  0.00  0.00    +0.145 HD
ATOM     30  H   UNL     1      -4.644  -3.462  -4.020  0.00  0.00    +0.145 HD
ENDBRANCH   8  28
BRANCH   9  31
ATOM     31  C   UNL     1      -2.417  -2.902  -4.276  0.00  0.00    +0.101 C 
ATOM     32  N   UNL     1      -2.274  -3.228  -5.355  0.00  0.00    -0.191 NA
ENDBRANCH   9  31
TORSDOF 7
