REMARK  Name = ZINC34756045
REMARK  6 active torsions:
REMARK  status: ('A' for Active; 'I' for Inactive)
REMARK    1  A    between atoms: C_2  and  C_3
REMARK    2  A    between atoms: C_3  and  S_4
REMARK    3  A    between atoms: S_4  and  C_5
REMARK    4  A    between atoms: N_21  and  C_24
REMARK    5  A    between atoms: C_24  and  C_25
REMARK    6  A    between atoms: N_27  and  C_28
REMARK                            x       y       z     vdW  Elec       q    Type
REMARK                         _______ _______ _______ _____ _____    ______ ____
ROOT
ATOM      1  C   UNL     1       4.610  -1.813   1.244  0.00  0.00    +0.191 A 
ATOM      2  N   UNL     1       4.999  -2.614   2.229  0.00  0.00    -0.206 NA
ATOM      3  C   UNL     1       4.697  -3.901   2.249  0.00  0.00    +0.134 A 
ATOM      4  C   UNL     1       3.931  -4.453   1.183  0.00  0.00    +0.051 A 
ATOM      5  C   UNL     1       3.486  -5.836   0.996  0.00  0.00    -0.025 A 
ATOM      6  C   UNL     1       2.765  -6.101  -0.111  0.00  0.00    -0.004 A 
ATOM      7  S   UNL     1       2.634  -4.551  -0.961  0.00  0.00    -0.073 S 
ATOM      8  C   UNL     1       3.553  -3.545   0.174  0.00  0.00    +0.115 A 
ATOM      9  N   UNL     1       3.890  -2.271   0.229  0.00  0.00    -0.215 NA
ATOM     10  C   UNL     1       2.198  -7.424  -0.529  0.00  0.00    +0.043 C 
ATOM     11  C   UNL     1       2.872  -8.525   0.302  0.00  0.00    +0.005 C 
ATOM     12  C   UNL     1       2.853  -8.109   1.776  0.00  0.00    +0.005 C 
ATOM     13  C   UNL     1       3.814  -6.940   1.997  0.00  0.00    +0.037 C 
ATOM     14  N   UNL     1       5.122  -4.703   3.293  0.00  0.00    -0.318 N 
ATOM     15  C   UNL     1       6.364  -5.484   3.190  0.00  0.00    +0.088 C 
ATOM     16  C   UNL     1       7.213  -5.212   4.436  0.00  0.00    -0.059 C 
ATOM     17  N   UNL     1       6.418  -5.492   5.639  0.00  0.00    +0.387 N 
ATOM     18  C   UNL     1       5.288  -4.559   5.720  0.00  0.00    -0.059 C 
ATOM     19  C   UNL     1       4.346  -4.794   4.540  0.00  0.00    +0.088 C 
ATOM     20  H   UNL     1       6.070  -6.438   5.598  0.00  0.00    -0.081 HD
ENDROOT
BRANCH   1  21
ATOM     21  S   UNL     1       5.053  -0.108   1.290  0.00  0.00    -0.082 S 
BRANCH  21  22
ATOM     22  C   UNL     1       4.315   0.578  -0.218  0.00  0.00    +0.104 C 
BRANCH  22  24
ATOM     23  C   UNL     1       5.379   2.507  -1.271  0.00  0.00    +0.005 C 
ATOM     24  C   UNL     1       4.623   2.051  -0.303  0.00  0.00    -0.023 C 
ENDBRANCH  22  24
ENDBRANCH  21  22
ENDBRANCH   1  21
BRANCH  17  25
ATOM     25  C   UNL     1       7.265  -5.338   6.830  0.00  0.00    +0.019 C 
BRANCH  25  26
ATOM     26  C   UNL     1       6.487  -5.743   8.055  0.00  0.00    +0.201 C 
ATOM     27  O   UNL     1       5.340  -6.123   7.947  0.00  0.00    -0.278 OA
ATOM     28  N   UNL     1       7.065  -5.683   9.271  0.00  0.00    -0.287 N 
ATOM     29  H   UNL     1       7.954  -5.306   9.367  0.00  0.00    +0.155 HD
BRANCH  28  30
ATOM     30  C   UNL     1       6.384  -6.164  10.395  0.00  0.00    +0.033 A 
ATOM     31  C   UNL     1       5.556  -7.274  10.284  0.00  0.00    +0.023 A 
ATOM     32  C   UNL     1       4.885  -7.747  11.395  0.00  0.00    +0.002 A 
ATOM     33  C   UNL     1       5.037  -7.116  12.616  0.00  0.00    +0.000 A 
ATOM     34  C   UNL     1       5.860  -6.011  12.729  0.00  0.00    +0.002 A 
ATOM     35  C   UNL     1       6.539  -5.537  11.624  0.00  0.00    +0.023 A 
ENDBRANCH  28  30
ENDBRANCH  25  26
ENDBRANCH  17  25
TORSDOF 6
