REMARK  Name = ZINC09096240
REMARK  6 active torsions:
REMARK  status: ('A' for Active; 'I' for Inactive)
REMARK    1  A    between atoms: C_1  and  C_2
REMARK    2  A    between atoms: C_9  and  S_12
REMARK    3  A    between atoms: S_12  and  C_13
REMARK    4  A    between atoms: C_13  and  C_15
REMARK    5  A    between atoms: C_13  and  C_21
REMARK    6  A    between atoms: C_26  and  C_29
REMARK                            x       y       z     vdW  Elec       q    Type
REMARK                         _______ _______ _______ _____ _____    ______ ____
ROOT
ATOM      1  C   UNL     1       1.625   5.462   0.015  0.00  0.00    +0.170 C 
ENDROOT
BRANCH   1   2
ATOM      2  C   UNL     1       1.057   4.066   0.013  0.00  0.00    +0.236 C 
ATOM      3  O   UNL     1      -0.145   3.900   0.024  0.00  0.00    -0.274 OA
ATOM      4  N   UNL     1       1.883   3.002  -0.000  0.00  0.00    -0.267 N 
ATOM      5  C   UNL     1       1.357   1.710  -0.002  0.00  0.00    +0.168 A 
ATOM      6  C   UNL     1      -0.016   1.348   0.009  0.00  0.00    +0.091 A 
ATOM      7  C   UNL     1       0.002  -0.004   0.002  0.00  0.00    +0.136 A 
ATOM      8  O   UNL     1       1.292  -0.370  -0.012  0.00  0.00    -0.358 OA
ATOM      9  N   UNL     1       2.029   0.589  -0.014  0.00  0.00    -0.063 NA
ATOM     10  C   UNL     1      -1.194  -0.921   0.008  0.00  0.00    +0.089 C 
ATOM     11  H   UNL     1       2.844   3.134  -0.009  0.00  0.00    +0.156 HD
ENDBRANCH   1   2
BRANCH   1  12
ATOM     12  C   UNL     1       1.916   5.887  -1.401  0.00  0.00    -0.025 A 
ATOM     13  C   UNL     1       0.894   5.939  -2.331  0.00  0.00    +0.005 A 
ATOM     14  C   UNL     1       1.160   6.333  -3.629  0.00  0.00    +0.000 A 
ATOM     15  C   UNL     1       2.449   6.668  -3.999  0.00  0.00    +0.000 A 
ATOM     16  C   UNL     1       3.472   6.611  -3.071  0.00  0.00    +0.000 A 
ATOM     17  C   UNL     1       3.205   6.221  -1.772  0.00  0.00    +0.005 A 
ENDBRANCH   1  12
BRANCH   1  18
ATOM     18  S   UNL     1       0.427   6.600   0.753  0.00  0.00    -0.070 S 
BRANCH  18  27
ATOM     19  C   UNL     1       5.681  12.159   0.174  0.00  0.00    +0.044 C 
ATOM     20  C   UNL     1       4.384  11.457   0.486  0.00  0.00    -0.048 A 
ATOM     21  C   UNL     1       3.339  12.167   1.059  0.00  0.00    +0.005 A 
ATOM     22  C   UNL     1       2.145  11.539   1.351  0.00  0.00    +0.028 A 
ATOM     23  C   UNL     1       1.988  10.190   1.070  0.00  0.00    +0.067 A 
ATOM     24  C   UNL     1       3.043   9.467   0.489  0.00  0.00    +0.090 A 
ATOM     25  C   UNL     1       4.245  10.118   0.200  0.00  0.00    +0.033 A 
ATOM     26  N   UNL     1       2.612   8.189   0.330  0.00  0.00    -0.222 NA
ATOM     27  C   UNL     1       1.381   8.081   0.767  0.00  0.00    +0.168 A 
ATOM     28  N   UNL     1       0.946   9.291   1.230  0.00  0.00    -0.333 N 
ATOM     29  H   UNL     1       0.044   9.490   1.612  0.00  0.00    +0.168 HD
ENDBRANCH  18  27
ENDBRANCH   1  18
TORSDOF 4
