REMARK  Name = ZINC35706829
REMARK  12 active torsions:
REMARK  status: ('A' for Active; 'I' for Inactive)
REMARK    1  A    between atoms: C_1  and  C_2
REMARK    2  A    between atoms: C_2  and  C_4
REMARK    3  A    between atoms: C_2  and  C_35
REMARK    4  A    between atoms: C_4  and  C_5
REMARK    5  A    between atoms: N_7  and  C_8
REMARK    6  A    between atoms: N_7  and  C_32
REMARK    7  A    between atoms: C_8  and  C_9
REMARK    8  A    between atoms: C_23  and  C_25
REMARK    9  A    between atoms: C_35  and  C_36
REMARK   10  A    between atoms: C_36  and  C_37
REMARK   11  A    between atoms: C_36  and  C_38
REMARK   12  A    between atoms: C_36  and  C_39
REMARK                            x       y       z     vdW  Elec       q    Type
REMARK                         _______ _______ _______ _____ _____    ______ ____
ROOT
ATOM      1  C   UNL     1       0.002   0.767  -5.487  0.00  0.00    +0.238 C 
ATOM      2  O   UNL     1       1.090   1.189  -5.155  0.00  0.00    -0.273 OA
ATOM      3  N   UNL     1      -0.658   1.339  -6.513  0.00  0.00    -0.255 N 
ATOM      4  C   UNL     1      -0.053   2.369  -7.247  0.00  0.00    +0.061 A 
ATOM      5  C   UNL     1       0.872   3.211  -6.649  0.00  0.00    +0.025 A 
ATOM      6  C   UNL     1       1.469   4.215  -7.388  0.00  0.00    +0.002 A 
ATOM      7  C   UNL     1       1.151   4.386  -8.723  0.00  0.00    +0.002 A 
ATOM      8  C   UNL     1       0.226   3.555  -9.329  0.00  0.00    +0.028 A 
ATOM      9  C   UNL     1      -0.379   2.552  -8.595  0.00  0.00    +0.068 A 
ATOM     10  N   UNL     1      -1.341   1.701  -9.158  0.00  0.00    -0.316 N 
ATOM     11  C   UNL     1      -1.677   1.499 -10.454  0.00  0.00    +0.092 A 
ATOM     12  C   UNL     1      -2.661   0.573 -10.495  0.00  0.00    +0.020 A 
ATOM     13  C   UNL     1      -2.942   0.191  -9.164  0.00  0.00    +0.025 A 
ATOM     14  C   UNL     1      -2.129   0.892  -8.367  0.00  0.00    +0.049 A 
ATOM     15  C   UNL     1      -2.011   0.878  -6.866  0.00  0.00    +0.159 C 
ENDROOT
BRANCH  15  16
ATOM     16  C   UNL     1      -3.038   1.805  -6.269  0.00  0.00    -0.021 A 
ATOM     17  C   UNL     1      -2.822   3.170  -6.273  0.00  0.00    +0.007 A 
ATOM     18  C   UNL     1      -3.764   4.021  -5.725  0.00  0.00    +0.020 A 
ATOM     19  C   UNL     1      -4.923   3.505  -5.173  0.00  0.00    +0.041 A 
ATOM     20  C   UNL     1      -5.139   2.139  -5.169  0.00  0.00    +0.020 A 
ATOM     21  C   UNL     1      -4.199   1.290  -5.722  0.00  0.00    +0.007 A 
ATOM     22 CL   UNL     1      -6.106   4.573  -4.484  0.00  0.00    -0.084 Cl
ENDBRANCH  15  16
BRANCH   1  23
ATOM     23  C   UNL     1      -0.612  -0.396  -4.752  0.00  0.00    +0.204 C 
BRANCH  23  26
ATOM     24  C   UNL     1       0.039  -0.185  -2.413  0.00  0.00    +0.216 C 
ATOM     25  O   UNL     1      -0.782   0.699  -2.292  0.00  0.00    -0.276 OA
ATOM     26  N   UNL     1       0.239  -0.760  -3.616  0.00  0.00    -0.290 N 
BRANCH  26  27
ATOM     27  C   UNL     1       1.307  -1.748  -3.787  0.00  0.00    +0.077 C 
ATOM     28  C   UNL     1       1.692  -2.131  -5.218  0.00  0.00    +0.024 C 
ATOM     29  C   UNL     1       0.918  -3.119  -4.343  0.00  0.00    +0.024 C 
ENDBRANCH  26  27
BRANCH  24  30
ATOM     30  C   UNL     1       0.836  -0.642  -1.218  0.00  0.00    +0.099 C 
BRANCH  30  32
ATOM     31  C   UNL     1       0.711   1.609  -0.141  0.00  0.00    +0.008 C 
ATOM     32  C   UNL     1       0.377   0.125   0.024  0.00  0.00    -0.005 C 
BRANCH  32  33
ATOM     33  C   UNL     1       1.097  -0.425   1.257  0.00  0.00    +0.010 C 
BRANCH  33  34
ATOM     34  C   UNL     1       0.291  -0.083   2.512  0.00  0.00    -0.037 C 
ATOM     35  C   UNL     1      -1.050  -0.818   2.474  0.00  0.00    +0.010 C 
ATOM     36  C   UNL     1       1.074  -0.514   3.754  0.00  0.00    +0.010 C 
ATOM     37  C   UNL     1       0.044   1.426   2.564  0.00  0.00    +0.010 C 
ENDBRANCH  33  34
ENDBRANCH  32  33
ENDBRANCH  30  32
ENDBRANCH  24  30
ENDBRANCH  23  26
ENDBRANCH   1  23
TORSDOF 8
