REMARK  Name = ZINC04200137
REMARK  5 active torsions:
REMARK  status: ('A' for Active; 'I' for Inactive)
REMARK    1  A    between atoms: C_1  and  C_2
REMARK    2  A    between atoms: C_3  and  C_22
REMARK    3  A    between atoms: C_4  and  C_8
REMARK    4  A    between atoms: C_4  and  N_12
REMARK    5  A    between atoms: C_13  and  C_15
REMARK                            x       y       z     vdW  Elec       q    Type
REMARK                         _______ _______ _______ _____ _____    ______ ____
ROOT
ATOM      1  C   UNL     1      -3.966   9.768  -1.446  0.00  0.00    +0.062 C 
ATOM      2  C   UNL     1      -2.718   9.003  -1.087  0.00  0.00    +0.024 C 
ATOM      3  C   UNL     1      -2.561   8.321   0.059  0.00  0.00    +0.087 C 
ATOM      4  C   UNL     1      -1.173   7.714   0.001  0.00  0.00    +0.243 C 
ATOM      5  C   UNL     1      -0.638   8.180  -1.338  0.00  0.00    +0.255 C 
ATOM      6  O   UNL     1       0.449   7.933  -1.815  0.00  0.00    -0.272 OA
ATOM      7  N   UNL     1      -1.615   8.923  -1.891  0.00  0.00    -0.286 N 
ATOM      8  H   UNL     1      -1.545   9.351  -2.759  0.00  0.00    +0.155 HD
ENDROOT
BRANCH   4   9
ATOM      9  C   UNL     1      -0.305   8.242   1.145  0.00  0.00    +0.424 C 
ATOM     10  F   UNL     1       1.010   7.795   0.977  0.00  0.00    -0.167 F 
ATOM     11  F   UNL     1      -0.327   9.641   1.139  0.00  0.00    -0.167 F 
ATOM     12  F   UNL     1      -0.805   7.773   2.365  0.00  0.00    -0.167 F 
ENDBRANCH   4   9
BRANCH   4  13
ATOM     13  N   UNL     1      -1.248   6.251   0.046  0.00  0.00    -0.286 N 
ATOM     14  C   UNL     1      -1.838   5.575  -0.960  0.00  0.00    +0.245 C 
ATOM     15  O   UNL     1      -2.391   6.181  -1.857  0.00  0.00    -0.270 OA
ATOM     16  H   UNL     1      -0.874   5.769   0.800  0.00  0.00    +0.151 HD
BRANCH  14  17
ATOM     17  C   UNL     1      -1.812   4.098  -0.973  0.00  0.00    +0.037 A 
ATOM     18  C   UNL     1      -2.422   3.396  -2.014  0.00  0.00    +0.016 A 
ATOM     19  C   UNL     1      -2.394   2.018  -2.022  0.00  0.00    +0.039 A 
ATOM     20  C   UNL     1      -1.762   1.329  -0.997  0.00  0.00    +0.123 A 
ATOM     21  C   UNL     1      -1.160   2.022   0.042  0.00  0.00    +0.039 A 
ATOM     22  C   UNL     1      -1.177   3.400   0.056  0.00  0.00    +0.016 A 
ATOM     23  F   UNL     1      -1.739  -0.021  -1.009  0.00  0.00    -0.205 F 
ENDBRANCH  14  17
ENDBRANCH   4  13
BRANCH   3  24
ATOM     24  C   UNL     1      -3.512   8.194   1.123  0.00  0.00    +0.099 C 
ATOM     25  N   UNL     1      -4.266   8.093   1.966  0.00  0.00    -0.191 NA
ENDBRANCH   3  24
TORSDOF 4
