REMARK  Name = ZINC01667074
REMARK  9 active torsions:
REMARK  status: ('A' for Active; 'I' for Inactive)
REMARK    1  A    between atoms: C_1  and  N_54
REMARK    2  A    between atoms: C_2  and  C_18
REMARK    3  A    between atoms: C_7  and  C_9
REMARK    4  A    between atoms: C_9  and  C_10
REMARK    5  A    between atoms: C_10  and  C_11
REMARK    6  A    between atoms: C_14  and  O_17
REMARK    7  A    between atoms: C_18  and  C_19
REMARK    8  A    between atoms: C_19  and  C_20
REMARK    9  A    between atoms: C_23  and  O_26
REMARK                            x       y       z     vdW  Elec       q    Type
REMARK                         _______ _______ _______ _____ _____    ______ ____
ROOT
ATOM      1  C   UNL     1       7.048   3.540   1.151  0.00  0.00    -0.095 C 
ATOM      2  C   UNL     1       8.484   5.478   1.359  0.00  0.00    -0.068 C 
ATOM      3  C   UNL     1       8.492   7.006   1.425  0.00  0.00    -0.015 C 
ATOM      4  C   UNL     1       7.992   7.573   0.094  0.00  0.00    -0.003 C 
ATOM      5  C   UNL     1       6.590   7.028  -0.191  0.00  0.00    -0.015 C 
ATOM      6  C   UNL     1       6.637   5.498  -0.211  0.00  0.00    -0.068 C 
ATOM      7  N   UNL     1       7.102   5.016   1.107  0.00  0.00    +0.382 N 
ATOM      8  H   UNL     1       6.487   5.394   1.837  0.00  0.00    -0.081 HD
ENDROOT
BRANCH   6   9
ATOM      9  C   UNL     1       5.234   4.949  -0.474  0.00  0.00    -0.011 C 
BRANCH   9  10
ATOM     10  C   UNL     1       4.748   5.428  -1.844  0.00  0.00    +0.033 C 
BRANCH  10  11
ATOM     11  C   UNL     1       3.420   4.787  -2.158  0.00  0.00    -0.047 A 
ATOM     12  C   UNL     1       2.246   5.412  -1.779  0.00  0.00    +0.007 A 
ATOM     13  C   UNL     1       1.028   4.827  -2.066  0.00  0.00    +0.045 A 
ATOM     14  C   UNL     1       0.983   3.612  -2.734  0.00  0.00    +0.117 A 
ATOM     15  C   UNL     1       2.163   2.984  -3.108  0.00  0.00    +0.045 A 
ATOM     16  C   UNL     1       3.378   3.576  -2.823  0.00  0.00    +0.007 A 
BRANCH  14  17
ATOM     17  O   UNL     1      -0.214   3.034  -3.018  0.00  0.00    -0.507 OA
ATOM     18  H   UNL     1      -0.583   3.293  -3.873  0.00  0.00    +0.292 HD
ENDBRANCH  14  17
ENDBRANCH  10  11
ENDBRANCH   9  10
ENDBRANCH   6   9
BRANCH   2  19
ATOM     19  C   UNL     1       9.418   5.011   0.241  0.00  0.00    -0.011 C 
BRANCH  19  20
ATOM     20  C   UNL     1      10.863   5.358   0.606  0.00  0.00    +0.033 C 
BRANCH  20  21
ATOM     21  C   UNL     1      11.794   4.791  -0.435  0.00  0.00    -0.047 A 
ATOM     22  C   UNL     1      12.309   3.517  -0.280  0.00  0.00    +0.007 A 
ATOM     23  C   UNL     1      13.159   2.994  -1.235  0.00  0.00    +0.045 A 
ATOM     24  C   UNL     1      13.503   3.751  -2.345  0.00  0.00    +0.117 A 
ATOM     25  C   UNL     1      12.989   5.030  -2.496  0.00  0.00    +0.045 A 
ATOM     26  C   UNL     1      12.136   5.548  -1.540  0.00  0.00    +0.007 A 
BRANCH  24  27
ATOM     27  O   UNL     1      14.343   3.240  -3.284  0.00  0.00    -0.507 OA
ATOM     28  H   UNL     1      15.278   3.422  -3.115  0.00  0.00    +0.292 HD
ENDBRANCH  24  27
ENDBRANCH  20  21
ENDBRANCH  19  20
ENDBRANCH   2  19
TORSDOF 8
