REMARK  Name = ZINC64871082
REMARK  8 active torsions:
REMARK  status: ('A' for Active; 'I' for Inactive)
REMARK    1  A    between atoms: C_1  and  C_2
REMARK    2  A    between atoms: C_2  and  C_3
REMARK    3  A    between atoms: C_2  and  O_4
REMARK    4  A    between atoms: O_4  and  C_5
REMARK    5  A    between atoms: C_8  and  C_11
REMARK    6  A    between atoms: C_14  and  C_18
REMARK    7  A    between atoms: N_28  and  C_31
REMARK    8  A    between atoms: C_31  and  C_32
REMARK                            x       y       z     vdW  Elec       q    Type
REMARK                         _______ _______ _______ _____ _____    ______ ____
ROOT
ATOM      1  C   UNL     1      -4.189  -7.766  -3.934  0.00  0.00    -0.000 A 
ATOM      2  C   UNL     1      -4.502  -8.323  -2.703  0.00  0.00    +0.008 A 
ATOM      3  C   UNL     1      -5.300  -9.445  -2.627  0.00  0.00    +0.016 A 
ATOM      4  C   UNL     1      -5.791 -10.018  -3.798  0.00  0.00    +0.063 A 
ATOM      5  C   UNL     1      -5.473  -9.453  -5.045  0.00  0.00    +0.056 A 
ATOM      6  C   UNL     1      -4.674  -8.321  -5.101  0.00  0.00    +0.034 A 
ATOM      7  N   UNL     1      -5.977 -10.045  -6.194  0.00  0.00    -0.307 N 
ATOM      8  H   UNL     1      -5.766  -9.666  -7.061  0.00  0.00    +0.170 HD
ATOM      9  C   UNL     1      -6.755 -11.138  -6.117  0.00  0.00    +0.330 A 
ATOM     10  O   UNL     1      -7.176 -11.627  -7.147  0.00  0.00    -0.246 OA
ATOM     11  N   UNL     1      -7.086 -11.714  -4.951  0.00  0.00    -0.256 N 
ATOM     12  C   UNL     1      -6.648 -11.217  -3.774  0.00  0.00    +0.265 A 
ATOM     13  O   UNL     1      -6.953 -11.745  -2.721  0.00  0.00    -0.267 OA
ENDROOT
BRANCH   1  16
ATOM     14  C   UNL     1      -2.167  -5.641  -2.132  0.00  0.00    +0.180 C 
ATOM     15  N   UNL     1      -3.498  -5.729  -2.777  0.00  0.00    -0.265 NA
ATOM     16  C   UNL     1      -3.315  -6.540  -3.997  0.00  0.00    +0.242 C 
ATOM     17  O   UNL     1      -1.929  -6.924  -4.049  0.00  0.00    -0.274 OA
ATOM     18  N   UNL     1      -1.217  -5.902  -3.247  0.00  0.00    -0.177 NA
ATOM     19  H   UNL     1      -4.173  -6.154  -2.158  0.00  0.00    +0.127 HD
ATOM     20  H   UNL     1      -0.340  -6.259  -2.898  0.00  0.00    +0.156 HD
BRANCH  14  24
ATOM     21  C   UNL     1      -1.538  -1.739  -0.505  0.00  0.00    +0.121 A 
ATOM     22  C   UNL     1      -0.465  -2.468  -0.997  0.00  0.00    +0.046 A 
ATOM     23  C   UNL     1      -0.671  -3.729  -1.522  0.00  0.00    +0.010 A 
ATOM     24  C   UNL     1      -1.945  -4.265  -1.558  0.00  0.00    -0.014 A 
ATOM     25  C   UNL     1      -3.017  -3.540  -1.070  0.00  0.00    +0.010 A 
ATOM     26  C   UNL     1      -2.815  -2.281  -0.538  0.00  0.00    +0.046 A 
BRANCH  21  27
ATOM     27  O   UNL     1      -1.339  -0.499   0.012  0.00  0.00    -0.489 OA
BRANCH  27  29
ATOM     28  C   UNL     1      -1.982   1.168   1.640  0.00  0.00    +0.051 C 
ATOM     29  C   UNL     1      -2.466   0.143   0.612  0.00  0.00    +0.167 C 
ATOM     30  C   UNL     1      -3.283   0.853  -0.469  0.00  0.00    +0.051 C 
ENDBRANCH  27  29
ENDBRANCH  21  27
ENDBRANCH  14  24
ENDBRANCH   1  16
BRANCH  11  31
ATOM     31  C   UNL     1      -7.939 -12.905  -4.954  0.00  0.00    +0.165 C 
BRANCH  31  32
ATOM     32  C   UNL     1      -7.079 -14.139  -5.036  0.00  0.00    -0.026 A 
ATOM     33  C   UNL     1      -6.732 -14.660  -6.269  0.00  0.00    +0.005 A 
ATOM     34  C   UNL     1      -5.943 -15.792  -6.345  0.00  0.00    +0.002 A 
ATOM     35  C   UNL     1      -5.499 -16.405  -5.188  0.00  0.00    +0.020 A 
ATOM     36  C   UNL     1      -5.846 -15.884  -3.954  0.00  0.00    +0.041 A 
ATOM     37  C   UNL     1      -6.631 -14.747  -3.878  0.00  0.00    +0.025 A 
ATOM     38 CL   UNL     1      -5.289 -16.652  -2.500  0.00  0.00    -0.084 Cl
ENDBRANCH  31  32
ENDBRANCH  11  31
TORSDOF 6
