REMARK  Name = ZINC63208846
REMARK  8 active torsions:
REMARK  status: ('A' for Active; 'I' for Inactive)
REMARK    1  A    between atoms: C_7  and  C_10
REMARK    2  A    between atoms: C_10  and  C_11
REMARK    3  A    between atoms: C_11  and  C_13
REMARK    4  A    between atoms: C_11  and  N_25
REMARK    5  A    between atoms: N_15  and  C_16
REMARK    6  A    between atoms: C_19  and  C_22
REMARK    7  A    between atoms: C_22  and  C_23
REMARK    8  A    between atoms: C_26  and  C_28
REMARK                            x       y       z     vdW  Elec       q    Type
REMARK                         _______ _______ _______ _____ _____    ______ ____
ROOT
ATOM      1  C   UNL     1       0.460  -3.655  -1.467  0.00  0.00    +0.163 C 
ENDROOT
BRANCH   1   2
ATOM      2  C   UNL     1      -0.385  -4.903  -1.451  0.00  0.00    +0.238 C 
ATOM      3  O   UNL     1      -1.463  -4.913  -2.007  0.00  0.00    -0.273 OA
ATOM      4  N   UNL     1       0.057  -6.008  -0.819  0.00  0.00    -0.284 N 
ATOM      5  H   UNL     1       0.946  -6.023  -0.432  0.00  0.00    +0.155 HD
BRANCH   4   6
ATOM      6  C   UNL     1      -0.768  -7.135  -0.720  0.00  0.00    +0.033 A 
ATOM      7  C   UNL     1      -0.730  -7.926   0.420  0.00  0.00    +0.023 A 
ATOM      8  C   UNL     1      -1.545  -9.038   0.515  0.00  0.00    +0.006 A 
ATOM      9  C   UNL     1      -2.398  -9.362  -0.525  0.00  0.00    -0.034 A 
ATOM     10  C   UNL     1      -2.437  -8.576  -1.662  0.00  0.00    +0.006 A 
ATOM     11  C   UNL     1      -1.629  -7.460  -1.760  0.00  0.00    +0.023 A 
BRANCH   9  12
ATOM     12  C   UNL     1      -3.285 -10.575  -0.418  0.00  0.00    +0.153 C 
BRANCH  12  13
ATOM     13  C   UNL     1      -4.570 -10.191   0.190  0.00  0.00    +0.067 C 
ATOM     14  N   UNL     1      -5.561  -9.896   0.659  0.00  0.00    -0.196 NA
ENDBRANCH  12  13
ENDBRANCH   9  12
ENDBRANCH   4   6
ENDBRANCH   1   2
BRANCH   1  15
ATOM     15  N   UNL     1      -0.237  -2.604  -2.212  0.00  0.00    -0.300 N 
ATOM     16  C   UNL     1       0.466  -1.611  -2.793  0.00  0.00    +0.245 C 
ATOM     17  O   UNL     1       1.678  -1.589  -2.699  0.00  0.00    -0.270 OA
ATOM     18  H   UNL     1      -1.204  -2.621  -2.288  0.00  0.00    +0.150 HD
BRANCH  16  19
ATOM     19  C   UNL     1      -0.236  -0.551  -3.545  0.00  0.00    +0.037 A 
ATOM     20  C   UNL     1      -1.628  -0.571  -3.650  0.00  0.00    +0.016 A 
ATOM     21  C   UNL     1      -2.278   0.421  -4.352  0.00  0.00    +0.039 A 
ATOM     22  C   UNL     1      -1.552   1.438  -4.954  0.00  0.00    +0.123 A 
ATOM     23  C   UNL     1      -0.169   1.462  -4.853  0.00  0.00    +0.039 A 
ATOM     24  C   UNL     1       0.490   0.479  -4.148  0.00  0.00    +0.016 A 
ATOM     25  F   UNL     1      -2.194   2.407  -5.642  0.00  0.00    -0.205 F 
ENDBRANCH  16  19
ENDBRANCH   1  15
BRANCH   1  26
ATOM     26  C   UNL     1       0.704  -3.187  -0.032  0.00  0.00    +0.065 C 
BRANCH  26  33
ATOM     27  C   UNL     1       0.012   1.349   0.001  0.00  0.00    +0.001 A 
ATOM     28  C   UNL     1       1.196   2.099  -0.015  0.00  0.00    +0.002 A 
ATOM     29  C   UNL     1       2.420   1.529  -0.037  0.00  0.00    +0.026 A 
ATOM     30  C   UNL     1       2.553   0.113  -0.045  0.00  0.00    +0.043 A 
ATOM     31  N   UNL     1       3.608  -0.664  -0.066  0.00  0.00    -0.380 N 
ATOM     32  C   UNL     1       3.160  -2.062  -0.066  0.00  0.00    +0.144 C 
ATOM     33  C   UNL     1       1.649  -2.012  -0.041  0.00  0.00    -0.039 C 
ATOM     34  C   UNL     1       1.317  -0.701  -0.029  0.00  0.00    -0.001 A 
ATOM     35  C   UNL     1       0.026  -0.003  -0.005  0.00  0.00    +0.010 A 
ATOM     36  H   UNL     1       4.531  -0.366  -0.080  0.00  0.00    +0.160 HD
ENDBRANCH  26  33
ENDBRANCH   1  26
TORSDOF 8
