REMARK  Name = ZINC28052229
REMARK  3 active torsions:
REMARK  status: ('A' for Active; 'I' for Inactive)
REMARK    1  A    between atoms: C_1  and  C_2
REMARK    2  A    between atoms: C_10  and  C_12
REMARK    3  A    between atoms: C_23  and  C_26
REMARK                            x       y       z     vdW  Elec       q    Type
REMARK                         _______ _______ _______ _____ _____    ______ ____
ROOT
ATOM      1  C   UNL     1       1.800   6.850   0.922  0.00  0.00    +0.069 C 
ATOM      2  C   UNL     1       2.715   5.669   0.727  0.00  0.00    +0.087 A 
ATOM      3  C   UNL     1       2.347   4.379   0.353  0.00  0.00    +0.049 A 
ATOM      4  C   UNL     1       3.528   3.683   0.314  0.00  0.00    +0.226 A 
ATOM      5  O   UNL     1       4.481   4.548   0.646  0.00  0.00    -0.339 OA
ATOM      6  N   UNL     1       4.016   5.648   0.874  0.00  0.00    -0.081 NA
ATOM      7  N   UNL     1       3.558   2.345  -0.021  0.00  0.00    -0.286 N 
ATOM      8  C   UNL     1       2.376   1.644  -0.036  0.00  0.00    +0.019 C 
ATOM      9  C   UNL     1       1.171   2.251   0.003  0.00  0.00    +0.024 C 
ATOM     10  C   UNL     1       1.024   3.759   0.037  0.00  0.00    +0.091 C 
ATOM     11  C   UNL     1      -0.018   1.499   0.010  0.00  0.00    +0.162 C 
ATOM     12  O   UNL     1      -1.087   2.078   0.018  0.00  0.00    -0.292 OA
ATOM     13  C   UNL     1       0.002  -0.004   0.002  0.00  0.00    +0.088 C 
ATOM     14  C   UNL     1       1.300  -0.487   0.658  0.00  0.00    +0.032 C 
ATOM     15  C   UNL     1       2.478   0.137  -0.092  0.00  0.00    +0.059 C 
ATOM     16  H   UNL     1       4.514   1.862  -0.270  0.00  0.00    +0.155 HD
ENDROOT
BRANCH  10  17
ATOM     17  C   UNL     1       0.548   4.248  -1.307  0.00  0.00    -0.034 A 
ATOM     18  C   UNL     1      -0.648   4.935  -1.408  0.00  0.00    +0.007 A 
ATOM     19  C   UNL     1      -1.085   5.384  -2.639  0.00  0.00    +0.040 A 
ATOM     20  C   UNL     1      -0.326   5.146  -3.772  0.00  0.00    +0.137 A 
ATOM     21  C   UNL     1       0.872   4.458  -3.670  0.00  0.00    +0.053 A 
ATOM     22  C   UNL     1       1.310   4.014  -2.436  0.00  0.00    +0.022 A 
ATOM     23 BR   UNL     1       1.910   4.132  -5.217  0.00  0.00    -0.047 Br
ATOM     24  F   UNL     1      -0.754   5.584  -4.977  0.00  0.00    -0.204 F 
ENDBRANCH  10  17
BRANCH  14  25
ATOM     25  C   UNL     1       1.383  -1.990   0.575  0.00  0.00    -0.043 A 
ATOM     26  C   UNL     1       1.377  -2.614  -0.658  0.00  0.00    +0.005 A 
ATOM     27  C   UNL     1       1.459  -3.992  -0.736  0.00  0.00    +0.020 A 
ATOM     28  C   UNL     1       1.535  -4.746   0.422  0.00  0.00    +0.041 A 
ATOM     29  C   UNL     1       1.534  -4.120   1.656  0.00  0.00    +0.020 A 
ATOM     30  C   UNL     1       1.458  -2.743   1.732  0.00  0.00    +0.005 A 
ATOM     31 CL   UNL     1       1.631  -6.477   0.326  0.00  0.00    -0.084 Cl
ENDBRANCH  14  25
TORSDOF 2
