REMARK  Name = ZINC39748370
REMARK  9 active torsions:
REMARK  status: ('A' for Active; 'I' for Inactive)
REMARK    1  A    between atoms: C_1  and  C_2
REMARK    2  A    between atoms: C_2  and  O_3
REMARK    3  A    between atoms: O_3  and  C_4
REMARK    4  A    between atoms: C_8  and  C_10
REMARK    5  A    between atoms: C_25  and  N_32
REMARK    6  A    between atoms: C_26  and  C_27
REMARK    7  A    between atoms: C_27  and  O_29
REMARK    8  A    between atoms: O_29  and  C_30
REMARK    9  A    between atoms: C_30  and  C_31
REMARK                            x       y       z     vdW  Elec       q    Type
REMARK                         _______ _______ _______ _____ _____    ______ ____
ROOT
ATOM      1  C   UNL     1      -4.166  -4.464   0.051  0.00  0.00    +0.080 C 
ATOM      2  C   UNL     1      -4.417  -5.370   1.261  0.00  0.00    +0.154 C 
ATOM      3  C   UNL     1      -5.741  -6.060   0.980  0.00  0.00    +0.129 C 
ATOM      4  C   UNL     1      -6.777  -5.877   1.884  0.00  0.00    +0.035 A 
ATOM      5  C   UNL     1      -8.028  -6.500   1.701  0.00  0.00    +0.013 A 
ATOM      6  C   UNL     1      -9.018  -6.302   2.613  0.00  0.00    +0.001 A 
ATOM      7  C   UNL     1      -8.823  -5.492   3.728  0.00  0.00    +0.002 A 
ATOM      8  C   UNL     1      -7.638  -4.861   3.958  0.00  0.00    +0.024 A 
ATOM      9  C   UNL     1      -6.571  -5.019   3.058  0.00  0.00    +0.044 A 
ATOM     10  N   UNL     1      -5.409  -4.392   3.280  0.00  0.00    -0.284 N 
ATOM     11  C   UNL     1      -4.335  -4.500   2.496  0.00  0.00    +0.229 C 
ATOM     12  O   UNL     1      -3.305  -3.906   2.756  0.00  0.00    -0.275 OA
ATOM     13  O   UNL     1      -5.854  -6.798  -0.127  0.00  0.00    -0.445 OA
ATOM     14  C   UNL     1      -5.285  -6.299  -1.248  0.00  0.00    +0.194 C 
ATOM     15  C   UNL     1      -4.478  -5.213  -1.216  0.00  0.00    +0.102 C 
ATOM     16  H   UNL     1      -5.338  -3.828   4.065  0.00  0.00    +0.155 HD
ENDROOT
BRANCH   1  21
ATOM     17  C   UNL     1      -1.069  -2.300   0.091  0.00  0.00    +0.121 A 
ATOM     18  C   UNL     1      -0.066  -3.255   0.010  0.00  0.00    +0.045 A 
ATOM     19  C   UNL     1      -0.393  -4.595  -0.058  0.00  0.00    +0.004 A 
ATOM     20  C   UNL     1      -1.720  -4.986  -0.044  0.00  0.00    +0.004 A 
ATOM     21  C   UNL     1      -2.721  -4.036   0.036  0.00  0.00    -0.035 A 
ATOM     22  C   UNL     1      -2.398  -2.694   0.110  0.00  0.00    +0.050 A 
BRANCH  17  23
ATOM     23  O   UNL     1      -0.749  -0.981   0.158  0.00  0.00    -0.492 OA
BRANCH  23  25
ATOM     24  C   UNL     1       0.803   0.871   0.218  0.00  0.00    +0.048 C 
ATOM     25  C   UNL     1       0.641  -0.648   0.134  0.00  0.00    +0.225 C 
ENDBRANCH  23  25
ENDBRANCH  17  23
ENDBRANCH   1  21
BRANCH  14  26
ATOM     26  N   UNL     1      -5.530  -6.910  -2.449  0.00  0.00    -0.329 N 
ATOM     27  H   UNL     1      -6.033  -7.739  -2.476  0.00  0.00    +0.145 HD
ATOM     28  H   UNL     1      -5.202  -6.515  -3.271  0.00  0.00    +0.145 HD
ENDBRANCH  14  26
BRANCH  15  29
ATOM     29  C   UNL     1      -3.908  -4.765  -2.419  0.00  0.00    +0.341 C 
ATOM     30  O   UNL     1      -4.365  -3.786  -2.982  0.00  0.00    -0.245 OA
BRANCH  29  31
ATOM     31  O   UNL     1      -2.854  -5.420  -2.952  0.00  0.00    -0.462 OA
BRANCH  31  32
ATOM     32  C   UNL     1      -2.325  -4.909  -4.177  0.00  0.00    +0.229 C 
ATOM     33  C   UNL     1      -1.144  -5.774  -4.623  0.00  0.00    +0.048 C 
ENDBRANCH  31  32
ENDBRANCH  29  31
ENDBRANCH  15  29
TORSDOF 7
