REMARK  Name = ZINC12532292
REMARK  6 active torsions:
REMARK  status: ('A' for Active; 'I' for Inactive)
REMARK    1  A    between atoms: C_6  and  C_7
REMARK    2  A    between atoms: N_11  and  C_15
REMARK    3  A    between atoms: C_15  and  C_16
REMARK    4  A    between atoms: C_16  and  N_17
REMARK    5  A    between atoms: C_18  and  C_20
REMARK    6  A    between atoms: C_20  and  N_21
REMARK                            x       y       z     vdW  Elec       q    Type
REMARK                         _______ _______ _______ _____ _____    ______ ____
ROOT
ATOM      1  C   UNL     1      -3.118  -5.337  -0.434  0.00  0.00    +0.136 C 
ENDROOT
BRANCH   1   6
ATOM      2  C   UNL     1      -1.258  -0.760   0.011  0.00  0.00    +0.028 C 
ATOM      3  C   UNL     1      -1.240  -2.111  -0.099  0.00  0.00    +0.080 C 
ATOM      4  C   UNL     1      -2.364  -3.062  -0.220  0.00  0.00    +0.260 C 
ATOM      5  O   UNL     1      -3.522  -2.686  -0.233  0.00  0.00    -0.269 OA
ATOM      6  N   UNL     1      -2.049  -4.343  -0.313  0.00  0.00    -0.227 N 
ATOM      7  C   UNL     1      -0.765  -4.756  -0.297  0.00  0.00    +0.286 C 
ATOM      8  O   UNL     1      -0.336  -5.891  -0.374  0.00  0.00    -0.262 OA
ATOM      9  S   UNL     1       0.153  -3.232  -0.146  0.00  0.00    -0.026 S 
BRANCH   2  15
ATOM     10  C   UNL     1       1.190  -0.641  -0.410  0.00  0.00    +0.009 A 
ATOM     11  C   UNL     1       2.364   0.078  -0.473  0.00  0.00    +0.022 A 
ATOM     12  C   UNL     1       2.366   1.433  -0.187  0.00  0.00    +0.059 A 
ATOM     13  C   UNL     1       1.189   2.077   0.164  0.00  0.00    +0.060 A 
ATOM     14  C   UNL     1       0.007   1.370   0.230  0.00  0.00    +0.029 A 
ATOM     15  C   UNL     1      -0.003   0.001  -0.058  0.00  0.00    -0.022 A 
ATOM     16 CL   UNL     1       1.204   3.776   0.522  0.00  0.00    -0.082 Cl
ATOM     17 CL   UNL     1       3.850   2.330  -0.267  0.00  0.00    -0.082 Cl
ENDBRANCH   2  15
ENDBRANCH   1   6
BRANCH   1  18
ATOM     18  C   UNL     1      -3.437  -5.566  -1.913  0.00  0.00    +0.123 C 
BRANCH  18  19
ATOM     19  N   UNL     1      -4.506  -6.559  -2.034  0.00  0.00    -0.312 N 
ATOM     20  C   UNL     1      -4.955  -6.921  -3.253  0.00  0.00    +0.231 C 
ATOM     21  O   UNL     1      -4.473  -6.425  -4.248  0.00  0.00    -0.274 OA
ATOM     22  H   UNL     1      -4.892  -6.957  -1.238  0.00  0.00    +0.149 HD
BRANCH  20  23
ATOM     23  C   UNL     1      -6.055  -7.944  -3.377  0.00  0.00    +0.212 C 
BRANCH  23  24
ATOM     24  N   UNL     1      -6.360  -8.162  -4.794  0.00  0.00    -0.233 N 
ATOM     25  C   UNL     1      -7.286  -7.440  -5.477  0.00  0.00    +0.226 C 
ATOM     26  O   UNL     1      -8.116  -6.693  -5.007  0.00  0.00    -0.275 OA
ATOM     27  C   UNL     1      -7.074  -7.752  -6.927  0.00  0.00    +0.091 C 
ATOM     28  C   UNL     1      -8.285  -7.801  -7.834  0.00  0.00    +0.040 C 
ATOM     29  C   UNL     1      -7.845  -8.468  -9.121  0.00  0.00    -0.030 C 
ATOM     30  C   UNL     1      -6.773  -9.191  -9.242  0.00  0.00    -0.030 C 
ATOM     31  C   UNL     1      -5.817  -9.499  -8.108  0.00  0.00    +0.040 C 
ATOM     32  C   UNL     1      -6.538  -9.213  -6.817  0.00  0.00    +0.091 C 
ATOM     33  C   UNL     1      -5.739  -9.103  -5.552  0.00  0.00    +0.226 C 
ATOM     34  O   UNL     1      -4.742  -9.730  -5.263  0.00  0.00    -0.275 OA
ENDBRANCH  23  24
ENDBRANCH  20  23
ENDBRANCH  18  19
ENDBRANCH   1  18
TORSDOF 6
