REMARK  Name = ZINC21221711
REMARK  6 active torsions:
REMARK  status: ('A' for Active; 'I' for Inactive)
REMARK    1  A    between atoms: C_1  and  C_2
REMARK    2  A    between atoms: C_2  and  O_3
REMARK    3  A    between atoms: O_3  and  C_4
REMARK    4  A    between atoms: C_6  and  C_11
REMARK    5  A    between atoms: C_9  and  O_10
REMARK    6  A    between atoms: C_16  and  C_21
REMARK                            x       y       z     vdW  Elec       q    Type
REMARK                         _______ _______ _______ _____ _____    ______ ____
ROOT
ATOM      1  C   UNL     1      -0.644   5.870  -1.289  0.00  0.00    +0.136 C 
ATOM      2  C   UNL     1      -2.111   5.572  -1.492  0.00  0.00    +0.036 C 
ATOM      3  C   UNL     1      -2.828   4.651  -0.828  0.00  0.00    +0.017 C 
ATOM      4  C   UNL     1      -4.295   4.433  -1.162  0.00  0.00    +0.060 C 
ATOM      5  C   UNL     1      -4.934   5.758  -1.576  0.00  0.00    +0.039 C 
ATOM      6  C   UNL     1      -4.184   6.271  -2.811  0.00  0.00    +0.088 C 
ATOM      7  C   UNL     1      -2.727   6.380  -2.478  0.00  0.00    +0.163 C 
ATOM      8  O   UNL     1      -2.049   7.193  -3.075  0.00  0.00    -0.292 OA
ATOM      9  N   UNL     1      -2.343   3.848   0.153  0.00  0.00    -0.316 N 
ATOM     10  C   UNL     1      -1.149   3.140   0.079  0.00  0.00    +0.052 A 
ATOM     11  C   UNL     1      -1.108   1.756   0.086  0.00  0.00    +0.025 A 
ATOM     12  C   UNL     1       0.118   1.113   0.075  0.00  0.00    +0.002 A 
ATOM     13  C   UNL     1       1.290   1.847   0.044  0.00  0.00    +0.002 A 
ATOM     14  C   UNL     1       1.250   3.230   0.015  0.00  0.00    +0.025 A 
ATOM     15  C   UNL     1       0.025   3.876   0.016  0.00  0.00    +0.049 A 
ATOM     16  N   UNL     1      -0.068   5.261  -0.109  0.00  0.00    -0.331 N 
ATOM     17  H   UNL     1      -2.906   3.723   1.089  0.00  0.00    +0.152 HD
ATOM     18  H   UNL     1       0.307   5.894   0.709  0.00  0.00    +0.147 HD
ENDROOT
BRANCH   1  21
ATOM     19  C   UNL     1       1.492   5.839  -4.405  0.00  0.00    +0.162 A 
ATOM     20  C   UNL     1       0.794   6.285  -3.294  0.00  0.00    +0.055 A 
ATOM     21  C   UNL     1       0.115   5.383  -2.497  0.00  0.00    -0.019 A 
ATOM     22  C   UNL     1       0.134   4.035  -2.802  0.00  0.00    +0.009 A 
ATOM     23  C   UNL     1       0.824   3.584  -3.912  0.00  0.00    +0.049 A 
ATOM     24  C   UNL     1       1.507   4.482  -4.715  0.00  0.00    +0.158 A 
BRANCH  24  25
ATOM     25  O   UNL     1       2.191   4.040  -5.804  0.00  0.00    -0.503 OA
ATOM     26  H   UNL     1       2.202   2.967  -6.048  0.00  0.00    +0.292 HD
ENDBRANCH  24  25
BRANCH  19  27
ATOM     27  O   UNL     1       2.162   6.725  -5.190  0.00  0.00    -0.489 OA
BRANCH  27  29
ATOM     28  C   UNL     1       2.909   8.939  -5.805  0.00  0.00    +0.048 C 
ATOM     29  C   UNL     1       2.103   8.101  -4.811  0.00  0.00    +0.226 C 
ENDBRANCH  27  29
ENDBRANCH  19  27
ENDBRANCH   1  21
BRANCH   5  30
ATOM     30  C   UNL     1      -6.386   5.540  -1.914  0.00  0.00    -0.006 A 
ATOM     31  C   UNL     1      -7.485   6.116  -1.368  0.00  0.00    +0.011 A 
ATOM     32  C   UNL     1      -8.734   5.761  -1.843  0.00  0.00    +0.008 A 
ATOM     33  C   UNL     1      -8.822   4.847  -2.840  0.00  0.00    +0.045 A 
ATOM     34  S   UNL     1      -7.105   4.463  -3.143  0.00  0.00    -0.101 S 
ENDBRANCH   5  30
TORSDOF 5
