REMARK  Name = ZINC20484544
REMARK  8 active torsions:
REMARK  status: ('A' for Active; 'I' for Inactive)
REMARK    1  A    between atoms: C_1  and  C_2
REMARK    2  A    between atoms: C_6  and  C_8
REMARK    3  A    between atoms: C_8  and  N_9
REMARK    4  A    between atoms: C_12  and  C_15
REMARK    5  A    between atoms: C_15  and  N_16
REMARK    6  A    between atoms: N_16  and  S_17
REMARK    7  A    between atoms: S_17  and  C_20
REMARK    8  A    between atoms: C_29  and  C_34
REMARK                            x       y       z     vdW  Elec       q    Type
REMARK                         _______ _______ _______ _____ _____    ______ ____
ROOT
ATOM      1  S   UNL     1       4.724   0.973   1.888  0.00  0.00    +0.058 S 
ATOM      2  O   UNL     1       4.389  -0.396   2.073  0.00  0.00    -0.153 OA
ATOM      3  O   UNL     1       5.970   1.385   1.341  0.00  0.00    -0.153 OA
ENDROOT
BRANCH   1   4
ATOM      4  C   UNL     1       3.470   1.664   0.861  0.00  0.00    +0.107 A 
ATOM      5  C   UNL     1       3.737   2.792   0.105  0.00  0.00    +0.030 A 
ATOM      6  C   UNL     1       2.754   3.329  -0.696  0.00  0.00    +0.027 A 
ATOM      7  C   UNL     1       1.485   2.748  -0.757  0.00  0.00    +0.055 A 
ATOM      8  C   UNL     1       1.218   1.619  -0.001  0.00  0.00    +0.057 A 
ATOM      9  C   UNL     1       2.222   1.083   0.809  0.00  0.00    +0.053 A 
ATOM     10  N   UNL     1      -0.011   0.966   0.007  0.00  0.00    -0.283 N 
ATOM     11  C   UNL     1      -1.203   1.558   0.017  0.00  0.00    +0.229 C 
ATOM     12  O   UNL     1      -2.206   0.876   0.058  0.00  0.00    -0.275 OA
ATOM     13  C   UNL     1      -1.330   3.058  -0.018  0.00  0.00    +0.158 C 
ATOM     14  C   UNL     1      -0.732   3.549  -1.311  0.00  0.00    +0.229 C 
ATOM     15  O   UNL     1      -1.437   4.129  -2.110  0.00  0.00    -0.275 OA
ATOM     16  N   UNL     1       0.554   3.357  -1.593  0.00  0.00    -0.283 N 
ATOM     17  C   UNL     1      -0.577   3.671   1.164  0.00  0.00    +0.027 C 
ATOM     18  H   UNL     1      -0.050  -0.134   0.007  0.00  0.00    +0.155 HD
ATOM     19  H   UNL     1       0.862   3.727  -2.582  0.00  0.00    +0.155 HD
ENDBRANCH   1   4
BRANCH   1  20
ATOM     20  N   UNL     1       4.596   1.696   3.372  0.00  0.00    -0.190 NA
ATOM     21  H   UNL     1       5.334   2.458   3.664  0.00  0.00    +0.148 HD
BRANCH  20  22
ATOM     22  C   UNL     1       3.397   1.487   4.187  0.00  0.00    +0.109 C 
BRANCH  22  26
ATOM     23  N   UNL     1       3.711   1.328   8.447  0.00  0.00    +0.382 N 
ATOM     24  C   UNL     1       2.683   2.221   7.898  0.00  0.00    -0.078 C 
ATOM     25  C   UNL     1       2.387   1.831   6.448  0.00  0.00    -0.014 C 
ATOM     26  C   UNL     1       3.673   1.935   5.624  0.00  0.00    +0.001 C 
ATOM     27  C   UNL     1       4.743   1.032   6.244  0.00  0.00    -0.014 C 
ATOM     28  C   UNL     1       4.970   1.445   7.700  0.00  0.00    -0.078 C 
ATOM     29  H   UNL     1       3.350   0.294   8.336  0.00  0.00    -0.081 HD
BRANCH  23  30
ATOM     30  C   UNL     1       3.921   1.584   9.878  0.00  0.00    -0.043 C 
BRANCH  30  36
ATOM     31  C   UNL     1       8.463  -0.188  11.009  0.00  0.00    +0.044 C 
ATOM     32  C   UNL     1       6.964  -0.348  11.001  0.00  0.00    -0.050 A 
ATOM     33  C   UNL     1       6.388  -1.489  11.527  0.00  0.00    +0.003 A 
ATOM     34  C   UNL     1       5.013  -1.636  11.520  0.00  0.00    +0.000 A 
ATOM     35  C   UNL     1       4.215  -0.639  10.990  0.00  0.00    +0.002 A 
ATOM     36  C   UNL     1       4.791   0.500  10.460  0.00  0.00    -0.064 A 
ATOM     37  C   UNL     1       6.166   0.646  10.468  0.00  0.00    +0.005 A 
ENDBRANCH  30  36
ENDBRANCH  23  30
ENDBRANCH  22  26
ENDBRANCH  20  22
ENDBRANCH   1  20
TORSDOF 6
