REMARK  Name = ZINC23643440
REMARK  7 active torsions:
REMARK  status: ('A' for Active; 'I' for Inactive)
REMARK    1  A    between atoms: C_5  and  C_7
REMARK    2  A    between atoms: C_7  and  C_8
REMARK    3  A    between atoms: C_8  and  N_9
REMARK    4  A    between atoms: C_10  and  C_12
REMARK    5  A    between atoms: C_12  and  C_13
REMARK    6  A    between atoms: C_13  and  N_14
REMARK    7  A    between atoms: C_15  and  C_17
REMARK                            x       y       z     vdW  Elec       q    Type
REMARK                         _______ _______ _______ _____ _____    ______ ____
ROOT
ATOM      1  C   UNL     1      -6.517   0.837   1.080  0.00  0.00    +0.113 C 
ENDROOT
BRANCH   1   2
ATOM      2  N   UNL     1      -5.143   1.344   1.069  0.00  0.00    -0.314 N 
ATOM      3  C   UNL     1      -4.318   1.035   0.049  0.00  0.00    +0.219 C 
ATOM      4  O   UNL     1      -4.714   0.337  -0.861  0.00  0.00    -0.275 OA
ATOM      5  H   UNL     1      -4.784   1.976   1.894  0.00  0.00    +0.149 HD
BRANCH   3   6
ATOM      6  C   UNL     1      -2.904   1.556   0.038  0.00  0.00    +0.048 C 
ATOM      7  C   UNL     1      -2.188   1.063  -1.221  0.00  0.00    +0.019 C 
ATOM      8  C   UNL     1      -0.753   1.593  -1.232  0.00  0.00    -0.009 C 
ATOM      9  C   UNL     1      -0.013   1.086   0.008  0.00  0.00    +0.007 C 
ATOM     10  C   UNL     1      -0.729   1.579   1.267  0.00  0.00    -0.009 C 
ATOM     11  C   UNL     1      -2.164   1.050   1.278  0.00  0.00    +0.019 C 
ATOM     12  C   UNL     1      -0.750   3.109   1.275  0.00  0.00    +0.007 C 
ATOM     13  C   UNL     1      -1.490   3.616   0.036  0.00  0.00    -0.009 C 
ATOM     14  C   UNL     1      -0.773   3.123  -1.223  0.00  0.00    +0.007 C 
ATOM     15  C   UNL     1      -2.925   3.086   0.047  0.00  0.00    +0.019 C 
ENDBRANCH   3   6
ENDBRANCH   1   2
BRANCH   1  16
ATOM     16  C   UNL     1      -7.233   1.330   2.338  0.00  0.00    +0.114 C 
BRANCH  16  18
ATOM     17  N   UNL     1      -9.471   1.117   3.370  0.00  0.00    -0.315 N 
ATOM     18  C   UNL     1      -8.647   0.808   2.349  0.00  0.00    +0.215 C 
ATOM     19  O   UNL     1      -9.043   0.111   1.440  0.00  0.00    -0.276 OA
ATOM     20  H   UNL     1      -9.112   1.750   4.195  0.00  0.00    +0.149 HD
BRANCH  17  21
ATOM     21  C   UNL     1     -10.846   0.610   3.380  0.00  0.00    +0.109 C 
BRANCH  21  22
ATOM     22  C   UNL     1     -11.562   1.104   4.639  0.00  0.00    +0.056 C 
BRANCH  22  27
ATOM     23  C   UNL     1     -15.301   0.885   4.167  0.00  0.00    +0.000 A 
ATOM     24  C   UNL     1     -15.571  -0.375   4.669  0.00  0.00    +0.003 A 
ATOM     25  C   UNL     1     -14.544  -1.158   5.161  0.00  0.00    +0.038 A 
ATOM     26  C   UNL     1     -13.245  -0.680   5.152  0.00  0.00    +0.127 A 
ATOM     27  C   UNL     1     -12.976   0.582   4.649  0.00  0.00    -0.011 A 
ATOM     28  C   UNL     1     -14.005   1.365   4.163  0.00  0.00    +0.006 A 
ATOM     29  F   UNL     1     -12.240  -1.444   5.633  0.00  0.00    -0.205 F 
ENDBRANCH  22  27
ENDBRANCH  21  22
ENDBRANCH  17  21
ENDBRANCH  16  18
ENDBRANCH   1  16
TORSDOF 7
