REMARK  Name = ZINC16682565
REMARK  14 active torsions:
REMARK  status: ('A' for Active; 'I' for Inactive)
REMARK    1  A    between atoms: C_1  and  C_2
REMARK    2  A    between atoms: C_2  and  O_3
REMARK    3  A    between atoms: O_3  and  C_4
REMARK    4  A    between atoms: C_4  and  C_6
REMARK    5  A    between atoms: C_7  and  S_33
REMARK    6  A    between atoms: C_9  and  C_14
REMARK    7  A    between atoms: C_14  and  C_28
REMARK    8  A    between atoms: C_18  and  C_20
REMARK    9  A    between atoms: C_23  and  O_26
REMARK   10  A    between atoms: O_26  and  C_27
REMARK   11  A    between atoms: C_28  and  O_30
REMARK   12  A    between atoms: O_30  and  C_31
REMARK   13  A    between atoms: C_31  and  C_32
REMARK   14  A    between atoms: S_33  and  C_34
REMARK                            x       y       z     vdW  Elec       q    Type
REMARK                         _______ _______ _______ _____ _____    ______ ____
ROOT
ATOM      1  C   UNL     1       3.742  -3.595   5.820  0.00  0.00    +0.130 C 
ATOM      2  C   UNL     1       3.655  -3.816   7.181  0.00  0.00    +0.221 C 
ATOM      3  N   UNL     1       2.533  -3.707   7.949  0.00  0.00    -0.203 N 
ATOM      4  N   UNL     1       2.913  -4.021   9.263  0.00  0.00    -0.141 NA
ATOM      5  C   UNL     1       4.186  -4.296   9.255  0.00  0.00    +0.244 C 
ATOM      6  O   UNL     1       4.661  -4.184   7.997  0.00  0.00    -0.420 OA
ATOM      7  H   UNL     1       1.645  -3.459   7.646  0.00  0.00    +0.178 HD
ENDROOT
BRANCH   1  11
ATOM      8  C   UNL     1       1.117  -2.186   2.622  0.00  0.00    +0.118 C 
ATOM      9  C   UNL     1       1.023  -3.582   2.711  0.00  0.00    +0.060 C 
ATOM     10  S   UNL     1       2.171  -4.423   3.760  0.00  0.00    -0.086 S 
ATOM     11  C   UNL     1       2.517  -3.184   5.044  0.00  0.00    +0.211 C 
ATOM     12  N   UNL     1       2.749  -1.887   4.419  0.00  0.00    -0.249 NA
ATOM     13  C   UNL     1       2.140  -1.455   3.365  0.00  0.00    +0.128 C 
ATOM     14  N   UNL     1       2.477  -0.198   2.906  0.00  0.00    -0.343 N 
ATOM     15  H   UNL     1       2.205   0.084   2.018  0.00  0.00    +0.144 HD
ATOM     16  H   UNL     1       2.985   0.405   3.472  0.00  0.00    +0.144 HD
BRANCH   8  17
ATOM     17  C   UNL     1       0.213  -1.477   1.799  0.00  0.00    +0.344 C 
ATOM     18  O   UNL     1      -0.566  -2.084   1.087  0.00  0.00    -0.245 OA
BRANCH  17  19
ATOM     19  O   UNL     1       0.213  -0.127   1.802  0.00  0.00    -0.461 OA
BRANCH  19  21
ATOM     20  C   UNL     1      -0.579   2.040   1.083  0.00  0.00    +0.048 C 
ATOM     21  C   UNL     1      -0.727   0.524   0.945  0.00  0.00    +0.229 C 
ENDBRANCH  19  21
ENDBRANCH  17  19
ENDBRANCH   8  17
BRANCH   9  22
ATOM     22  S   UNL     1      -0.200  -4.470   1.805  0.00  0.00    -0.121 S 
ATOM     23  C   UNL     1       0.094  -6.203   2.254  0.00  0.00    +0.090 C 
ENDBRANCH   9  22
ENDBRANCH   1  11
BRANCH   5  24
ATOM     24  C   UNL     1       4.984  -4.678  10.440  0.00  0.00    +0.038 A 
ATOM     25  C   UNL     1       6.348  -4.945  10.308  0.00  0.00    +0.017 A 
ATOM     26  C   UNL     1       7.088  -5.300  11.414  0.00  0.00    +0.046 A 
ATOM     27  C   UNL     1       6.480  -5.393  12.659  0.00  0.00    +0.120 A 
ATOM     28  C   UNL     1       5.123  -5.128  12.795  0.00  0.00    +0.046 A 
ATOM     29  C   UNL     1       4.377  -4.766  11.694  0.00  0.00    +0.017 A 
BRANCH  27  30
ATOM     30  O   UNL     1       7.213  -5.744  13.748  0.00  0.00    -0.495 OA
ATOM     31  C   UNL     1       6.525  -5.820  14.997  0.00  0.00    +0.277 C 
ENDBRANCH  27  30
ENDBRANCH   5  24
BRANCH   1  32
ATOM     32  C   UNL     1       4.964  -3.751   5.164  0.00  0.00    +0.343 C 
ATOM     33  O   UNL     1       5.955  -4.083   5.792  0.00  0.00    -0.245 OA
BRANCH  32  34
ATOM     34  O   UNL     1       5.049  -3.535   3.832  0.00  0.00    -0.461 OA
BRANCH  34  35
ATOM     35  C   UNL     1       6.330  -3.714   3.226  0.00  0.00    +0.229 C 
ATOM     36  C   UNL     1       6.230  -3.427   1.726  0.00  0.00    +0.048 C 
ENDBRANCH  34  35
ENDBRANCH  32  34
ENDBRANCH   1  32
TORSDOF 10
