REMARK  Name = ZINC20764119
REMARK  6 active torsions:
REMARK  status: ('A' for Active; 'I' for Inactive)
REMARK    1  A    between atoms: C_1  and  O_2
REMARK    2  A    between atoms: O_2  and  C_3
REMARK    3  A    between atoms: C_7  and  C_10
REMARK    4  A    between atoms: C_8  and  O_9
REMARK    5  A    between atoms: C_13  and  C_25
REMARK    6  A    between atoms: C_15  and  C_18
REMARK                            x       y       z     vdW  Elec       q    Type
REMARK                         _______ _______ _______ _____ _____    ______ ____
ROOT
ATOM      1  C   UNL     1       6.143  -0.776   0.332  0.00  0.00    +0.095 C 
ATOM      2  C   UNL     1       4.962   0.124  -0.050  0.00  0.00    +0.079 C 
ATOM      3  C   UNL     1       3.693  -0.683  -0.036  0.00  0.00    +0.047 C 
ATOM      4  N   UNL     1       3.679  -1.962  -0.042  0.00  0.00    -0.264 NA
ATOM      5  C   UNL     1       4.876  -2.794  -0.046  0.00  0.00    +0.205 C 
ATOM      6  N   UNL     1       6.048  -2.013  -0.462  0.00  0.00    -0.284 NA
ATOM      7  H   UNL     1       5.951  -1.759  -1.528  0.00  0.00    +0.125 HD
ENDROOT
BRANCH   5   8
ATOM      8  C   UNL     1       5.109  -3.337   1.340  0.00  0.00    +0.009 A 
ATOM      9  C   UNL     1       6.399  -3.510   1.807  0.00  0.00    +0.008 A 
ATOM     10  C   UNL     1       6.612  -4.004   3.080  0.00  0.00    +0.000 A 
ATOM     11  C   UNL     1       5.536  -4.334   3.884  0.00  0.00    +0.001 A 
ATOM     12  C   UNL     1       4.247  -4.166   3.417  0.00  0.00    +0.020 A 
ATOM     13  C   UNL     1       4.032  -3.667   2.144  0.00  0.00    +0.047 A 
ATOM     14 CL   UNL     1       2.413  -3.456   1.555  0.00  0.00    -0.083 Cl
ENDBRANCH   5   8
BRANCH   3  15
ATOM     15  C   UNL     1       2.404   0.035  -0.020  0.00  0.00    -0.004 A 
ATOM     16  C   UNL     1       1.204  -0.680  -0.013  0.00  0.00    +0.011 A 
ATOM     17  C   UNL     1       0.002  -0.004   0.002  0.00  0.00    +0.020 A 
ATOM     18  C   UNL     1      -0.017   1.381   0.010  0.00  0.00    +0.041 A 
ATOM     19  C   UNL     1       1.170   2.095   0.002  0.00  0.00    +0.020 A 
ATOM     20  C   UNL     1       2.378   1.431  -0.013  0.00  0.00    +0.011 A 
ATOM     21 CL   UNL     1      -1.534   2.225   0.021  0.00  0.00    -0.084 Cl
ENDBRANCH   3  15
BRANCH   1  26
ATOM     22  C   UNL     1       9.198   1.433   0.667  0.00  0.00    +0.162 A 
ATOM     23  C   UNL     1       9.821   1.221  -0.552  0.00  0.00    +0.049 A 
ATOM     24  C   UNL     1       9.255   0.366  -1.478  0.00  0.00    +0.004 A 
ATOM     25  C   UNL     1       8.066  -0.279  -1.192  0.00  0.00    +0.009 A 
ATOM     26  C   UNL     1       7.439  -0.072   0.023  0.00  0.00    +0.015 A 
ATOM     27  C   UNL     1       7.999   0.788   0.954  0.00  0.00    +0.163 A 
BRANCH  22  29
ATOM     28  C   UNL     1      10.983   2.906   1.215  0.00  0.00    +0.277 C 
ATOM     29  O   UNL     1       9.754   2.274   1.580  0.00  0.00    -0.491 OA
ENDBRANCH  22  29
BRANCH  27  30
ATOM     30  O   UNL     1       7.381   0.997   2.147  0.00  0.00    -0.503 OA
ATOM     31  H   UNL     1       6.433   0.486   2.373  0.00  0.00    +0.292 HD
ENDBRANCH  27  30
ENDBRANCH   1  26
TORSDOF 5
