REMARK  Name = ZINC21079703
REMARK  6 active torsions:
REMARK  status: ('A' for Active; 'I' for Inactive)
REMARK    1  A    between atoms: C_9  and  C_11
REMARK    2  A    between atoms: C_11  and  S_12
REMARK    3  A    between atoms: S_12  and  C_13
REMARK    4  A    between atoms: N_19  and  N_20
REMARK    5  A    between atoms: C_21  and  C_22
REMARK    6  A    between atoms: C_27  and  O_28
REMARK                            x       y       z     vdW  Elec       q    Type
REMARK                         _______ _______ _______ _____ _____    ______ ____
ROOT
ATOM      1  C   UNL     1       5.022  -5.295  -1.617  0.00  0.00    +0.210 A 
ATOM      2  N   UNL     1       5.493  -6.024  -2.635  0.00  0.00    -0.186 NA
ATOM      3  C   UNL     1       6.162  -7.057  -2.168  0.00  0.00    +0.232 A 
ATOM      4  N   UNL     1       6.128  -7.000  -0.819  0.00  0.00    -0.245 N 
ATOM      5  H   UNL     1       6.535  -7.627  -0.201  0.00  0.00    +0.192 HD
ATOM      6  N   UNL     1       5.391  -5.852  -0.488  0.00  0.00    -0.144 NA
ATOM      7  N   UNL     1       6.790  -8.028  -2.925  0.00  0.00    -0.205 N 
ATOM      8  H   UNL     1       7.261  -8.755  -2.487  0.00  0.00    +0.177 HD
ENDROOT
BRANCH   7   9
ATOM      9  N   UNL     1       6.746  -7.964  -4.324  0.00  0.00    -0.187 NA
ATOM     10  C   UNL     1       7.335  -8.876  -5.035  0.00  0.00    +0.142 C 
BRANCH  10  11
ATOM     11  C   UNL     1       7.289  -8.808  -6.506  0.00  0.00    +0.039 A 
ATOM     12  C   UNL     1       7.917  -9.791  -7.275  0.00  0.00    +0.033 A 
ATOM     13  C   UNL     1       7.870  -9.722  -8.652  0.00  0.00    +0.043 A 
ATOM     14  C   UNL     1       7.202  -8.681  -9.277  0.00  0.00    +0.043 A 
ATOM     15  C   UNL     1       6.577  -7.702  -8.526  0.00  0.00    +0.084 A 
ATOM     16  C   UNL     1       6.610  -7.760  -7.141  0.00  0.00    +0.144 A 
ATOM     17 CL   UNL     1       5.744  -6.401  -9.319  0.00  0.00    -0.080 Cl
ATOM     18 CL   UNL     1       8.651 -10.944  -9.607  0.00  0.00    -0.083 Cl
BRANCH  16  19
ATOM     19  O   UNL     1       5.990  -6.802  -6.403  0.00  0.00    -0.505 OA
ATOM     20  H   UNL     1       6.553  -6.045  -6.191  0.00  0.00    +0.292 HD
ENDBRANCH  16  19
ENDBRANCH  10  11
ENDBRANCH   7   9
BRANCH   1  21
ATOM     21  S   UNL     1       4.069  -3.821  -1.768  0.00  0.00    -0.077 S 
BRANCH  21  22
ATOM     22  C   UNL     1       3.757  -3.322  -0.052  0.00  0.00    +0.151 C 
BRANCH  22  31
ATOM     23  C   UNL     1      -0.017   1.374   0.010  0.00  0.00    +0.002 A 
ATOM     24  C   UNL     1       1.170   2.094   0.002  0.00  0.00    +0.002 A 
ATOM     25  C   UNL     1       2.375   1.450  -0.013  0.00  0.00    +0.030 A 
ATOM     26  C   UNL     1       2.418   0.054  -0.021  0.00  0.00    +0.089 A 
ATOM     27  C   UNL     1       1.217  -0.675  -0.013  0.00  0.00    +0.066 A 
ATOM     28  C   UNL     1       0.002  -0.004   0.002  0.00  0.00    +0.028 A 
ATOM     29  N   UNL     1       1.580  -2.007  -0.024  0.00  0.00    -0.341 N 
ATOM     30  H   UNL     1       0.977  -2.767  -0.022  0.00  0.00    +0.167 HD
ATOM     31  C   UNL     1       2.939  -2.056  -0.038  0.00  0.00    +0.118 A 
ATOM     32  N   UNL     1       3.430  -0.852  -0.036  0.00  0.00    -0.232 NA
ENDBRANCH  22  31
ENDBRANCH  21  22
ENDBRANCH   1  21
TORSDOF 6
