REMARK  Name = ZINC05814167
REMARK  4 active torsions:
REMARK  status: ('A' for Active; 'I' for Inactive)
REMARK    1  A    between atoms: N_8  and  N_9
REMARK    2  A    between atoms: C_10  and  C_12
REMARK    3  A    between atoms: C_12  and  N_13
REMARK    4  A    between atoms: N_13  and  C_14
REMARK                            x       y       z     vdW  Elec       q    Type
REMARK                         _______ _______ _______ _____ _____    ______ ____
ROOT
ATOM      1  N   UNL     1       7.301  -0.393  -0.069  0.00  0.00    -0.205 N 
ATOM      2  C   UNL     1       6.037  -0.861  -0.059  0.00  0.00    +0.249 C 
ATOM      3  O   UNL     1       5.833  -2.056  -0.063  0.00  0.00    -0.272 OA
ATOM      4  H   UNL     1       7.486   0.692  -0.065  0.00  0.00    +0.177 HD
ENDROOT
BRANCH   1  12
ATOM      5  C   UNL     1      12.437  -3.428  -0.132  0.00  0.00    +0.001 A 
ATOM      6  C   UNL     1      13.478  -2.515  -0.137  0.00  0.00    +0.002 A 
ATOM      7  C   UNL     1      13.223  -1.158  -0.128  0.00  0.00    +0.024 A 
ATOM      8  C   UNL     1      11.913  -0.694  -0.113  0.00  0.00    +0.043 A 
ATOM      9  C   UNL     1      10.863  -1.621  -0.108  0.00  0.00    +0.028 A 
ATOM     10  C   UNL     1      11.129  -2.985  -0.117  0.00  0.00    +0.012 A 
ATOM     11  C   UNL     1       9.608  -0.832  -0.092  0.00  0.00    +0.152 C 
ATOM     12  N   UNL     1       8.379  -1.287  -0.083  0.00  0.00    -0.174 NA
ATOM     13  C   UNL     1      10.046   0.579  -0.096  0.00  0.00    +0.269 C 
ATOM     14  O   UNL     1       9.318   1.554  -0.091  0.00  0.00    -0.268 OA
ATOM     15  N   UNL     1      11.389   0.594  -0.102  0.00  0.00    -0.280 N 
ATOM     16  H   UNL     1      12.065   1.462  -0.099  0.00  0.00    +0.155 HD
ENDBRANCH   1  12
BRANCH   2  17
ATOM     17  C   UNL     1       4.878   0.102  -0.043  0.00  0.00    +0.199 C 
BRANCH  17  18
ATOM     18  N   UNL     1       3.620  -0.649  -0.035  0.00  0.00    -0.335 N 
ATOM     19  H   UNL     1       3.636  -1.749  -0.041  0.00  0.00    +0.147 HD
BRANCH  18  20
ATOM     20  C   UNL     1       2.400   0.031  -0.021  0.00  0.00    +0.028 A 
ATOM     21  C   UNL     1       1.206  -0.680  -0.013  0.00  0.00    +0.024 A 
ATOM     22  C   UNL     1       0.002  -0.004   0.002  0.00  0.00    +0.017 A 
ATOM     23  C   UNL     1      -0.017   1.379   0.010  0.00  0.00    +0.018 A 
ATOM     24  C   UNL     1       1.170   2.090   0.002  0.00  0.00    +0.017 A 
ATOM     25  C   UNL     1       2.378   1.420  -0.013  0.00  0.00    +0.024 A 
ATOM     26 BR   UNL     1      -1.668   2.301   0.022  0.00  0.00    -0.050 Br
ENDBRANCH  18  20
ENDBRANCH  17  18
ENDBRANCH   2  17
TORSDOF 4
