REMARK  Name = ZINC45148058
REMARK  7 active torsions:
REMARK  status: ('A' for Active; 'I' for Inactive)
REMARK    1  A    between atoms: C_3  and  N_21
REMARK    2  A    between atoms: C_4  and  S_8
REMARK    3  A    between atoms: S_8  and  N_11
REMARK    4  A    between atoms: N_11  and  C_12
REMARK    5  A    between atoms: C_12  and  C_13
REMARK    6  A    between atoms: C_13  and  C_14
REMARK    7  A    between atoms: C_17  and  O_20
REMARK                            x       y       z     vdW  Elec       q    Type
REMARK                         _______ _______ _______ _____ _____    ______ ____
ROOT
ATOM      1  S   UNL     1       3.876  -0.900  -0.379  0.00  0.00    +0.063 S 
ATOM      2  O   UNL     1       3.556  -2.058  -1.139  0.00  0.00    -0.153 OA
ATOM      3  O   UNL     1       4.855   0.040  -0.799  0.00  0.00    -0.153 OA
ENDROOT
BRANCH   1   7
ATOM      4  C   UNL     1       0.010   1.405   0.158  0.00  0.00    +0.005 A 
ATOM      5  C   UNL     1       1.218   2.017   0.429  0.00  0.00    +0.025 A 
ATOM      6  C   UNL     1       2.405   1.314   0.266  0.00  0.00    +0.054 A 
ATOM      7  C   UNL     1       2.373  -0.004  -0.170  0.00  0.00    +0.161 A 
ATOM      8  C   UNL     1       1.161  -0.613  -0.439  0.00  0.00    +0.151 A 
ATOM      9  C   UNL     1      -0.020   0.092  -0.275  0.00  0.00    +0.040 A 
ATOM     10  F   UNL     1       1.129  -1.895  -0.863  0.00  0.00    -0.203 F 
BRANCH   6  11
ATOM     11  N   UNL     1       3.627   1.932   0.538  0.00  0.00    -0.356 N 
ATOM     12  H   UNL     1       3.665   2.891   0.682  0.00  0.00    +0.142 HD
ATOM     13  H   UNL     1       4.439   1.403   0.584  0.00  0.00    +0.142 HD
ENDBRANCH   6  11
ENDBRANCH   1   7
BRANCH   1  14
ATOM     14  N   UNL     1       4.342  -1.431   1.119  0.00  0.00    -0.189 NA
ATOM     15  H   UNL     1       5.162  -1.099   1.518  0.00  0.00    +0.148 HD
BRANCH  14  16
ATOM     16  C   UNL     1       3.517  -2.402   1.841  0.00  0.00    +0.110 C 
BRANCH  16  17
ATOM     17  C   UNL     1       4.326  -3.002   2.993  0.00  0.00    +0.052 C 
BRANCH  17  18
ATOM     18  C   UNL     1       3.477  -4.001   3.736  0.00  0.00    -0.046 A 
ATOM     19  C   UNL     1       2.696  -3.588   4.799  0.00  0.00    +0.007 A 
ATOM     20  C   UNL     1       1.917  -4.502   5.482  0.00  0.00    +0.045 A 
ATOM     21  C   UNL     1       1.919  -5.835   5.101  0.00  0.00    +0.117 A 
ATOM     22  C   UNL     1       2.704  -6.248   4.034  0.00  0.00    +0.045 A 
ATOM     23  C   UNL     1       3.477  -5.329   3.350  0.00  0.00    +0.007 A 
BRANCH  21  24
ATOM     24  O   UNL     1       1.154  -6.737   5.772  0.00  0.00    -0.507 OA
ATOM     25  H   UNL     1       0.263  -6.840   5.413  0.00  0.00    +0.292 HD
ENDBRANCH  21  24
ENDBRANCH  17  18
ENDBRANCH  16  17
ENDBRANCH  14  16
ENDBRANCH   1  14
TORSDOF 7
