REMARK  Name = ZINC25210096
REMARK  5 active torsions:
REMARK  status: ('A' for Active; 'I' for Inactive)
REMARK    1  A    between atoms: C_1  and  C_2
REMARK    2  A    between atoms: C_2  and  C_20
REMARK    3  A    between atoms: N_5  and  C_9
REMARK    4  A    between atoms: C_9  and  C_10
REMARK    5  A    between atoms: N_12  and  C_13
REMARK                            x       y       z     vdW  Elec       q    Type
REMARK                         _______ _______ _______ _____ _____    ______ ____
ROOT
ATOM      1  C   UNL     1       5.844   3.557   1.014  0.00  0.00    +0.047 C 
ATOM      2  C   UNL     1       4.754   4.573   0.670  0.00  0.00    +0.135 C 
ATOM      3  C   UNL     1       3.405   4.108   1.181  0.00  0.00    +0.251 C 
ATOM      4  O   UNL     1       3.089   3.905   2.334  0.00  0.00    -0.272 OA
ATOM      5  N   UNL     1       2.630   3.966   0.088  0.00  0.00    -0.215 N 
ATOM      6  C   UNL     1       3.293   4.280  -1.031  0.00  0.00    +0.310 C 
ATOM      7  O   UNL     1       2.803   4.234  -2.143  0.00  0.00    -0.252 OA
ATOM      8  N   UNL     1       4.562   4.653  -0.789  0.00  0.00    -0.281 N 
ATOM      9  H   UNL     1       5.392   4.974  -1.435  0.00  0.00    +0.152 HD
ENDROOT
BRANCH   2  10
ATOM     10  C   UNL     1       5.096   5.928   1.235  0.00  0.00    -0.015 A 
ATOM     11  C   UNL     1       4.700   6.263   2.516  0.00  0.00    +0.006 A 
ATOM     12  C   UNL     1       5.015   7.504   3.032  0.00  0.00    +0.004 A 
ATOM     13  C   UNL     1       5.726   8.416   2.270  0.00  0.00    -0.044 A 
ATOM     14  C   UNL     1       6.122   8.081   0.988  0.00  0.00    -0.044 A 
ATOM     15  C   UNL     1       5.810   6.833   0.475  0.00  0.00    +0.010 A 
ATOM     16  C   UNL     1       6.878   9.236   0.368  0.00  0.00    +0.036 C 
ATOM     17  C   UNL     1       6.525  10.463   1.236  0.00  0.00    +0.009 C 
ATOM     18  C   UNL     1       6.189   9.819   2.598  0.00  0.00    +0.036 C 
ENDBRANCH   2  10
BRANCH   5  19
ATOM     19  C   UNL     1       1.232   3.527   0.121  0.00  0.00    +0.214 C 
BRANCH  19  20
ATOM     20  C   UNL     1       1.174   2.026   0.002  0.00  0.00    +0.235 C 
ATOM     21  O   UNL     1       2.199   1.386  -0.099  0.00  0.00    -0.274 OA
ATOM     22  N   UNL     1      -0.017   1.395   0.010  0.00  0.00    -0.283 N 
ATOM     23  H   UNL     1      -0.949   1.980   0.010  0.00  0.00    +0.155 HD
BRANCH  22  24
ATOM     24  C   UNL     1      -0.068  -0.003   0.017  0.00  0.00    +0.047 A 
ATOM     25  C   UNL     1       0.998  -0.736   0.521  0.00  0.00    +0.024 A 
ATOM     26  C   UNL     1       0.945  -2.116   0.527  0.00  0.00    +0.002 A 
ATOM     27  C   UNL     1      -0.170  -2.769   0.032  0.00  0.00    +0.001 A 
ATOM     28  C   UNL     1      -1.233  -2.043  -0.471  0.00  0.00    +0.017 A 
ATOM     29  C   UNL     1      -1.188  -0.661  -0.476  0.00  0.00    +0.039 A 
ATOM     30 BR   UNL     1      -2.646   0.331  -1.157  0.00  0.00    -0.048 Br
ENDBRANCH  22  24
ENDBRANCH  19  20
ENDBRANCH   5  19
TORSDOF 4
