REMARK  Name = ZINC09087021
REMARK  7 active torsions:
REMARK  status: ('A' for Active; 'I' for Inactive)
REMARK    1  A    between atoms: C_12  and  S_13
REMARK    2  A    between atoms: S_13  and  C_14
REMARK    3  A    between atoms: C_14  and  C_15
REMARK    4  A    between atoms: C_15  and  C_16
REMARK    5  A    between atoms: N_18  and  C_19
REMARK    6  A    between atoms: C_22  and  S_25
REMARK    7  A    between atoms: S_25  and  N_28
REMARK                            x       y       z     vdW  Elec       q    Type
REMARK                         _______ _______ _______ _____ _____    ______ ____
ROOT
ATOM      1  C   UNL     1      -8.624   1.514   0.091  0.00  0.00    +0.218 C 
ATOM      2  O   UNL     1      -8.996   2.668   0.109  0.00  0.00    -0.275 OA
ATOM      3  N   UNL     1      -9.528   0.514   0.092  0.00  0.00    -0.285 N 
ATOM      4  H   UNL     1      -9.234  -0.406   0.011  0.00  0.00    +0.155 HD
ENDROOT
BRANCH   3   5
ATOM      5  C   UNL     1     -10.892   0.805   0.212  0.00  0.00    +0.033 A 
ATOM      6  C   UNL     1     -11.729  -0.058   0.907  0.00  0.00    +0.025 A 
ATOM      7  C   UNL     1     -13.073   0.235   1.029  0.00  0.00    +0.030 A 
ATOM      8  C   UNL     1     -13.588   1.380   0.449  0.00  0.00    +0.105 A 
ATOM      9  C   UNL     1     -12.758   2.238  -0.248  0.00  0.00    +0.030 A 
ATOM     10  C   UNL     1     -11.412   1.954  -0.368  0.00  0.00    +0.025 A 
BRANCH   8  11
ATOM     11  S   UNL     1     -15.305   1.746   0.601  0.00  0.00    +0.056 S 
ATOM     12  O   UNL     1     -15.764   1.069   1.763  0.00  0.00    -0.153 OA
ATOM     13  O   UNL     1     -15.436   3.152   0.436  0.00  0.00    -0.153 OA
BRANCH  11  14
ATOM     14  N   UNL     1     -16.071   1.045  -0.689  0.00  0.00    -0.204 NA
ATOM     15  H   UNL     1     -16.988   0.742  -0.602  0.00  0.00    +0.144 HD
ATOM     16  H   UNL     1     -15.602   0.937  -1.531  0.00  0.00    +0.144 HD
ENDBRANCH  11  14
ENDBRANCH   8  11
ENDBRANCH   3   5
BRANCH   1  17
ATOM     17  C   UNL     1      -7.151   1.196   0.067  0.00  0.00    +0.107 C 
BRANCH  17  18
ATOM     18  C   UNL     1      -6.349   2.499   0.070  0.00  0.00    +0.086 C 
BRANCH  18  19
ATOM     19  S   UNL     1      -4.575   2.118   0.042  0.00  0.00    -0.085 S 
BRANCH  19  31
ATOM     20  C   UNL     1      -0.013   1.075  -0.032  0.00  0.00    +0.002 A 
ATOM     21  C   UNL     1       1.184   1.771  -0.041  0.00  0.00    +0.001 A 
ATOM     22  C   UNL     1       1.161   3.154  -0.026  0.00  0.00    +0.017 A 
ATOM     23  C   UNL     1      -0.048   3.811  -0.002  0.00  0.00    +0.040 A 
ATOM     24  C   UNL     1      -1.273   3.136   0.008  0.00  0.00    +0.065 A 
ATOM     25  C   UNL     1      -1.220   1.733  -0.013  0.00  0.00    +0.027 A 
ATOM     26  N   UNL     1      -2.432   3.928   0.032  0.00  0.00    -0.264 N 
ATOM     27  C   UNL     1      -2.282   5.289   0.045  0.00  0.00    +0.202 A 
ATOM     28  S   UNL     1      -0.520   5.523   0.024  0.00  0.00    -0.048 S 
ATOM     29  N   UNL     1      -3.447   5.864   0.067  0.00  0.00    -0.121 NA
ATOM     30  N   UNL     1      -4.417   4.851   0.069  0.00  0.00    -0.121 NA
ATOM     31  C   UNL     1      -3.799   3.699   0.049  0.00  0.00    +0.197 A 
ENDBRANCH  19  31
ENDBRANCH  18  19
ENDBRANCH  17  18
ENDBRANCH   1  17
TORSDOF 7
