REMARK  Name = ZINC64600252
REMARK  9 active torsions:
REMARK  status: ('A' for Active; 'I' for Inactive)
REMARK    1  A    between atoms: C_1  and  C_2
REMARK    2  A    between atoms: C_3  and  O_32
REMARK    3  A    between atoms: C_11  and  C_16
REMARK    4  A    between atoms: C_13  and  C_15
REMARK    5  A    between atoms: C_16  and  C_17
REMARK    6  A    between atoms: N_19  and  C_20
REMARK    7  A    between atoms: C_20  and  C_21
REMARK    8  A    between atoms: C_21  and  C_22
REMARK    9  A    between atoms: O_32  and  C_33
REMARK                            x       y       z     vdW  Elec       q    Type
REMARK                         _______ _______ _______ _____ _____    ______ ____
ROOT
ATOM      1  C   UNL     1       2.537  -1.055   4.729  0.00  0.00    +0.214 C 
ATOM      2  O   UNL     1       1.746  -0.668   5.564  0.00  0.00    -0.276 OA
ATOM      3  N   UNL     1       3.849  -0.776   4.863  0.00  0.00    -0.315 N 
ATOM      4  H   UNL     1       4.481  -1.085   4.196  0.00  0.00    +0.149 HD
ENDROOT
BRANCH   1   5
ATOM      5  C   UNL     1       2.052  -1.846   3.542  0.00  0.00    +0.111 C 
BRANCH   5  16
ATOM      6  C   UNL     1      -0.018   1.503   0.010  0.00  0.00    +0.051 C 
ATOM      7  C   UNL     1       0.002  -0.004   0.002  0.00  0.00    +0.034 A 
ATOM      8  C   UNL     1       0.006  -0.688  -1.202  0.00  0.00    +0.126 A 
ATOM      9  C   UNL     1       0.024  -2.076  -1.207  0.00  0.00    +0.046 A 
ATOM     10  C   UNL     1       0.035  -2.768  -0.013  0.00  0.00    +0.011 A 
ATOM     11  C   UNL     1       0.029  -2.088   1.195  0.00  0.00    -0.001 A 
ATOM     12  C   UNL     1       0.023  -0.704   1.203  0.00  0.00    +0.141 A 
ATOM     13  O   UNL     1       0.043   0.007   2.363  0.00  0.00    -0.425 OA
ATOM     14  C   UNL     1      -0.146  -0.671   3.513  0.00  0.00    +0.317 C 
ATOM     15  O   UNL     1      -0.826  -0.225   4.407  0.00  0.00    -0.250 OA
ATOM     16  C   UNL     1       0.534  -2.020   3.631  0.00  0.00    +0.114 C 
ATOM     17  C   UNL     1       0.029  -2.891   2.471  0.00  0.00    +0.034 C 
ATOM     18  C   UNL     1       0.959  -4.096   2.313  0.00  0.00    +0.013 C 
BRANCH   8  19
ATOM     19  O   UNL     1      -0.009  -0.003  -2.376  0.00  0.00    -0.495 OA
ATOM     20  C   UNL     1      -0.004  -0.775  -3.578  0.00  0.00    +0.277 C 
ENDBRANCH   8  19
ENDBRANCH   5  16
ENDBRANCH   1   5
BRANCH   3  21
ATOM     21  C   UNL     1       4.320  -0.007   6.018  0.00  0.00    +0.108 C 
BRANCH  21  22
ATOM     22  C   UNL     1       5.837   0.168   5.929  0.00  0.00    +0.052 C 
BRANCH  22  23
ATOM     23  C   UNL     1       6.322   0.959   7.116  0.00  0.00    -0.040 C 
ATOM     24  C   UNL     1       6.814   0.466   8.276  0.00  0.00    +0.000 A 
ATOM     25  C   UNL     1       7.037  -0.901   8.760  0.00  0.00    +0.030 A 
ATOM     26  C   UNL     1       7.556  -1.083   9.996  0.00  0.00    +0.042 A 
ATOM     27  C   UNL     1       7.886   0.000  10.824  0.00  0.00    +0.022 A 
ATOM     28  C   UNL     1       7.710   1.284  10.449  0.00  0.00    +0.027 A 
ATOM     29  C   UNL     1       7.171   1.592   9.169  0.00  0.00    +0.043 A 
ATOM     30  N   UNL     1       6.910   2.736   8.584  0.00  0.00    -0.380 N 
ATOM     31  C   UNL     1       6.363   2.465   7.250  0.00  0.00    +0.144 C 
ATOM     32 CL   UNL     1       7.820  -2.699  10.573  0.00  0.00    -0.084 Cl
ATOM     33  H   UNL     1       7.057   3.614   8.968  0.00  0.00    +0.160 HD
ENDBRANCH  22  23
ENDBRANCH  21  22
ENDBRANCH   3  21
TORSDOF 6
