REMARK  Name = ZINC39381022
REMARK  4 active torsions:
REMARK  status: ('A' for Active; 'I' for Inactive)
REMARK    1  A    between atoms: C_7  and  C_10
REMARK    2  A    between atoms: N_11  and  N_12
REMARK    3  A    between atoms: C_13  and  C_15
REMARK    4  A    between atoms: C_20  and  O_21
REMARK                            x       y       z     vdW  Elec       q    Type
REMARK                         _______ _______ _______ _____ _____    ______ ____
ROOT
ATOM      1  N   UNL     1       0.256  -5.437  -0.031  0.00  0.00    -0.203 N 
ATOM      2  C   UNL     1       0.733  -6.698  -0.043  0.00  0.00    +0.267 C 
ATOM      3  O   UNL     1       1.933  -6.893  -0.055  0.00  0.00    -0.268 OA
ATOM      4  H   UNL     1      -0.702  -5.282  -0.021  0.00  0.00    +0.178 HD
ENDROOT
BRANCH   2   5
ATOM      5  C   UNL     1      -0.199  -7.839  -0.041  0.00  0.00    +0.081 A 
ATOM      6  C   UNL     1      -1.580  -7.620  -0.033  0.00  0.00    +0.032 A 
ATOM      7  C   UNL     1      -2.446  -8.692  -0.031  0.00  0.00    +0.019 A 
ATOM      8  C   UNL     1      -1.954  -9.988  -0.037  0.00  0.00    +0.019 A 
ATOM      9  C   UNL     1      -0.593 -10.219  -0.045  0.00  0.00    +0.047 A 
ATOM     10  C   UNL     1       0.293  -9.152  -0.053  0.00  0.00    +0.129 A 
ATOM     11 BR   UNL     1      -4.313  -8.393  -0.020  0.00  0.00    -0.050 Br
BRANCH  10  12
ATOM     12  O   UNL     1       1.631  -9.378  -0.066  0.00  0.00    -0.506 OA
ATOM     13  H   UNL     1       2.027  -9.448   0.813  0.00  0.00    +0.292 HD
ENDBRANCH  10  12
ENDBRANCH   2   5
BRANCH   1  15
ATOM     14  C   UNL     1       0.678  -3.128  -0.022  0.00  0.00    +0.136 C 
ATOM     15  N   UNL     1       1.142  -4.352  -0.033  0.00  0.00    -0.188 NA
BRANCH  14  22
ATOM     16  C   UNL     1      -0.016   1.353   0.009  0.00  0.00    +0.001 A 
ATOM     17  C   UNL     1       1.164   2.102   0.002  0.00  0.00    +0.002 A 
ATOM     18  C   UNL     1       2.384   1.513  -0.013  0.00  0.00    +0.026 A 
ATOM     19  C   UNL     1       2.485   0.097  -0.021  0.00  0.00    +0.043 A 
ATOM     20  N   UNL     1       3.531  -0.702  -0.036  0.00  0.00    -0.380 N 
ATOM     21  C   UNL     1       3.076  -2.096  -0.039  0.00  0.00    +0.150 C 
ATOM     22  C   UNL     1       1.564  -2.042  -0.024  0.00  0.00    +0.000 C 
ATOM     23  C   UNL     1       1.238  -0.688  -0.013  0.00  0.00    +0.004 A 
ATOM     24  C   UNL     1       0.002  -0.004   0.002  0.00  0.00    +0.010 A 
ATOM     25  H   UNL     1       4.457  -0.414  -0.043  0.00  0.00    +0.160 HD
ENDBRANCH  14  22
ENDBRANCH   1  15
TORSDOF 4
