REMARK  Name = ZINC41069948
REMARK  7 active torsions:
REMARK  status: ('A' for Active; 'I' for Inactive)
REMARK    1  A    between atoms: C_1  and  C_2
REMARK    2  A    between atoms: C_7  and  N_12
REMARK    3  A    between atoms: C_9  and  C_11
REMARK    4  A    between atoms: N_12  and  S_13
REMARK    5  A    between atoms: S_13  and  C_16
REMARK    6  A    between atoms: C_21  and  N_22
REMARK    7  A    between atoms: N_22  and  N_23
REMARK                            x       y       z     vdW  Elec       q    Type
REMARK                         _______ _______ _______ _____ _____    ______ ____
ROOT
ATOM      1  S   UNL     1       0.894   0.468   4.944  0.00  0.00    +0.062 S 
ATOM      2  O   UNL     1       1.749  -0.109   5.920  0.00  0.00    -0.153 OA
ATOM      3  O   UNL     1       1.196   1.696   4.296  0.00  0.00    -0.153 OA
ENDROOT
BRANCH   1   4
ATOM      4  C   UNL     1      -0.678   0.677   5.712  0.00  0.00    +0.147 A 
ATOM      5  C   UNL     1      -1.336   1.893   5.643  0.00  0.00    +0.048 A 
ATOM      6  C   UNL     1      -2.573   2.013   6.263  0.00  0.00    +0.038 A 
ATOM      7  C   UNL     1      -3.107   0.923   6.924  0.00  0.00    +0.128 A 
ATOM      8  N   UNL     1      -2.456  -0.224   6.973  0.00  0.00    -0.236 NA
ATOM      9  C   UNL     1      -1.278  -0.379   6.390  0.00  0.00    +0.159 A 
ATOM     10 BR   UNL     1      -3.517   3.650   6.203  0.00  0.00    -0.049 Br
BRANCH   9  11
ATOM     11  N   UNL     1      -0.630  -1.608   6.460  0.00  0.00    -0.266 N 
ATOM     12  H   UNL     1       0.210  -1.741   5.995  0.00  0.00    +0.167 HD
BRANCH  11  13
ATOM     13  N   UNL     1      -1.178  -2.627   7.186  0.00  0.00    -0.255 NA
ATOM     14  H   UNL     1      -2.117  -2.828   6.875  0.00  0.00    +0.140 HD
ATOM     15  H   UNL     1      -0.599  -3.452   7.145  0.00  0.00    +0.140 HD
ENDBRANCH  11  13
ENDBRANCH   9  11
ENDBRANCH   1   4
BRANCH   1  16
ATOM     16  N   UNL     1       0.708  -0.663   3.749  0.00  0.00    -0.187 NA
ATOM     17  H   UNL     1       1.172  -1.513   3.809  0.00  0.00    +0.148 HD
BRANCH  16  23
ATOM     18  C   UNL     1      -0.764   1.159   0.184  0.00  0.00    +0.008 C 
ATOM     19  C   UNL     1      -0.269  -0.286   0.106  0.00  0.00    -0.010 C 
ATOM     20  C   UNL     1      -1.467  -1.238   0.124  0.00  0.00    +0.003 C 
ATOM     21  C   UNL     1      -2.258  -1.038   1.419  0.00  0.00    +0.002 C 
ATOM     22  C   UNL     1      -1.355  -1.333   2.618  0.00  0.00    +0.020 C 
ATOM     23  C   UNL     1      -0.156  -0.381   2.600  0.00  0.00    +0.080 C 
ATOM     24  C   UNL     1       0.634  -0.581   1.306  0.00  0.00    +0.007 C 
ATOM     25  C   UNL     1       1.832   0.370   1.288  0.00  0.00    +0.009 C 
ENDBRANCH  16  23
ENDBRANCH   1  16
TORSDOF 5
