REMARK  Name = ZINC09559824
REMARK  12 active torsions:
REMARK  status: ('A' for Active; 'I' for Inactive)
REMARK    1  A    between atoms: C_1  and  C_2
REMARK    2  A    between atoms: C_7  and  C_8
REMARK    3  A    between atoms: C_8  and  O_10
REMARK    4  A    between atoms: O_10  and  C_11
REMARK    5  A    between atoms: C_14  and  C_17
REMARK    6  A    between atoms: C_19  and  C_24
REMARK    7  A    between atoms: C_26  and  O_34
REMARK    8  A    between atoms: C_27  and  O_32
REMARK    9  A    between atoms: C_28  and  O_30
REMARK   10  A    between atoms: O_30  and  C_31
REMARK   11  A    between atoms: O_32  and  C_33
REMARK   12  A    between atoms: O_34  and  C_35
REMARK                            x       y       z     vdW  Elec       q    Type
REMARK                         _______ _______ _______ _____ _____    ______ ____
ROOT
ATOM      1  C   UNL     1       9.255   7.102   0.933  0.00  0.00    +0.047 C 
ATOM      2  C   UNL     1       8.706   5.699   0.918  0.00  0.00    -0.008 A 
ATOM      3  C   UNL     1       7.366   5.326   0.759  0.00  0.00    +0.042 A 
ATOM      4  C   UNL     1       7.306   3.933   0.803  0.00  0.00    +0.028 A 
ATOM      5  N   UNL     1       8.544   3.474   0.983  0.00  0.00    -0.352 N 
ATOM      6  H   UNL     1       8.791   2.538   1.053  0.00  0.00    +0.166 HD
ATOM      7  C   UNL     1       9.421   4.540   1.055  0.00  0.00    +0.128 A 
ATOM      8  C   UNL     1       6.016   3.165   0.659  0.00  0.00    +0.062 C 
ATOM      9  C   UNL     1       4.973   4.055  -0.024  0.00  0.00    +0.032 C 
ATOM     10  C   UNL     1       4.842   5.394   0.708  0.00  0.00    +0.088 C 
ATOM     11  C   UNL     1       6.159   6.145   0.574  0.00  0.00    +0.166 C 
ATOM     12  O   UNL     1       6.209   7.333   0.332  0.00  0.00    -0.292 OA
ENDROOT
BRANCH   9  13
ATOM     13  C   UNL     1       3.639   3.352  -0.015  0.00  0.00    -0.036 A 
ATOM     14  C   UNL     1       3.018   3.037  -1.209  0.00  0.00    +0.053 A 
ATOM     15  C   UNL     1       1.792   2.390  -1.205  0.00  0.00    +0.165 A 
ATOM     16  C   UNL     1       1.187   2.059   0.002  0.00  0.00    +0.204 A 
ATOM     17  C   UNL     1       1.812   2.382   1.200  0.00  0.00    +0.165 A 
ATOM     18  C   UNL     1       3.041   3.025   1.188  0.00  0.00    +0.053 A 
BRANCH  17  19
ATOM     19  O   UNL     1       1.222   2.065   2.384  0.00  0.00    -0.491 OA
ATOM     20  C   UNL     1       1.921   2.428   3.575  0.00  0.00    +0.277 C 
ENDBRANCH  17  19
BRANCH  16  21
ATOM     21  O   UNL     1      -0.017   1.425   0.010  0.00  0.00    -0.488 OA
ATOM     22  C   UNL     1       0.002  -0.004   0.002  0.00  0.00    +0.277 C 
ENDBRANCH  16  21
BRANCH  15  23
ATOM     23  O   UNL     1       1.182   2.080  -2.380  0.00  0.00    -0.491 OA
ATOM     24  C   UNL     1       1.861   2.451  -3.581  0.00  0.00    +0.277 C 
ENDBRANCH  15  23
ENDBRANCH   9  13
BRANCH   7  25
ATOM     25  C   UNL     1      10.872   4.446   1.247  0.00  0.00    +0.356 C 
ATOM     26  O   UNL     1      11.546   5.456   1.294  0.00  0.00    -0.243 OA
BRANCH  25  27
ATOM     27  O   UNL     1      11.458   3.237   1.370  0.00  0.00    -0.457 OA
BRANCH  27  28
ATOM     28  C   UNL     1      12.898   3.220   1.557  0.00  0.00    +0.177 C 
ATOM     29  C   UNL     1      13.589   3.157   0.193  0.00  0.00    +0.045 C 
ATOM     30  C   UNL     1      15.106   3.139   0.390  0.00  0.00    +0.007 C 
ATOM     31  C   UNL     1      15.498   1.912   1.217  0.00  0.00    -0.014 C 
ATOM     32  C   UNL     1      14.807   1.974   2.581  0.00  0.00    +0.007 C 
ATOM     33  C   UNL     1      13.290   1.993   2.384  0.00  0.00    +0.045 C 
ATOM     34  C   UNL     1      17.015   1.894   1.414  0.00  0.00    +0.007 C 
ENDBRANCH  27  28
ENDBRANCH  25  27
ENDBRANCH   7  25
TORSDOF 7
