REMARK  Name = ZINC40034734
REMARK  9 active torsions:
REMARK  status: ('A' for Active; 'I' for Inactive)
REMARK    1  A    between atoms: C_1  and  C_2
REMARK    2  A    between atoms: C_2  and  C_3
REMARK    3  A    between atoms: C_3  and  C_26
REMARK    4  A    between atoms: N_6  and  C_10
REMARK    5  A    between atoms: C_10  and  C_11
REMARK    6  A    between atoms: C_11  and  C_13
REMARK    7  A    between atoms: C_11  and  O_25
REMARK    8  A    between atoms: C_13  and  O_14
REMARK    9  A    between atoms: O_14  and  C_15
REMARK                            x       y       z     vdW  Elec       q    Type
REMARK                         _______ _______ _______ _____ _____    ______ ____
ROOT
ATOM      1  C   UNL     1      -1.433  -0.534   0.013  0.00  0.00    +0.138 C 
ATOM      2  C   UNL     1      -2.192  -0.043  -1.205  0.00  0.00    +0.251 C 
ATOM      3  O   UNL     1      -1.933  -0.267  -2.368  0.00  0.00    -0.272 OA
ATOM      4  N   UNL     1      -3.214   0.692  -0.725  0.00  0.00    -0.221 N 
ATOM      5  C   UNL     1      -3.207   0.734   0.612  0.00  0.00    +0.310 C 
ATOM      6  O   UNL     1      -4.031   1.335   1.273  0.00  0.00    -0.252 OA
ATOM      7  N   UNL     1      -2.187   0.036   1.143  0.00  0.00    -0.281 N 
ATOM      8  H   UNL     1      -1.987  -0.072   2.086  0.00  0.00    +0.152 HD
ENDROOT
BRANCH   1   9
ATOM      9  C   UNL     1      -1.441  -2.039   0.076  0.00  0.00    -0.014 A 
ATOM     10  C   UNL     1      -0.400  -2.759  -0.481  0.00  0.00    +0.006 A 
ATOM     11  C   UNL     1      -0.406  -4.140  -0.424  0.00  0.00    +0.002 A 
ATOM     12  C   UNL     1      -1.453  -4.803   0.189  0.00  0.00    +0.020 A 
ATOM     13  C   UNL     1      -2.495  -4.083   0.746  0.00  0.00    +0.041 A 
ATOM     14  C   UNL     1      -2.485  -2.700   0.694  0.00  0.00    +0.026 A 
ATOM     15 CL   UNL     1      -3.811  -4.913   1.516  0.00  0.00    -0.084 Cl
ENDBRANCH   1   9
BRANCH   1  17
ATOM     16  C   UNL     1      -0.019   1.526   0.010  0.00  0.00    +0.007 C 
ATOM     17  C   UNL     1       0.002  -0.004   0.002  0.00  0.00    +0.037 C 
ENDBRANCH   1  17
BRANCH   4  18
ATOM     18  C   UNL     1      -4.210   1.363  -1.565  0.00  0.00    +0.152 C 
BRANCH  18  19
ATOM     19  C   UNL     1      -5.386   0.417  -1.816  0.00  0.00    +0.170 C 
BRANCH  19  20
ATOM     20  O   UNL     1      -4.918  -0.759  -2.480  0.00  0.00    -0.387 OA
ATOM     21  H   UNL     1      -4.501  -0.588  -3.336  0.00  0.00    +0.210 HD
ENDBRANCH  19  20
BRANCH  19  22
ATOM     22  C   UNL     1      -6.426   1.117  -2.693  0.00  0.00    +0.262 C 
BRANCH  22  23
ATOM     23  O   UNL     1      -7.575   0.279  -2.832  0.00  0.00    -0.489 OA
BRANCH  23  24
ATOM     24  C   UNL     1      -8.599   0.756  -3.585  0.00  0.00    +0.128 A 
ATOM     25  C   UNL     1      -8.503   1.984  -4.177  0.00  0.00    +0.046 A 
ATOM     26  C   UNL     1      -9.544   2.487  -4.952  0.00  0.00    +0.004 A 
ATOM     27  C   UNL     1     -10.686   1.772  -5.145  0.00  0.00    +0.009 A 
ATOM     28  C   UNL     1     -10.823   0.504  -4.554  0.00  0.00    -0.014 A 
ATOM     29  C   UNL     1      -9.765  -0.015  -3.768  0.00  0.00    +0.024 A 
ATOM     30  C   UNL     1      -9.900  -1.283  -3.181  0.00  0.00    +0.012 A 
ATOM     31  C   UNL     1     -11.041  -1.999  -3.379  0.00  0.00    +0.001 A 
ATOM     32  C   UNL     1     -12.080  -1.492  -4.156  0.00  0.00    +0.001 A 
ATOM     33  C   UNL     1     -11.989  -0.262  -4.731  0.00  0.00    +0.008 A 
ENDBRANCH  23  24
ENDBRANCH  22  23
ENDBRANCH  19  22
ENDBRANCH  18  19
ENDBRANCH   4  18
TORSDOF 8
