REMARK  Name = ZINC38573518
REMARK  10 active torsions:
REMARK  status: ('A' for Active; 'I' for Inactive)
REMARK    1  A    between atoms: C_1  and  C_2
REMARK    2  A    between atoms: C_2  and  N_3
REMARK    3  A    between atoms: C_5  and  C_18
REMARK    4  A    between atoms: N_20  and  C_21
REMARK    5  A    between atoms: C_21  and  C_22
REMARK    6  A    between atoms: N_24  and  C_25
REMARK    7  A    between atoms: C_25  and  C_26
REMARK    8  A    between atoms: C_26  and  C_27
REMARK    9  A    between atoms: C_30  and  O_36
REMARK   10  A    between atoms: O_36  and  C_37
REMARK                            x       y       z     vdW  Elec       q    Type
REMARK                         _______ _______ _______ _____ _____    ______ ____
ROOT
ATOM      1  C   UNL     1      -3.469  -2.413   2.504  0.00  0.00    +0.226 C 
ATOM      2  O   UNL     1      -3.503  -1.567   3.372  0.00  0.00    -0.275 OA
ATOM      3  N   UNL     1      -4.121  -3.580   2.674  0.00  0.00    -0.306 N 
ATOM      4  H   UNL     1      -4.094  -4.257   1.980  0.00  0.00    +0.149 HD
ENDROOT
BRANCH   1   7
ATOM      5  N   UNL     1      -1.372  -0.511   0.012  0.00  0.00    -0.328 N 
ATOM      6  C   UNL     1      -2.052  -0.767   1.288  0.00  0.00    +0.126 C 
ATOM      7  C   UNL     1      -2.698  -2.159   1.234  0.00  0.00    +0.163 C 
ATOM      8  C   UNL     1      -3.639  -2.187   0.046  0.00  0.00    +0.178 C 
ATOM      9  O   UNL     1      -4.741  -2.690   0.128  0.00  0.00    -0.291 OA
ATOM     10  C   UNL     1      -3.170  -1.585  -1.207  0.00  0.00    +0.043 A 
ATOM     11  C   UNL     1      -2.037  -0.746  -1.185  0.00  0.00    +0.044 A 
ATOM     12  C   UNL     1      -1.590  -0.165  -2.361  0.00  0.00    +0.073 A 
ATOM     13  C   UNL     1      -2.257  -0.406  -3.553  0.00  0.00    +0.168 A 
ATOM     14  C   UNL     1      -3.384  -1.235  -3.577  0.00  0.00    +0.167 A 
ATOM     15  C   UNL     1      -3.836  -1.830  -2.413  0.00  0.00    +0.062 A 
ATOM     16  O   UNL     1      -3.845  -1.304  -4.861  0.00  0.00    -0.453 OA
ATOM     17  C   UNL     1      -3.241  -0.190  -5.545  0.00  0.00    +0.466 C 
ATOM     18  O   UNL     1      -2.019   0.038  -4.819  0.00  0.00    -0.453 OA
BRANCH   5  20
ATOM     19  C   UNL     1      -0.019   1.526   0.010  0.00  0.00    +0.024 C 
ATOM     20  C   UNL     1       0.002  -0.004   0.002  0.00  0.00    +0.102 C 
ENDBRANCH   5  20
ENDBRANCH   1   7
BRANCH   3  21
ATOM     21  C   UNL     1      -4.871  -3.827   3.908  0.00  0.00    +0.200 C 
BRANCH  21  22
ATOM     22  C   UNL     1      -5.502  -5.194   3.848  0.00  0.00    +0.230 C 
ATOM     23  O   UNL     1      -5.341  -5.894   2.870  0.00  0.00    -0.274 OA
ATOM     24  N   UNL     1      -6.244  -5.640   4.880  0.00  0.00    -0.314 N 
ATOM     25  H   UNL     1      -6.373  -5.081   5.662  0.00  0.00    +0.149 HD
BRANCH  24  26
ATOM     26  C   UNL     1      -6.857  -6.970   4.822  0.00  0.00    +0.109 C 
BRANCH  26  27
ATOM     27  C   UNL     1      -7.641  -7.227   6.111  0.00  0.00    +0.056 C 
BRANCH  27  28
ATOM     28  C   UNL     1      -8.271  -8.595   6.050  0.00  0.00    -0.021 A 
ATOM     29  C   UNL     1      -7.636  -9.864   6.412  0.00  0.00    +0.006 A 
ATOM     30  C   UNL     1      -6.369 -10.213   6.886  0.00  0.00    +0.056 A 
ATOM     31  C   UNL     1      -6.077 -11.539   7.137  0.00  0.00    +0.121 A 
ATOM     32  C   UNL     1      -7.037 -12.523   6.920  0.00  0.00    +0.047 A 
ATOM     33  C   UNL     1      -8.290 -12.190   6.452  0.00  0.00    +0.030 A 
ATOM     34  C   UNL     1      -8.604 -10.861   6.194  0.00  0.00    +0.047 A 
ATOM     35  N   UNL     1      -9.740 -10.229   5.733  0.00  0.00    -0.360 N 
ATOM     36  C   UNL     1      -9.524  -8.880   5.660  0.00  0.00    +0.087 A 
ATOM     37  H   UNL     1     -10.569 -10.674   5.500  0.00  0.00    +0.165 HD
BRANCH  31  38
ATOM     38  O   UNL     1      -4.845 -11.885   7.598  0.00  0.00    -0.495 OA
ATOM     39  C   UNL     1      -4.609 -13.274   7.837  0.00  0.00    +0.277 C 
ENDBRANCH  31  38
ENDBRANCH  27  28
ENDBRANCH  26  27
ENDBRANCH  24  26
ENDBRANCH  21  22
ENDBRANCH   3  21
TORSDOF 8
