REMARK  Name = ZINC19770167
REMARK  9 active torsions:
REMARK  status: ('A' for Active; 'I' for Inactive)
REMARK    1  A    between atoms: C_1  and  C_2
REMARK    2  A    between atoms: C_3  and  C_28
REMARK    3  A    between atoms: C_4  and  C_22
REMARK    4  A    between atoms: C_10  and  C_15
REMARK    5  A    between atoms: C_28  and  O_30
REMARK    6  A    between atoms: O_30  and  C_31
REMARK    7  A    between atoms: C_31  and  C_32
REMARK    8  A    between atoms: C_32  and  O_33
REMARK    9  A    between atoms: O_33  and  C_34
REMARK                            x       y       z     vdW  Elec       q    Type
REMARK                         _______ _______ _______ _____ _____    ______ ____
ROOT
ATOM      1  C   UNL     1      -3.510  -0.985  -0.784  0.00  0.00    +0.061 C 
ATOM      2  C   UNL     1      -2.342  -0.127  -0.372  0.00  0.00    +0.016 C 
ATOM      3  C   UNL     1      -2.462   1.212  -0.381  0.00  0.00    +0.065 C 
ATOM      4  C   UNL     1      -1.323   2.098   0.032  0.00  0.00    +0.094 C 
ATOM      5  C   UNL     1      -0.016   1.346   0.009  0.00  0.00    +0.024 C 
ATOM      6  C   UNL     1       0.002  -0.004   0.002  0.00  0.00    +0.016 C 
ATOM      7  N   UNL     1      -1.168  -0.715   0.008  0.00  0.00    -0.321 N 
ATOM      8  C   UNL     1       1.305  -0.764  -0.017  0.00  0.00    +0.059 C 
ATOM      9  C   UNL     1       2.383   0.047   0.707  0.00  0.00    +0.032 C 
ATOM     10  C   UNL     1       2.519   1.405   0.009  0.00  0.00    +0.088 C 
ATOM     11  C   UNL     1       1.178   2.087   0.002  0.00  0.00    +0.162 C 
ATOM     12  O   UNL     1       1.126   3.301  -0.011  0.00  0.00    -0.292 OA
ATOM     13  H   UNL     1      -1.158  -1.769   0.323  0.00  0.00    +0.152 HD
ENDROOT
BRANCH   9  14
ATOM     14  C   UNL     1       3.697  -0.688   0.644  0.00  0.00    -0.043 A 
ATOM     15  C   UNL     1       4.265  -0.985  -0.580  0.00  0.00    +0.005 A 
ATOM     16  C   UNL     1       5.473  -1.654  -0.638  0.00  0.00    +0.020 A 
ATOM     17  C   UNL     1       6.108  -2.036   0.530  0.00  0.00    +0.041 A 
ATOM     18  C   UNL     1       5.537  -1.743   1.756  0.00  0.00    +0.020 A 
ATOM     19  C   UNL     1       4.331  -1.069   1.812  0.00  0.00    +0.005 A 
ATOM     20 CL   UNL     1       7.622  -2.882   0.459  0.00  0.00    -0.084 Cl
ENDBRANCH   9  14
BRANCH   4  21
ATOM     21  C   UNL     1      -1.573   2.612   1.427  0.00  0.00    -0.017 A 
ATOM     22  C   UNL     1      -1.704   3.973   1.661  0.00  0.00    +0.007 A 
ATOM     23  C   UNL     1      -1.933   4.400   2.959  0.00  0.00    +0.020 A 
ATOM     24  C   UNL     1      -2.025   3.462   3.971  0.00  0.00    +0.111 A 
ATOM     25  N   UNL     1      -1.896   2.176   3.711  0.00  0.00    -0.263 NA
ATOM     26  C   UNL     1      -1.682   1.733   2.487  0.00  0.00    +0.115 A 
ENDBRANCH   4  21
BRANCH   3  27
ATOM     27  C   UNL     1      -3.684   1.797  -0.786  0.00  0.00    +0.338 C 
ATOM     28  O   UNL     1      -4.615   1.089  -1.122  0.00  0.00    -0.245 OA
BRANCH  27  29
ATOM     29  O   UNL     1      -3.818   3.140  -0.799  0.00  0.00    -0.458 OA
BRANCH  29  30
ATOM     30  C   UNL     1      -5.080   3.662  -1.220  0.00  0.00    +0.273 C 
BRANCH  30  31
ATOM     31  C   UNL     1      -5.042   5.190  -1.170  0.00  0.00    +0.270 C 
BRANCH  31  32
ATOM     32  O   UNL     1      -4.096   5.675  -2.125  0.00  0.00    -0.489 OA
BRANCH  32  33
ATOM     33  C   UNL     1      -3.939   7.022  -2.209  0.00  0.00    +0.121 A 
ATOM     34  C   UNL     1      -4.684   7.861  -1.393  0.00  0.00    +0.045 A 
ATOM     35  C   UNL     1      -4.519   9.230  -1.477  0.00  0.00    +0.004 A 
ATOM     36  C   UNL     1      -3.619   9.764  -2.381  0.00  0.00    +0.000 A 
ATOM     37  C   UNL     1      -2.879   8.931  -3.199  0.00  0.00    +0.004 A 
ATOM     38  C   UNL     1      -3.037   7.561  -3.115  0.00  0.00    +0.045 A 
ENDBRANCH  32  33
ENDBRANCH  31  32
ENDBRANCH  30  31
ENDBRANCH  29  30
ENDBRANCH  27  29
ENDBRANCH   3  27
TORSDOF 8
