REMARK  Name = ZINC39884085
REMARK  4 active torsions:
REMARK  status: ('A' for Active; 'I' for Inactive)
REMARK    1  A    between atoms: C_3  and  O_37
REMARK    2  A    between atoms: C_6  and  C_7
REMARK    3  A    between atoms: N_11  and  C_15
REMARK    4  A    between atoms: C_15  and  C_16
REMARK                            x       y       z     vdW  Elec       q    Type
REMARK                         _______ _______ _______ _____ _____    ______ ____
ROOT
ATOM      1  C   UNL     1      -1.293  -0.774   0.011  0.00  0.00    +0.072 C 
ATOM      2  C   UNL     1      -1.353  -1.560   1.262  0.00  0.00    +0.033 A 
ATOM      3  C   UNL     1      -1.800  -2.813   1.467  0.00  0.00    +0.091 A 
ATOM      4  N   UNL     1      -1.765  -3.246   2.770  0.00  0.00    -0.288 N 
ATOM      5  C   UNL     1      -1.269  -2.442   3.730  0.00  0.00    +0.292 A 
ATOM      6  O   UNL     1      -1.157  -2.669   4.922  0.00  0.00    -0.259 OA
ATOM      7  S   UNL     1      -0.842  -1.051   2.888  0.00  0.00    -0.030 S 
ATOM      8  S   UNL     1      -2.350  -3.802   0.099  0.00  0.00    -0.093 S 
ATOM      9  C   UNL     1      -2.474  -2.647  -1.259  0.00  0.00    +0.152 C 
ATOM     10  C   UNL     1      -1.381  -1.571  -1.288  0.00  0.00    +0.110 C 
ATOM     11  C   UNL     1      -2.089  -0.596  -2.256  0.00  0.00    +0.235 C 
ATOM     12  O   UNL     1      -1.558   0.155  -3.040  0.00  0.00    -0.274 OA
ATOM     13  N   UNL     1      -3.414  -0.747  -2.056  0.00  0.00    -0.162 N 
ATOM     14  C   UNL     1      -3.734  -1.838  -1.331  0.00  0.00    +0.244 C 
ATOM     15  O   UNL     1      -4.809  -2.112  -0.853  0.00  0.00    -0.273 OA
ATOM     16  C   UNL     1      -4.333   0.121  -2.524  0.00  0.00    +0.313 C 
ATOM     17  O   UNL     1      -3.981   1.095  -3.160  0.00  0.00    -0.252 OA
ATOM     18  N   UNL     1      -5.643  -0.090  -2.287  0.00  0.00    -0.313 N 
ATOM     19  H   UNL     1      -5.924  -0.867  -1.779  0.00  0.00    +0.147 HD
ATOM     20  H   UNL     1      -6.304   0.534  -2.624  0.00  0.00    +0.147 HD
ENDROOT
BRANCH   1  26
ATOM     21  C   UNL     1      -0.017   1.378   0.010  0.00  0.00    +0.008 A 
ATOM     22  C   UNL     1       1.169   2.087   0.002  0.00  0.00    +0.045 A 
ATOM     23  C   UNL     1       2.380   1.409  -0.013  0.00  0.00    +0.117 A 
ATOM     24  C   UNL     1       2.396   0.022  -0.021  0.00  0.00    +0.045 A 
ATOM     25  C   UNL     1       1.207  -0.681  -0.013  0.00  0.00    +0.008 A 
ATOM     26  C   UNL     1       0.002  -0.004   0.002  0.00  0.00    -0.038 A 
BRANCH  23  27
ATOM     27  O   UNL     1       3.548   2.104  -0.021  0.00  0.00    -0.507 OA
ATOM     28  H   UNL     1       3.895   2.300   0.860  0.00  0.00    +0.292 HD
ENDBRANCH  23  27
ENDBRANCH   1  26
BRANCH   4  29
ATOM     29  C   UNL     1      -2.267  -4.578   3.115  0.00  0.00    +0.222 C 
BRANCH  29  30
ATOM     30  C   UNL     1      -1.145  -5.579   3.018  0.00  0.00    +0.235 C 
ATOM     31  O   UNL     1      -0.034  -5.215   2.693  0.00  0.00    -0.274 OA
ATOM     32  N   UNL     1      -1.374  -6.878   3.293  0.00  0.00    -0.300 N 
ATOM     33  C   UNL     1      -2.715  -7.335   3.682  0.00  0.00    +0.108 C 
ATOM     34  C   UNL     1      -3.131  -8.485   2.760  0.00  0.00    +0.019 C 
ATOM     35  C   UNL     1      -2.059  -9.577   2.797  0.00  0.00    +0.003 C 
ATOM     36  C   UNL     1      -0.732  -9.008   2.292  0.00  0.00    +0.019 C 
ATOM     37  C   UNL     1      -0.290  -7.865   3.203  0.00  0.00    +0.108 C 
ENDBRANCH  29  30
ENDBRANCH   4  29
TORSDOF 4
