REMARK  Name = ZINC59462383
REMARK  8 active torsions:
REMARK  status: ('A' for Active; 'I' for Inactive)
REMARK    1  A    between atoms: C_3  and  N_14
REMARK    2  A    between atoms: C_4  and  N_11
REMARK    3  A    between atoms: C_6  and  C_7
REMARK    4  A    between atoms: N_14  and  C_15
REMARK    5  A    between atoms: C_15  and  C_16
REMARK    6  A    between atoms: N_18  and  N_19
REMARK    7  A    between atoms: C_20  and  C_21
REMARK    8  A    between atoms: C_26  and  O_27
REMARK                            x       y       z     vdW  Elec       q    Type
REMARK                         _______ _______ _______ _____ _____    ______ ____
ROOT
ATOM      1  C   UNL     1       3.611   3.534  -0.284  0.00  0.00    +0.199 C 
ENDROOT
BRANCH   1   2
ATOM      2  C   UNL     1       5.034   4.029  -0.322  0.00  0.00    +0.249 C 
ATOM      3  O   UNL     1       5.953   3.243  -0.227  0.00  0.00    -0.272 OA
ATOM      4  N   UNL     1       5.286   5.346  -0.461  0.00  0.00    -0.206 N 
ATOM      5  H   UNL     1       4.551   5.975  -0.537  0.00  0.00    +0.177 HD
BRANCH   4   6
ATOM      6  N   UNL     1       6.608   5.806  -0.496  0.00  0.00    -0.188 NA
ATOM      7  C   UNL     1       6.851   7.074  -0.631  0.00  0.00    +0.142 C 
BRANCH   7   8
ATOM      8  C   UNL     1       8.242   7.559  -0.668  0.00  0.00    +0.039 A 
ATOM      9  C   UNL     1       8.507   8.923  -0.806  0.00  0.00    +0.033 A 
ATOM     10  C   UNL     1       9.812   9.370  -0.840  0.00  0.00    +0.043 A 
ATOM     11  C   UNL     1      10.861   8.471  -0.738  0.00  0.00    +0.043 A 
ATOM     12  C   UNL     1      10.611   7.118  -0.601  0.00  0.00    +0.084 A 
ATOM     13  C   UNL     1       9.306   6.654  -0.558  0.00  0.00    +0.144 A 
ATOM     14 CL   UNL     1      11.934   6.001  -0.474  0.00  0.00    -0.080 Cl
ATOM     15 CL   UNL     1      10.141  11.066  -1.012  0.00  0.00    -0.083 Cl
BRANCH  13  16
ATOM     16  O   UNL     1       9.059   5.325  -0.417  0.00  0.00    -0.505 OA
ATOM     17  H   UNL     1       8.998   4.845  -1.254  0.00  0.00    +0.292 HD
ENDBRANCH  13  16
ENDBRANCH   7   8
ENDBRANCH   4   6
ENDBRANCH   1   2
BRANCH   1  18
ATOM     18  N   UNL     1       3.605   2.077  -0.127  0.00  0.00    -0.334 N 
ATOM     19  H   UNL     1       4.443   1.593  -0.065  0.00  0.00    +0.147 HD
BRANCH  18  22
ATOM     20  C   UNL     1      -0.001   1.374  -0.215  0.00  0.00    +0.014 A 
ATOM     21  C   UNL     1       1.196   2.060  -0.276  0.00  0.00    +0.026 A 
ATOM     22  C   UNL     1       2.393   1.387  -0.066  0.00  0.00    +0.058 A 
ATOM     23  C   UNL     1       2.381   0.024   0.204  0.00  0.00    +0.147 A 
ATOM     24  C   UNL     1       1.180  -0.656   0.264  0.00  0.00    +0.047 A 
ATOM     25  C   UNL     1      -0.009   0.018   0.054  0.00  0.00    +0.057 A 
BRANCH  25  26
ATOM     26  C   UNL     1      -1.317  -0.728   0.120  0.00  0.00    +0.417 C 
ATOM     27  F   UNL     1      -2.372   0.159  -0.123  0.00  0.00    -0.166 F 
ATOM     28  F   UNL     1      -1.327  -1.739  -0.846  0.00  0.00    -0.166 F 
ATOM     29  F   UNL     1      -1.468  -1.294   1.390  0.00  0.00    -0.166 F 
ENDBRANCH  25  26
BRANCH  23  30
ATOM     30  N   UNL     1       3.653  -0.698   0.428  0.00  0.00    +0.058 N 
ATOM     31  O   UNL     1       3.791  -1.824   0.010  0.00  0.00    -0.126 OA
ATOM     32  O   UNL     1       4.555  -0.162   1.029  0.00  0.00    -0.126 OA
ENDBRANCH  23  30
ENDBRANCH  18  22
ENDBRANCH   1  18
TORSDOF 8
