REMARK  Name = ZINC54945493
REMARK  9 active torsions:
REMARK  status: ('A' for Active; 'I' for Inactive)
REMARK    1  A    between atoms: C_1  and  C_2
REMARK    2  A    between atoms: C_5  and  C_30
REMARK    3  A    between atoms: N_8  and  C_10
REMARK    4  A    between atoms: C_10  and  C_11
REMARK    5  A    between atoms: C_10  and  C_12
REMARK    6  A    between atoms: C_10  and  C_13
REMARK    7  A    between atoms: C_13  and  N_14
REMARK    8  A    between atoms: C_15  and  C_17
REMARK    9  A    between atoms: N_19  and  C_20
REMARK                            x       y       z     vdW  Elec       q    Type
REMARK                         _______ _______ _______ _____ _____    ______ ____
ROOT
ATOM      1  N   UNL     1       3.480  -2.409   0.912  0.00  0.00    -0.309 N 
ATOM      2  C   UNL     1       4.772  -2.209   0.584  0.00  0.00    +0.299 C 
ATOM      3  O   UNL     1       5.538  -1.736   1.397  0.00  0.00    -0.265 OA
ATOM      4  H   UNL     1       2.867  -2.787   0.262  0.00  0.00    +0.149 HD
ENDROOT
BRANCH   2   5
ATOM      5  C   UNL     1       5.260  -2.570  -0.781  0.00  0.00    +0.303 C 
ATOM      6  O   UNL     1       4.493  -3.044  -1.594  0.00  0.00    -0.265 OA
ATOM      7  N   UNL     1       6.552  -2.370  -1.109  0.00  0.00    -0.276 N 
ATOM      8  H   UNL     1       7.146  -1.921  -0.488  0.00  0.00    +0.155 HD
BRANCH   7   9
ATOM      9  C   UNL     1       7.034  -2.810  -2.342  0.00  0.00    +0.060 A 
ATOM     10  C   UNL     1       6.412  -3.848  -3.001  0.00  0.00    +0.025 A 
ATOM     11  C   UNL     1       6.882  -4.296  -4.231  0.00  0.00    +0.003 A 
ATOM     12  C   UNL     1       7.970  -3.722  -4.816  0.00  0.00    +0.010 A 
ATOM     13  C   UNL     1       8.631  -2.661  -4.177  0.00  0.00    +0.002 A 
ATOM     14  C   UNL     1       8.160  -2.190  -2.927  0.00  0.00    +0.092 A 
ATOM     15  N   UNL     1       8.783  -1.178  -2.319  0.00  0.00    -0.253 NA
ATOM     16  C   UNL     1       9.829  -0.599  -2.857  0.00  0.00    +0.111 A 
ATOM     17  C   UNL     1      10.341  -1.008  -4.086  0.00  0.00    +0.020 A 
ATOM     18  C   UNL     1       9.758  -2.046  -4.756  0.00  0.00    +0.011 A 
ENDBRANCH   7   9
ENDBRANCH   2   5
BRANCH   1  19
ATOM     19  C   UNL     1       3.001  -2.055   2.250  0.00  0.00    +0.092 C 
BRANCH  19  20
ATOM     20  C   UNL     1       1.543  -2.491   2.402  0.00  0.00    -0.055 C 
ATOM     21  C   UNL     1       1.010  -2.025   3.759  0.00  0.00    -0.008 C 
ATOM     22  C   UNL     1       1.455  -4.016   2.316  0.00  0.00    -0.008 C 
BRANCH  20  28
ATOM     23  C   UNL     1      -0.019   1.724   0.462  0.00  0.00    +0.005 C 
ATOM     24  C   UNL     1      -0.025   0.201   0.309  0.00  0.00    -0.031 C 
ATOM     25  C   UNL     1      -1.469  -0.309   0.322  0.00  0.00    +0.003 C 
ATOM     26  C   UNL     1      -1.460  -1.838   0.248  0.00  0.00    -0.031 C 
ATOM     27  C   UNL     1      -0.638  -2.395   1.412  0.00  0.00    -0.075 C 
ATOM     28  N   UNL     1       0.738  -1.892   1.329  0.00  0.00    +0.384 N 
ATOM     29  C   UNL     1       0.745  -0.431   1.470  0.00  0.00    -0.075 C 
ATOM     30  C   UNL     1      -2.895  -2.362   0.338  0.00  0.00    +0.005 C 
ATOM     31  H   UNL     1       1.133  -2.144   0.435  0.00  0.00    -0.081 HD
ENDBRANCH  20  28
ENDBRANCH  19  20
ENDBRANCH   1  19
TORSDOF 5
