REMARK  Name = ZINC03849191
REMARK  2 active torsions:
REMARK  status: ('A' for Active; 'I' for Inactive)
REMARK    1  A    between atoms: C_10  and  C_11
REMARK    2  A    between atoms: C_11  and  C_13
REMARK                            x       y       z     vdW  Elec       q    Type
REMARK                         _______ _______ _______ _____ _____    ______ ____
ROOT
ATOM      1  C   UNL     1      -3.778  -0.863   0.088  0.00  0.00    +0.172 A 
ATOM      2  N   UNL     1      -2.602  -0.325  -0.107  0.00  0.00    -0.153 NA
ATOM      3  N   UNL     1      -2.436   1.054   0.019  0.00  0.00    -0.207 N 
ATOM      4  C   UNL     1      -1.244   1.771  -0.158  0.00  0.00    +0.081 A 
ATOM      5  C   UNL     1      -0.071   1.110  -0.496  0.00  0.00    +0.028 A 
ATOM      6  C   UNL     1       1.091   1.832  -0.673  0.00  0.00    +0.002 A 
ATOM      7  C   UNL     1       1.098   3.210  -0.512  0.00  0.00    +0.001 A 
ATOM      8  C   UNL     1      -0.058   3.880  -0.172  0.00  0.00    +0.015 A 
ATOM      9  C   UNL     1      -1.238   3.160   0.010  0.00  0.00    +0.067 A 
ATOM     10  C   UNL     1      -2.500   3.834   0.375  0.00  0.00    +0.282 A 
ATOM     11  O   UNL     1      -2.549   5.044   0.530  0.00  0.00    -0.265 OA
ATOM     12  N   UNL     1      -3.591   3.073   0.513  0.00  0.00    -0.182 NA
ATOM     13  C   UNL     1      -3.554   1.770   0.351  0.00  0.00    +0.200 A 
ATOM     14  S   UNL     1      -4.783   0.557   0.477  0.00  0.00    -0.025 S 
ENDROOT
BRANCH   1  15
ATOM     15  C   UNL     1      -4.171  -2.282   0.007  0.00  0.00    +0.220 C 
ATOM     16  O   UNL     1      -3.324  -3.140  -0.155  0.00  0.00    -0.284 OA
BRANCH  15  26
ATOM     17  C   UNL     1      -6.790  -6.706   0.446  0.00  0.00    +0.001 A 
ATOM     18  C   UNL     1      -5.438  -6.388   0.339  0.00  0.00    +0.001 A 
ATOM     19  C   UNL     1      -5.030  -5.091   0.234  0.00  0.00    +0.009 A 
ATOM     20  C   UNL     1      -5.982  -4.065   0.232  0.00  0.00    -0.007 A 
ATOM     21  C   UNL     1      -7.357  -4.385   0.341  0.00  0.00    -0.017 A 
ATOM     22  C   UNL     1      -7.742  -5.732   0.448  0.00  0.00    +0.008 A 
ATOM     23  C   UNL     1      -8.309  -3.351   0.341  0.00  0.00    +0.008 A 
ATOM     24  C   UNL     1      -7.921  -2.050   0.236  0.00  0.00    +0.001 A 
ATOM     25  C   UNL     1      -6.586  -1.689   0.133  0.00  0.00    +0.012 A 
ATOM     26  C   UNL     1      -5.590  -2.661   0.121  0.00  0.00    +0.032 A 
ENDBRANCH  15  26
ENDBRANCH   1  15
TORSDOF 2
