REMARK  Name = ZINC39469810
REMARK  7 active torsions:
REMARK  status: ('A' for Active; 'I' for Inactive)
REMARK    1  A    between atoms: C_1  and  C_2
REMARK    2  A    between atoms: C_2  and  C_3
REMARK    3  A    between atoms: C_2  and  S_4
REMARK    4  A    between atoms: S_4  and  C_7
REMARK    5  A    between atoms: P_16  and  S_26
REMARK    6  A    between atoms: S_26  and  O_29
REMARK    7  A    between atoms: O_29  and  C_30
REMARK                            x       y       z     vdW  Elec       q    Type
REMARK                         _______ _______ _______ _____ _____    ______ ____
ROOT
ATOM      1  C   UNL     1       2.363  -0.017  -1.239  0.00  0.00    +0.120 C 
ATOM      2  C   UNL     1       3.437  -0.806  -1.212  0.00  0.00    +0.007 C 
ATOM      3  C   UNL     1       4.790  -0.184  -1.002  0.00  0.00    +0.023 C 
ATOM      4  C   UNL     1       5.904  -1.075  -1.543  0.00  0.00    +0.031 C 
ATOM      5  C   UNL     1       7.260  -0.389  -1.328  0.00  0.00    +0.100 C 
ATOM      6  C   UNL     1       8.333  -1.303  -1.933  0.00  0.00    +0.191 C 
ATOM      7  O   UNL     1       9.635  -0.735  -1.699  0.00  0.00    -0.297 OA
ATOM      8  P   UNL     1       9.869   0.823  -2.107  0.00  0.00    +0.458 P 
ATOM      9  O   UNL     1      10.108   0.941  -3.562  0.00  0.00    -0.243 OA
ATOM     10  N   UNL     1       8.470   1.596  -1.691  0.00  0.00    -0.159 NA
ATOM     11  N   UNL     1       7.289   0.932  -1.959  0.00  0.00    -0.228 NA
ATOM     12  C   UNL     1       6.195   1.806  -1.498  0.00  0.00    +0.111 C 
ATOM     13  C   UNL     1       4.844   1.152  -1.754  0.00  0.00    +0.037 C 
ATOM     14  C   UNL     1       3.698   2.014  -1.301  0.00  0.00    +0.018 C 
ATOM     15  C   UNL     1       2.519   1.438  -1.058  0.00  0.00    +0.144 C 
ATOM     16  F   UNL     1       1.474   2.187  -0.644  0.00  0.00    -0.204 F 
ATOM     17  H   UNL     1       8.484   2.477  -1.287  0.00  0.00    +0.152 HD
ENDROOT
BRANCH   1  18
ATOM     18  S   UNL     1       0.763  -0.710  -1.498  0.00  0.00    +0.002 S 
ATOM     19  O   UNL     1      -0.034  -0.184  -0.446  0.00  0.00    -0.169 OA
ATOM     20  O   UNL     1       0.987  -2.108  -1.609  0.00  0.00    -0.169 OA
BRANCH  18  22
ATOM     21  C   UNL     1       1.188  -0.472  -4.190  0.00  0.00    +0.032 C 
ATOM     22  C   UNL     1       0.217  -0.036  -3.092  0.00  0.00    +0.130 C 
ATOM     23  C   UNL     1      -1.185  -0.561  -3.413  0.00  0.00    +0.032 C 
ENDBRANCH  18  22
ENDBRANCH   1  18
BRANCH   8  24
ATOM     24  S   UNL     1      11.507   1.627  -1.027  0.00  0.00    +0.211 S 
ATOM     25  O   UNL     1      11.732   2.931  -1.543  0.00  0.00    -0.126 OA
ATOM     26  O   UNL     1      11.243   1.386   0.349  0.00  0.00    -0.126 OA
BRANCH  24  27
ATOM     27  O   UNL     1      12.732   0.799  -1.386  0.00  0.00    -0.339 OA
BRANCH  27  28
ATOM     28  C   UNL     1      13.233   1.060  -2.622  0.00  0.00    +0.157 A 
ATOM     29  C   UNL     1      12.775   0.349  -3.722  0.00  0.00    +0.048 A 
ATOM     30  C   UNL     1      13.285   0.617  -4.977  0.00  0.00    +0.004 A 
ATOM     31  C   UNL     1      14.252   1.593  -5.138  0.00  0.00    +0.000 A 
ATOM     32  C   UNL     1      14.710   2.302  -4.043  0.00  0.00    +0.004 A 
ATOM     33  C   UNL     1      14.199   2.042  -2.787  0.00  0.00    +0.048 A 
ENDBRANCH  27  28
ENDBRANCH  24  27
ENDBRANCH   8  24
TORSDOF 5
