REMARK  Name = ZINC34923991
REMARK  10 active torsions:
REMARK  status: ('A' for Active; 'I' for Inactive)
REMARK    1  A    between atoms: C_1  and  C_2
REMARK    2  A    between atoms: C_2  and  N_3
REMARK    3  A    between atoms: N_6  and  C_9
REMARK    4  A    between atoms: C_11  and  C_12
REMARK    5  A    between atoms: C_17  and  C_34
REMARK    6  A    between atoms: C_18  and  C_29
REMARK    7  A    between atoms: C_19  and  C_22
REMARK    8  A    between atoms: C_29  and  O_31
REMARK    9  A    between atoms: O_31  and  C_32
REMARK   10  A    between atoms: C_32  and  C_33
REMARK                            x       y       z     vdW  Elec       q    Type
REMARK                         _______ _______ _______ _____ _____    ______ ____
ROOT
ATOM      1  C   UNL     1      -5.284  -5.136  -2.257  0.00  0.00    +0.048 C 
ATOM      2  C   UNL     1      -5.407  -6.458  -2.008  0.00  0.00    +0.072 C 
ATOM      3  S   UNL     1      -6.636  -6.945  -3.204  0.00  0.00    -0.060 S 
ATOM      4  C   UNL     1      -6.899  -5.452  -3.924  0.00  0.00    +0.166 C 
ATOM      5  N   UNL     1      -7.701  -5.084  -4.902  0.00  0.00    -0.230 NA
ATOM      6  C   UNL     1      -7.804  -3.852  -5.372  0.00  0.00    +0.053 C 
ATOM      7  C   UNL     1      -7.040  -2.832  -4.836  0.00  0.00    +0.083 C 
ATOM      8  C   UNL     1      -6.095  -3.178  -3.707  0.00  0.00    +0.152 C 
ATOM      9  N   UNL     1      -6.067  -4.596  -3.258  0.00  0.00    -0.267 N 
ATOM     10  C   UNL     1      -8.760  -3.557  -6.498  0.00  0.00    +0.066 C 
ENDROOT
BRANCH   8  11
ATOM     11  C   UNL     1      -4.701  -2.796  -4.135  0.00  0.00    +0.013 A 
ATOM     12  C   UNL     1      -4.095  -1.677  -3.597  0.00  0.00    +0.008 A 
ATOM     13  C   UNL     1      -2.817  -1.326  -3.989  0.00  0.00    +0.001 A 
ATOM     14  C   UNL     1      -2.143  -2.094  -4.921  0.00  0.00    +0.003 A 
ATOM     15  C   UNL     1      -2.747  -3.214  -5.460  0.00  0.00    +0.039 A 
ATOM     16  C   UNL     1      -4.026  -3.569  -5.064  0.00  0.00    +0.129 A 
ATOM     17  F   UNL     1      -4.615  -4.667  -5.587  0.00  0.00    -0.205 F 
ENDBRANCH   8  11
BRANCH   1  20
ATOM     18  C   UNL     1      -3.495  -4.872  -0.618  0.00  0.00    +0.241 C 
ATOM     19  O   UNL     1      -3.391  -6.221  -0.558  0.00  0.00    -0.271 OA
ATOM     20  C   UNL     1      -4.352  -4.300  -1.486  0.00  0.00    +0.091 C 
BRANCH  18  24
ATOM     21  N   UNL     1      -1.692  -2.945   2.551  0.00  0.00    +0.382 N 
ATOM     22  C   UNL     1      -1.405  -4.353   2.247  0.00  0.00    -0.060 C 
ATOM     23  C   UNL     1      -1.430  -4.561   0.729  0.00  0.00    +0.089 C 
ATOM     24  N   UNL     1      -2.721  -4.080   0.213  0.00  0.00    -0.302 N 
ATOM     25  C   UNL     1      -3.165  -2.733   0.605  0.00  0.00    +0.089 C 
ATOM     26  C   UNL     1      -3.058  -2.611   2.128  0.00  0.00    -0.060 C 
ATOM     27  H   UNL     1      -1.036  -2.357   2.059  0.00  0.00    -0.082 HD
BRANCH  21  29
ATOM     28  C   UNL     1      -0.106  -2.949   4.417  0.00  0.00    -0.017 C 
ATOM     29  C   UNL     1      -1.560  -2.721   3.997  0.00  0.00    -0.082 C 
ENDBRANCH  21  29
ENDBRANCH  18  24
ENDBRANCH   1  20
BRANCH   7  30
ATOM     30  C   UNL     1      -7.138  -1.523  -5.322  0.00  0.00    +0.339 C 
ATOM     31  O   UNL     1      -7.824  -1.286  -6.301  0.00  0.00    -0.245 OA
BRANCH  30  32
ATOM     32  O   UNL     1      -6.471  -0.522  -4.705  0.00  0.00    -0.462 OA
BRANCH  32  33
ATOM     33  C   UNL     1      -6.616   0.789  -5.255  0.00  0.00    +0.229 C 
ATOM     34  C   UNL     1      -5.794   1.782  -4.430  0.00  0.00    +0.048 C 
ENDBRANCH  32  33
ENDBRANCH  30  32
ENDBRANCH   7  30
TORSDOF 7
