REMARK  Name = ZINC59262361
REMARK  5 active torsions:
REMARK  status: ('A' for Active; 'I' for Inactive)
REMARK    1  A    between atoms: C_1  and  C_2
REMARK    2  A    between atoms: C_2  and  C_3
REMARK    3  A    between atoms: N_15  and  C_16
REMARK    4  A    between atoms: C_16  and  C_17
REMARK    5  A    between atoms: C_17  and  C_18
REMARK                            x       y       z     vdW  Elec       q    Type
REMARK                         _______ _______ _______ _____ _____    ______ ____
ROOT
ATOM      1  C   UNL     1      -1.313  -0.849  -2.728  0.00  0.00    +0.108 C 
ATOM      2  C   UNL     1      -2.115  -0.917  -1.430  0.00  0.00    -0.017 A 
ATOM      3  C   UNL     1      -3.457  -1.291  -1.380  0.00  0.00    +0.013 A 
ATOM      4  C   UNL     1      -4.104  -1.333  -0.193  0.00  0.00    +0.046 A 
ATOM      5  S   UNL     1      -2.819  -0.834   0.944  0.00  0.00    -0.101 S 
ATOM      6  C   UNL     1      -1.523  -0.605  -0.245  0.00  0.00    -0.004 A 
ATOM      7  C   UNL     1      -0.114  -0.169  -0.009  0.00  0.00    +0.062 C 
ATOM      8  C   UNL     1       0.720  -0.501  -1.256  0.00  0.00    +0.115 C 
ATOM      9  N   UNL     1      -0.061  -0.133  -2.447  0.00  0.00    -0.278 N 
ATOM     10  C   UNL     1       0.363   0.848  -3.268  0.00  0.00    +0.303 C 
ATOM     11  O   UNL     1       1.348   1.500  -2.978  0.00  0.00    -0.253 OA
ATOM     12  N   UNL     1      -0.304   1.107  -4.410  0.00  0.00    -0.299 N 
ATOM     13  H   UNL     1      -1.129   0.638  -4.607  0.00  0.00    +0.150 HD
ENDROOT
BRANCH   1  15
ATOM     14  C   UNL     1      -0.289  -2.190  -4.572  0.00  0.00    +0.006 C 
ATOM     15  C   UNL     1      -1.000  -2.264  -3.219  0.00  0.00    +0.024 C 
ENDBRANCH   1  15
BRANCH  12  16
ATOM     16  C   UNL     1       0.218   2.098  -5.355  0.00  0.00    +0.110 C 
BRANCH  16  17
ATOM     17  C   UNL     1      -0.721   2.200  -6.558  0.00  0.00    +0.056 C 
BRANCH  17  18
ATOM     18  C   UNL     1      -0.184   3.219  -7.530  0.00  0.00    -0.021 A 
ATOM     19  C   UNL     1      -0.525   4.515  -7.598  0.00  0.00    +0.087 A 
ATOM     20  N   UNL     1       0.168   5.129  -8.605  0.00  0.00    -0.360 N 
ATOM     21  H   UNL     1       0.090   6.065  -8.846  0.00  0.00    +0.165 HD
ATOM     22  C   UNL     1       0.995   4.219  -9.226  0.00  0.00    +0.047 A 
ATOM     23  C   UNL     1       0.815   2.984  -8.576  0.00  0.00    +0.003 A 
ATOM     24  C   UNL     1       1.538   1.865  -8.994  0.00  0.00    +0.010 A 
ATOM     25  C   UNL     1       2.420   1.976 -10.031  0.00  0.00    +0.001 A 
ATOM     26  C   UNL     1       2.603   3.193 -10.674  0.00  0.00    +0.002 A 
ATOM     27  C   UNL     1       1.894   4.308 -10.283  0.00  0.00    +0.026 A 
ENDBRANCH  17  18
ENDBRANCH  16  17
ENDBRANCH  12  16
TORSDOF 4
