REMARK  Name = ZINC36586985
REMARK  14 active torsions:
REMARK  status: ('A' for Active; 'I' for Inactive)
REMARK    1  A    between atoms: C_1  and  C_2
REMARK    2  A    between atoms: C_5  and  S_8
REMARK    3  A    between atoms: S_8  and  C_11
REMARK    4  A    between atoms: C_11  and  N_12
REMARK    5  A    between atoms: C_13  and  C_15
REMARK    6  A    between atoms: C_15  and  C_17
REMARK    7  A    between atoms: C_15  and  N_23
REMARK    8  A    between atoms: N_23  and  C_34
REMARK    9  A    between atoms: C_24  and  C_26
REMARK   10  A    between atoms: C_30  and  O_33
REMARK   11  A    between atoms: C_31  and  O_32
REMARK   12  A    between atoms: C_34  and  C_35
REMARK   13  A    between atoms: C_34  and  C_36
REMARK   14  A    between atoms: C_34  and  C_37
REMARK                            x       y       z     vdW  Elec       q    Type
REMARK                         _______ _______ _______ _____ _____    ______ ____
ROOT
ATOM      1  C   UNL     1       2.083  -7.980   3.706  0.00  0.00    +0.193 C 
ENDROOT
BRANCH   1   2
ATOM      2  C   UNL     1       1.268  -6.864   3.105  0.00  0.00    -0.018 A 
ATOM      3  C   UNL     1       0.594  -5.980   3.928  0.00  0.00    +0.006 A 
ATOM      4  C   UNL     1      -0.154  -4.956   3.377  0.00  0.00    +0.000 A 
ATOM      5  C   UNL     1      -0.228  -4.816   2.004  0.00  0.00    +0.000 A 
ATOM      6  C   UNL     1       0.446  -5.699   1.181  0.00  0.00    +0.000 A 
ATOM      7  C   UNL     1       1.197  -6.720   1.732  0.00  0.00    +0.006 A 
ENDBRANCH   1   2
BRANCH   1   9
ATOM      8  N   UNL     1       0.831  -9.626   2.349  0.00  0.00    -0.294 N 
ATOM      9  C   UNL     1       1.344  -9.284   3.547  0.00  0.00    +0.239 C 
ATOM     10  O   UNL     1       1.211 -10.025   4.498  0.00  0.00    -0.273 OA
ATOM     11  H   UNL     1       0.937  -9.033   1.589  0.00  0.00    +0.150 HD
BRANCH   8  12
ATOM     12  C   UNL     1       0.112 -10.893   2.195  0.00  0.00    +0.278 C 
BRANCH  12  13
ATOM     13  S   UNL     1      -1.668 -10.607   2.390  0.00  0.00    +0.013 S 
ATOM     14  O   UNL     1      -1.912  -9.810   3.541  0.00  0.00    -0.168 OA
ATOM     15  O   UNL     1      -2.385 -11.816   2.180  0.00  0.00    -0.168 OA
BRANCH  13  20
ATOM     16  C   UNL     1      -3.196  -7.087  -2.267  0.00  0.00    +0.044 C 
ATOM     17  C   UNL     1      -2.814  -7.966  -1.104  0.00  0.00    -0.050 A 
ATOM     18  C   UNL     1      -2.867  -9.342  -1.230  0.00  0.00    +0.005 A 
ATOM     19  C   UNL     1      -2.517 -10.148  -0.164  0.00  0.00    +0.027 A 
ATOM     20  C   UNL     1      -2.113  -9.579   1.030  0.00  0.00    +0.090 A 
ATOM     21  C   UNL     1      -2.060  -8.203   1.156  0.00  0.00    +0.027 A 
ATOM     22  C   UNL     1      -2.406  -7.397   0.088  0.00  0.00    +0.005 A 
ENDBRANCH  13  20
ENDBRANCH  12  13
ENDBRANCH   8  12
ENDBRANCH   1   9
BRANCH   1  23
ATOM     23  N   UNL     1       2.302  -7.713   5.130  0.00  0.00    -0.277 N 
ATOM     24  C   UNL     1       1.423  -8.169   6.044  0.00  0.00    +0.252 C 
ATOM     25  O   UNL     1       0.241  -8.235   5.770  0.00  0.00    -0.270 OA
BRANCH  24  26
ATOM     26  C   UNL     1       1.896  -8.587   7.378  0.00  0.00    +0.082 A 
ATOM     27  C   UNL     1       3.154  -8.183   7.835  0.00  0.00    +0.017 A 
ATOM     28  C   UNL     1       3.592  -8.575   9.081  0.00  0.00    +0.005 A 
ATOM     29  C   UNL     1       2.791  -9.369   9.887  0.00  0.00    +0.049 A 
ATOM     30  C   UNL     1       1.544  -9.777   9.447  0.00  0.00    +0.159 A 
ATOM     31  C   UNL     1       1.085  -9.384   8.193  0.00  0.00    +0.171 A 
BRANCH  31  32
ATOM     32  O   UNL     1      -0.141  -9.777   7.761  0.00  0.00    -0.503 OA
ATOM     33  H   UNL     1      -0.138 -10.617   7.282  0.00  0.00    +0.292 HD
ENDBRANCH  31  32
BRANCH  30  34
ATOM     34  O   UNL     1       0.764 -10.556  10.243  0.00  0.00    -0.503 OA
ATOM     35  H   UNL     1       0.177 -10.058  10.828  0.00  0.00    +0.292 HD
ENDBRANCH  30  34
ENDBRANCH  24  26
BRANCH  23  36
ATOM     36  C   UNL     1       3.477  -6.951   5.559  0.00  0.00    +0.030 C 
ATOM     37  C   UNL     1       3.879  -5.968   4.457  0.00  0.00    +0.031 C 
ATOM     38  C   UNL     1       3.144  -6.176   6.836  0.00  0.00    +0.031 C 
ATOM     39  C   UNL     1       4.636  -7.912   5.833  0.00  0.00    +0.031 C 
ENDBRANCH  23  36
ENDBRANCH   1  23
TORSDOF 10
