REMARK  Name = ZINC43737477
REMARK  11 active torsions:
REMARK  status: ('A' for Active; 'I' for Inactive)
REMARK    1  A    between atoms: C_1  and  C_2
REMARK    2  A    between atoms: C_2  and  C_4
REMARK    3  A    between atoms: C_9  and  C_40
REMARK    4  A    between atoms: C_20  and  C_39
REMARK    5  A    between atoms: C_23  and  O_26
REMARK    6  A    between atoms: O_26  and  C_27
REMARK    7  A    between atoms: C_27  and  C_29
REMARK    8  A    between atoms: C_29  and  C_30
REMARK    9  A    between atoms: C_30  and  N_31
REMARK   10  A    between atoms: C_35  and  C_37
REMARK   11  A    between atoms: C_35  and  C_38
REMARK                            x       y       z     vdW  Elec       q    Type
REMARK                         _______ _______ _______ _____ _____    ______ ____
ROOT
ATOM      1  C   UNL     1      -1.147  -0.409   0.007  0.00  0.00    -0.003 C 
ATOM      2  C   UNL     1      -0.966  -1.743  -0.113  0.00  0.00    -0.019 C 
ATOM      3  C   UNL     1      -2.328  -2.443  -0.127  0.00  0.00    +0.032 C 
ATOM      4  C   UNL     1      -3.151  -1.434   0.698  0.00  0.00    +0.006 C 
ATOM      5  C   UNL     1      -2.636  -0.143   0.026  0.00  0.00    -0.001 C 
ATOM      6  C   UNL     1      -3.101   1.059   0.804  0.00  0.00    +0.012 C 
ATOM      7  C   UNL     1      -4.532   0.840   1.330  0.00  0.00    +0.005 C 
ATOM      8  C   UNL     1      -5.290  -0.192   0.513  0.00  0.00    -0.001 C 
ATOM      9  C   UNL     1      -4.658  -1.573   0.612  0.00  0.00    -0.003 C 
ATOM     10  C   UNL     1      -5.091  -2.307   1.887  0.00  0.00    +0.004 C 
ATOM     11  C   UNL     1      -6.605  -2.329   2.052  0.00  0.00    +0.004 C 
ATOM     12  C   UNL     1      -7.109  -0.885   2.108  0.00  0.00    -0.001 C 
ATOM     13  C   UNL     1      -6.788  -0.185   0.796  0.00  0.00    -0.026 C 
ATOM     14  C   UNL     1      -7.296   1.259   0.850  0.00  0.00    +0.011 C 
ATOM     15  C   UNL     1      -8.799   1.290   1.121  0.00  0.00    +0.045 C 
ATOM     16  C   UNL     1      -9.113   0.579   2.437  0.00  0.00    +0.177 C 
ATOM     17  C   UNL     1      -8.607  -0.862   2.394  0.00  0.00    +0.048 C 
ATOM     18  C   UNL     1      -7.484  -0.898  -0.372  0.00  0.00    +0.012 C 
ATOM     19  C   UNL     1      -3.048  -0.032  -1.442  0.00  0.00    +0.016 C 
ENDROOT
BRANCH   1  21
ATOM     20  C   UNL     1      -0.475   2.063   0.181  0.00  0.00    +0.091 C 
ATOM     21  C   UNL     1      -0.103   0.606   0.078  0.00  0.00    +0.156 C 
ATOM     22  O   UNL     1       1.065   0.279   0.054  0.00  0.00    -0.293 OA
ENDBRANCH   1  21
BRANCH  16  23
ATOM     23  O   UNL     1      -8.487   1.275   3.518  0.00  0.00    -0.461 OA
BRANCH  23  24
ATOM     24  C   UNL     1      -9.199   2.247   4.110  0.00  0.00    +0.306 C 
ATOM     25  O   UNL     1     -10.316   2.499   3.723  0.00  0.00    -0.251 OA
BRANCH  24  26
ATOM     26  C   UNL     1      -8.605   3.024   5.256  0.00  0.00    +0.102 C 
BRANCH  26  27
ATOM     27  C   UNL     1      -9.615   4.064   5.745  0.00  0.00    -0.068 C 
BRANCH  27  28
ATOM     28  N   UNL     1      -9.037   4.821   6.863  0.00  0.00    +0.380 N 
ATOM     29  C   UNL     1      -7.879   5.587   6.386  0.00  0.00    -0.079 C 
ATOM     30  C   UNL     1      -7.223   6.314   7.562  0.00  0.00    -0.018 C 
ATOM     31  C   UNL     1      -8.240   7.266   8.197  0.00  0.00    +0.003 C 
ATOM     32  C   UNL     1      -9.475   6.467   8.624  0.00  0.00    -0.050 C 
ATOM     33  C   UNL     1     -10.047   5.734   7.409  0.00  0.00    -0.072 C 
ATOM     34  C   UNL     1     -10.530   7.421   9.189  0.00  0.00    +0.009 C 
ATOM     35  C   UNL     1      -9.080   5.449   9.695  0.00  0.00    +0.009 C 
ATOM     36  H   UNL     1      -8.739   4.180   7.584  0.00  0.00    -0.082 HD
ENDBRANCH  27  28
ENDBRANCH  26  27
ENDBRANCH  24  26
ENDBRANCH  23  24
ENDBRANCH  16  23
TORSDOF 6
