REMARK  Name = ZINC56924451
REMARK  2 active torsions:
REMARK  status: ('A' for Active; 'I' for Inactive)
REMARK    1  A    between atoms: C_9  and  N_11
REMARK    2  A    between atoms: C_12  and  C_14
REMARK                            x       y       z     vdW  Elec       q    Type
REMARK                         _______ _______ _______ _____ _____    ______ ____
ROOT
ATOM      1  N   UNL     1       1.199  -2.090  -0.021  0.00  0.00    -0.278 N 
ATOM      2  C   UNL     1       0.040  -2.769   0.087  0.00  0.00    +0.267 C 
ATOM      3  O   UNL     1      -1.018  -2.168   0.101  0.00  0.00    -0.268 OA
ATOM      4  H   UNL     1       2.037  -2.572  -0.113  0.00  0.00    +0.155 HD
ENDROOT
BRANCH   2   5
ATOM      5  C   UNL     1       0.053  -4.237   0.190  0.00  0.00    +0.135 A 
ATOM      6  C   UNL     1      -1.122  -4.938   0.296  0.00  0.00    +0.081 A 
ATOM      7  S   UNL     1      -0.503  -6.613   0.383  0.00  0.00    -0.060 S 
ATOM      8  C   UNL     1       1.236  -6.220   0.271  0.00  0.00    +0.165 A 
ATOM      9  N   UNL     1       1.208  -4.906   0.175  0.00  0.00    -0.220 NA
ATOM     10  N   UNL     1       2.329  -7.073   0.278  0.00  0.00    -0.263 N 
ATOM     11  C   UNL     1       2.139  -8.442   0.382  0.00  0.00    +0.221 A 
ATOM     12  N   UNL     1       0.906  -8.919   0.469  0.00  0.00    -0.223 NA
ATOM     13  C   UNL     1       0.689 -10.220   0.569  0.00  0.00    +0.116 A 
ATOM     14  C   UNL     1       1.771 -11.086   0.583  0.00  0.00    +0.039 A 
ATOM     15  C   UNL     1       3.048 -10.554   0.490  0.00  0.00    +0.116 A 
ATOM     16  N   UNL     1       3.194  -9.243   0.387  0.00  0.00    -0.223 NA
ATOM     17  H   UNL     1       3.227  -6.712   0.209  0.00  0.00    +0.157 HD
ENDBRANCH   2   5
BRANCH   1  26
ATOM     18  C   UNL     1       0.154   1.380   0.640  0.00  0.00    +0.003 A 
ATOM     19  C   UNL     1       1.151   2.103   0.058  0.00  0.00    +0.010 A 
ATOM     20  C   UNL     1       2.213   1.444  -0.580  0.00  0.00    +0.002 A 
ATOM     21  C   UNL     1       3.259   2.163  -1.191  0.00  0.00    +0.011 A 
ATOM     22  C   UNL     1       4.261   1.456  -1.793  0.00  0.00    +0.020 A 
ATOM     23  C   UNL     1       4.228   0.063  -1.790  0.00  0.00    +0.111 A 
ATOM     24  N   UNL     1       3.253  -0.602  -1.220  0.00  0.00    -0.253 NA
ATOM     25  C   UNL     1       2.243   0.029  -0.615  0.00  0.00    +0.092 A 
ATOM     26  C   UNL     1       1.196  -0.694  -0.003  0.00  0.00    +0.060 A 
ATOM     27  C   UNL     1       0.170  -0.011   0.614  0.00  0.00    +0.025 A 
ENDBRANCH   1  26
TORSDOF 2
