REMARK  Name = ZINC28047283
REMARK  13 active torsions:
REMARK  status: ('A' for Active; 'I' for Inactive)
REMARK    1  A    between atoms: C_1  and  C_2
REMARK    2  A    between atoms: C_6  and  N_8
REMARK    3  A    between atoms: N_8  and  C_9
REMARK    4  A    between atoms: C_9  and  C_10
REMARK    5  A    between atoms: C_13  and  S_23
REMARK    6  A    between atoms: N_14  and  C_15
REMARK    7  A    between atoms: C_19  and  C_22
REMARK    8  A    between atoms: C_20  and  C_21
REMARK    9  A    between atoms: S_23  and  C_24
REMARK   10  A    between atoms: C_24  and  C_25
REMARK   11  A    between atoms: N_27  and  C_28
REMARK   12  A    between atoms: C_32  and  C_34
REMARK   13  A    between atoms: C_34  and  C_36
REMARK                            x       y       z     vdW  Elec       q    Type
REMARK                         _______ _______ _______ _____ _____    ______ ____
ROOT
ATOM      1  C   UNL     1       0.918   7.471   0.031  0.00  0.00    +0.156 A 
ATOM      2  N   UNL     1       0.767   8.236  -1.013  0.00  0.00    -0.132 NA
ATOM      3  N   UNL     1       0.517   9.442  -0.646  0.00  0.00    -0.122 NA
ATOM      4  C   UNL     1       0.504   9.517   0.665  0.00  0.00    +0.197 A 
ATOM      5  N   UNL     1       0.759   8.260   1.140  0.00  0.00    -0.273 N 
ENDROOT
BRANCH   5   6
ATOM      6  C   UNL     1       0.842   7.861   2.482  0.00  0.00    +0.053 A 
ATOM      7  C   UNL     1       2.062   7.897   3.144  0.00  0.00    +0.026 A 
ATOM      8  C   UNL     1       2.139   7.509   4.468  0.00  0.00    +0.002 A 
ATOM      9  C   UNL     1       1.005   7.074   5.130  0.00  0.00    +0.004 A 
ATOM     10  C   UNL     1      -0.210   7.032   4.471  0.00  0.00    -0.046 A 
ATOM     11  C   UNL     1      -0.294   7.425   3.149  0.00  0.00    -0.024 A 
ATOM     12  C   UNL     1      -1.619   7.378   2.432  0.00  0.00    +0.046 C 
ATOM     13  C   UNL     1      -1.443   6.558   5.196  0.00  0.00    +0.044 C 
ENDBRANCH   5   6
BRANCH   1  14
ATOM     14  C   UNL     1       1.218   5.995   0.021  0.00  0.00    +0.178 C 
BRANCH  14  15
ATOM     15  N   UNL     1      -0.038   5.241   0.019  0.00  0.00    -0.337 N 
ATOM     16  H   UNL     1      -1.000   5.775   0.025  0.00  0.00    +0.147 HD
BRANCH  15  22
ATOM     17  C   UNL     1      -2.468   0.970  -0.016  0.00  0.00    +0.044 C 
ATOM     18  C   UNL     1      -1.178   1.747  -0.007  0.00  0.00    -0.049 A 
ATOM     19  C   UNL     1       0.033   1.078  -0.009  0.00  0.00    +0.003 A 
ATOM     20  C   UNL     1       1.219   1.788  -0.007  0.00  0.00    +0.002 A 
ATOM     21  C   UNL     1       1.199   3.169   0.002  0.00  0.00    +0.023 A 
ATOM     22  C   UNL     1      -0.014   3.844   0.010  0.00  0.00    +0.028 A 
ATOM     23  C   UNL     1      -1.205   3.128   0.008  0.00  0.00    +0.026 A 
ENDBRANCH  15  22
ENDBRANCH  14  15
ENDBRANCH   1  14
BRANCH   4  24
ATOM     24  S   UNL     1       0.212  10.962   1.630  0.00  0.00    -0.076 S 
BRANCH  24  25
ATOM     25  C   UNL     1      -0.036  12.176   0.310  0.00  0.00    +0.173 C 
BRANCH  25  26
ATOM     26  C   UNL     1      -0.310  13.528   0.916  0.00  0.00    +0.227 C 
ATOM     27  O   UNL     1      -0.335  13.659   2.122  0.00  0.00    -0.275 OA
ATOM     28  N   UNL     1      -0.526  14.593   0.118  0.00  0.00    -0.285 N 
ATOM     29  H   UNL     1      -0.429  14.492  -0.973  0.00  0.00    +0.155 HD
BRANCH  28  30
ATOM     30  C   UNL     1      -0.876  15.827   0.678  0.00  0.00    +0.034 A 
ATOM     31  C   UNL     1      -1.756  16.670   0.009  0.00  0.00    +0.023 A 
ATOM     32  C   UNL     1      -2.109  17.888   0.558  0.00  0.00    +0.002 A 
ATOM     33  C   UNL     1      -1.582  18.282   1.771  0.00  0.00    +0.011 A 
ATOM     34  C   UNL     1      -0.692  17.445   2.451  0.00  0.00    +0.019 A 
ATOM     35  C   UNL     1      -0.340  16.211   1.897  0.00  0.00    +0.034 A 
BRANCH  34  36
ATOM     36  C   UNL     1      -0.127  17.862   3.745  0.00  0.00    +0.160 C 
ATOM     37  O   UNL     1       0.645  17.134   4.332  0.00  0.00    -0.292 OA
ATOM     38  C   UNL     1      -0.509  19.193   4.340  0.00  0.00    +0.091 C 
ENDBRANCH  34  36
ENDBRANCH  28  30
ENDBRANCH  25  26
ENDBRANCH  24  25
ENDBRANCH   4  24
TORSDOF 9
