REMARK  Name = ZINC60195846
REMARK  7 active torsions:
REMARK  status: ('A' for Active; 'I' for Inactive)
REMARK    1  A    between atoms: C_1  and  N_2
REMARK    2  A    between atoms: N_2  and  S_3
REMARK    3  A    between atoms: S_3  and  C_6
REMARK    4  A    between atoms: C_15  and  C_17
REMARK    5  A    between atoms: C_17  and  C_18
REMARK    6  A    between atoms: C_18  and  C_19
REMARK    7  A    between atoms: C_19  and  C_21
REMARK                            x       y       z     vdW  Elec       q    Type
REMARK                         _______ _______ _______ _____ _____    ______ ____
ROOT
ATOM      1  C   UNL     1       2.438  -0.437  -1.202  0.00  0.00    +0.106 A 
ATOM      2  C   UNL     1       2.928   0.656  -1.893  0.00  0.00    +0.030 A 
ATOM      3  C   UNL     1       4.273   0.955  -1.857  0.00  0.00    +0.026 A 
ATOM      4  C   UNL     1       5.152   0.156  -1.122  0.00  0.00    +0.040 A 
ATOM      5  C   UNL     1       4.652  -0.936  -0.432  0.00  0.00    -0.023 A 
ATOM      6  C   UNL     1       3.301  -1.228  -0.467  0.00  0.00    +0.034 A 
ATOM      7  C   UNL     1       5.797  -1.625   0.275  0.00  0.00    +0.056 C 
ATOM      8  C   UNL     1       7.036  -0.791  -0.092  0.00  0.00    +0.118 C 
ATOM      9  N   UNL     1       6.535   0.282  -0.955  0.00  0.00    -0.271 N 
ATOM     10  C   UNL     1       7.295   1.248  -1.506  0.00  0.00    +0.220 C 
ATOM     11  O   UNL     1       6.784   2.095  -2.209  0.00  0.00    -0.275 OA
ENDROOT
BRANCH   1  12
ATOM     12  S   UNL     1       0.718  -0.816  -1.251  0.00  0.00    +0.058 S 
ATOM     13  O   UNL     1       0.599  -2.201  -0.959  0.00  0.00    -0.153 OA
ATOM     14  O   UNL     1       0.211  -0.243  -2.449  0.00  0.00    -0.153 OA
BRANCH  12  16
ATOM     15  C   UNL     1      -0.018   1.461   0.010  0.00  0.00    +0.127 C 
ATOM     16  N   UNL     1       0.002  -0.004   0.002  0.00  0.00    -0.193 NA
ATOM     17  H   UNL     1      -0.404  -0.499   0.731  0.00  0.00    +0.148 HD
ENDBRANCH  12  16
ENDBRANCH   1  12
BRANCH  10  18
ATOM     18  C   UNL     1       8.780   1.277  -1.250  0.00  0.00    +0.104 C 
BRANCH  18  19
ATOM     19  C   UNL     1       9.401   2.465  -1.987  0.00  0.00    +0.089 C 
BRANCH  19  20
ATOM     20  C   UNL     1      10.886   2.494  -1.731  0.00  0.00    +0.164 C 
ATOM     21  O   UNL     1      11.397   1.648  -1.029  0.00  0.00    -0.292 OA
BRANCH  20  22
ATOM     22  C   UNL     1      11.716   3.549  -2.334  0.00  0.00    +0.017 A 
ATOM     23  C   UNL     1      11.130   4.530  -3.140  0.00  0.00    +0.012 A 
ATOM     24  C   UNL     1      11.914   5.516  -3.700  0.00  0.00    +0.016 A 
ATOM     25  C   UNL     1      13.279   5.535  -3.468  0.00  0.00    +0.018 A 
ATOM     26  C   UNL     1      13.867   4.567  -2.671  0.00  0.00    +0.016 A 
ATOM     27  C   UNL     1      13.095   3.579  -2.099  0.00  0.00    +0.012 A 
ATOM     28 BR   UNL     1      14.346   6.891  -4.242  0.00  0.00    -0.050 Br
ENDBRANCH  20  22
ENDBRANCH  19  20
ENDBRANCH  18  19
ENDBRANCH  10  18
TORSDOF 6
