REMARK  Name = ZINC35556950
REMARK  5 active torsions:
REMARK  status: ('A' for Active; 'I' for Inactive)
REMARK    1  A    between atoms: C_1  and  C_2
REMARK    2  A    between atoms: C_2  and  N_3
REMARK    3  A    between atoms: N_3  and  C_4
REMARK    4  A    between atoms: C_4  and  C_6
REMARK    5  A    between atoms: C_4  and  C_18
REMARK                            x       y       z     vdW  Elec       q    Type
REMARK                         _______ _______ _______ _____ _____    ______ ____
ROOT
ATOM      1  C   UNL     1      -2.834  -2.259   0.096  0.00  0.00    -0.043 A 
ATOM      2  C   UNL     1      -3.744  -1.250  -0.170  0.00  0.00    +0.052 A 
ATOM      3  C   UNL     1      -5.101  -1.509  -0.085  0.00  0.00    +0.162 A 
ATOM      4  C   UNL     1      -5.547  -2.776   0.266  0.00  0.00    +0.163 A 
ATOM      5  C   UNL     1      -4.635  -3.783   0.533  0.00  0.00    +0.065 A 
ATOM      6  C   UNL     1      -3.279  -3.522   0.441  0.00  0.00    +0.023 A 
ATOM      7 BR   UNL     1      -2.029  -4.897   0.796  0.00  0.00    -0.050 Br
ATOM      8  O   UNL     1      -6.887  -3.020   0.346  0.00  0.00    -0.488 OA
ATOM      9  C   UNL     1      -7.579  -2.366   1.411  0.00  0.00    +0.232 C 
ATOM     10  C   UNL     1      -7.974  -0.953   1.010  0.00  0.00    +0.082 C 
ATOM     11  C   UNL     1      -6.767  -0.060   0.771  0.00  0.00    +0.232 C 
ATOM     12  O   UNL     1      -6.008  -0.523  -0.347  0.00  0.00    -0.488 OA
ENDROOT
BRANCH   1  13
ATOM     13  C   UNL     1      -1.356  -1.981   0.004  0.00  0.00    -0.037 C 
BRANCH  13  14
ATOM     14  N   UNL     1      -1.086  -0.611   0.459  0.00  0.00    +0.384 N 
ATOM     15  H   UNL     1      -1.462  -0.484   1.386  0.00  0.00    -0.085 HD
ATOM     16  H   UNL     1      -1.521   0.045  -0.173  0.00  0.00    -0.085 HD
BRANCH  14  18
ATOM     17  C   UNL     1       0.646   1.048   0.956  0.00  0.00    -0.017 C 
ATOM     18  C   UNL     1       0.364  -0.380   0.483  0.00  0.00    -0.085 C 
ENDBRANCH  14  18
ENDBRANCH  13  14
BRANCH  13  19
ATOM     19  C   UNL     1      -0.897  -2.137  -1.447  0.00  0.00    -0.021 C 
ATOM     20  C   UNL     1      -1.966  -2.453  -2.496  0.00  0.00    +0.002 C 
ATOM     21  C   UNL     1      -0.973  -3.535  -2.065  0.00  0.00    +0.002 C 
ENDBRANCH  13  19
ENDBRANCH   1  13
TORSDOF 4
