REMARK  Name = ZINC59475565
REMARK  8 active torsions:
REMARK  status: ('A' for Active; 'I' for Inactive)
REMARK    1  A    between atoms: C_1  and  C_2
REMARK    2  A    between atoms: C_2  and  C_3
REMARK    3  A    between atoms: C_3  and  C_4
REMARK    4  A    between atoms: C_4  and  C_5
REMARK    5  A    between atoms: C_8  and  C_11
REMARK    6  A    between atoms: C_20  and  N_26
REMARK    7  A    between atoms: C_23  and  C_25
REMARK    8  A    between atoms: N_26  and  C_27
REMARK                            x       y       z     vdW  Elec       q    Type
REMARK                         _______ _______ _______ _____ _____    ______ ____
ROOT
ATOM      1  C   UNL     1       3.442  -4.186   5.859  0.00  0.00    +0.251 C 
ATOM      2  O   UNL     1       4.656  -4.176   5.796  0.00  0.00    -0.270 OA
ATOM      3  N   UNL     1       2.830  -4.236   7.059  0.00  0.00    -0.264 N 
ATOM      4  C   UNL     1       1.443  -4.064   7.158  0.00  0.00    +0.042 A 
ATOM      5  C   UNL     1       0.743  -3.564   6.065  0.00  0.00    +0.024 A 
ATOM      6  C   UNL     1      -0.624  -3.391   6.141  0.00  0.00    +0.002 A 
ATOM      7  C   UNL     1      -1.296  -3.715   7.306  0.00  0.00    +0.000 A 
ATOM      8  C   UNL     1      -0.603  -4.209   8.393  0.00  0.00    +0.007 A 
ATOM      9  C   UNL     1       0.769  -4.384   8.326  0.00  0.00    -0.006 A 
ATOM     10  C   UNL     1       1.496  -4.917   9.532  0.00  0.00    +0.104 C 
ATOM     11  C   UNL     1       2.847  -5.506   9.127  0.00  0.00    +0.049 C 
ATOM     12  C   UNL     1       3.605  -4.478   8.283  0.00  0.00    +0.081 C 
ATOM     13  C   UNL     1       4.988  -5.023   7.922  0.00  0.00    +0.028 C 
ENDROOT
BRANCH   1  17
ATOM     14  C   UNL     1       1.131  -4.063   2.297  0.00  0.00    -0.047 A 
ATOM     15  C   UNL     1       2.245  -3.252   2.424  0.00  0.00    +0.004 A 
ATOM     16  C   UNL     1       3.000  -3.287   3.578  0.00  0.00    +0.013 A 
ATOM     17  C   UNL     1       2.638  -4.143   4.620  0.00  0.00    +0.037 A 
ATOM     18  C   UNL     1       1.513  -4.959   4.485  0.00  0.00    +0.013 A 
ATOM     19  C   UNL     1       0.764  -4.910   3.328  0.00  0.00    +0.004 A 
BRANCH  14  20
ATOM     20  C   UNL     1       0.311  -4.019   1.034  0.00  0.00    +0.035 C 
BRANCH  20  21
ATOM     21  C   UNL     1      -0.784  -2.960   1.173  0.00  0.00    +0.004 C 
BRANCH  21  23
ATOM     22  C   UNL     1      -2.712  -1.857   0.029  0.00  0.00    +0.004 C 
ATOM     23  C   UNL     1      -1.616  -2.916  -0.110  0.00  0.00    -0.003 C 
ENDBRANCH  21  23
ENDBRANCH  20  21
ENDBRANCH  14  20
ENDBRANCH   1  17
BRANCH  10  24
ATOM     24  N   UNL     1       0.685  -5.960  10.164  0.00  0.00    -0.337 N 
ATOM     25  H   UNL     1       0.838  -6.892   9.946  0.00  0.00    +0.147 HD
BRANCH  24  26
ATOM     26  C   UNL     1      -0.310  -5.612  11.080  0.00  0.00    +0.028 A 
ATOM     27  C   UNL     1      -0.536  -4.276  11.389  0.00  0.00    +0.023 A 
ATOM     28  C   UNL     1      -1.521  -3.935  12.295  0.00  0.00    +0.002 A 
ATOM     29  C   UNL     1      -2.282  -4.922  12.895  0.00  0.00    +0.000 A 
ATOM     30  C   UNL     1      -2.060  -6.252  12.590  0.00  0.00    +0.002 A 
ATOM     31  C   UNL     1      -1.081  -6.599  11.681  0.00  0.00    +0.023 A 
ENDBRANCH  24  26
ENDBRANCH  10  24
TORSDOF 6
