REMARK  Name = ZINC64839314
REMARK  7 active torsions:
REMARK  status: ('A' for Active; 'I' for Inactive)
REMARK    1  A    between atoms: C_1  and  C_2
REMARK    2  A    between atoms: C_8  and  C_11
REMARK    3  A    between atoms: C_11  and  C_12
REMARK    4  A    between atoms: C_12  and  N_13
REMARK    5  A    between atoms: C_14  and  C_16
REMARK    6  A    between atoms: C_16  and  N_17
REMARK    7  A    between atoms: N_27  and  C_32
REMARK                            x       y       z     vdW  Elec       q    Type
REMARK                         _______ _______ _______ _____ _____    ______ ____
ROOT
ATOM      1  N   UNL     1      -1.377  -2.600   5.613  0.00  0.00    -0.314 N 
ATOM      2  C   UNL     1      -2.537  -2.599   6.299  0.00  0.00    +0.230 C 
ATOM      3  O   UNL     1      -3.583  -2.808   5.722  0.00  0.00    -0.274 OA
ATOM      4  H   UNL     1      -0.540  -2.433   6.075  0.00  0.00    +0.149 HD
ENDROOT
BRANCH   1   5
ATOM      5  C   UNL     1      -1.379  -2.854   4.170  0.00  0.00    +0.108 C 
BRANCH   5   6
ATOM      6  C   UNL     1       0.055  -2.799   3.641  0.00  0.00    +0.052 C 
BRANCH   6  14
ATOM      7  C   UNL     1      -0.018   1.503   0.010  0.00  0.00    +0.044 C 
ATOM      8  C   UNL     1       0.002  -0.004   0.002  0.00  0.00    -0.050 A 
ATOM      9  C   UNL     1       0.005  -0.680  -1.226  0.00  0.00    +0.005 A 
ATOM     10  C   UNL     1       0.023  -2.026  -1.317  0.00  0.00    +0.026 A 
ATOM     11  C   UNL     1       0.039  -2.826  -0.141  0.00  0.00    +0.043 A 
ATOM     12  N   UNL     1       0.057  -4.126   0.030  0.00  0.00    -0.380 N 
ATOM     13  C   UNL     1       0.067  -4.408   1.470  0.00  0.00    +0.144 C 
ATOM     14  C   UNL     1       0.052  -3.060   2.156  0.00  0.00    -0.040 C 
ATOM     15  C   UNL     1       0.036  -2.137   1.168  0.00  0.00    -0.001 A 
ATOM     16  C   UNL     1       0.022  -0.669   1.180  0.00  0.00    +0.013 A 
ATOM     17  H   UNL     1       0.062  -4.790  -0.677  0.00  0.00    +0.160 HD
ENDBRANCH   6  14
ENDBRANCH   5   6
ENDBRANCH   1   5
BRANCH   2  18
ATOM     18  C   UNL     1      -2.534  -2.338   7.783  0.00  0.00    +0.201 C 
BRANCH  18  19
ATOM     19  N   UNL     1      -3.908  -2.390   8.291  0.00  0.00    -0.305 N 
ATOM     20  C   UNL     1      -4.790  -1.305   8.372  0.00  0.00    +0.039 A 
ATOM     21  C   UNL     1      -4.663  -0.013   7.877  0.00  0.00    +0.024 A 
ATOM     22  C   UNL     1      -5.675   0.909   8.057  0.00  0.00    +0.002 A 
ATOM     23  C   UNL     1      -6.830   0.557   8.734  0.00  0.00    +0.001 A 
ATOM     24  C   UNL     1      -6.973  -0.717   9.242  0.00  0.00    +0.010 A 
ATOM     25  C   UNL     1      -5.956  -1.658   9.073  0.00  0.00    +0.003 A 
ATOM     26  C   UNL     1      -5.809  -3.042   9.520  0.00  0.00    +0.006 C 
ATOM     27  C   UNL     1      -6.489  -3.793  10.393  0.00  0.00    +0.094 C 
ATOM     28  N   UNL     1      -5.917  -5.065  10.594  0.00  0.00    -0.269 N 
ATOM     29  N   UNL     1      -4.506  -5.106  10.693  0.00  0.00    -0.224 N 
ATOM     30  C   UNL     1      -3.782  -4.346   9.817  0.00  0.00    +0.256 C 
ATOM     31  O   UNL     1      -2.571  -4.292   9.860  0.00  0.00    -0.272 OA
ATOM     32  C   UNL     1      -4.584  -3.580   8.788  0.00  0.00    +0.194 C 
ATOM     33  C   UNL     1      -3.843  -5.936  11.701  0.00  0.00    +0.156 C 
ATOM     34  H   UNL     1      -6.459  -5.867  10.661  0.00  0.00    +0.170 HD
ENDBRANCH  18  19
ENDBRANCH   2  18
TORSDOF 5
