REMARK  Name = ZINC39938787
REMARK  7 active torsions:
REMARK  status: ('A' for Active; 'I' for Inactive)
REMARK    1  A    between atoms: C_1  and  C_2
REMARK    2  A    between atoms: C_4  and  S_9
REMARK    3  A    between atoms: C_5  and  C_8
REMARK    4  A    between atoms: S_9  and  N_12
REMARK    5  A    between atoms: N_15  and  C_18
REMARK    6  A    between atoms: C_18  and  C_19
REMARK    7  A    between atoms: C_25  and  C_30
REMARK                            x       y       z     vdW  Elec       q    Type
REMARK                         _______ _______ _______ _____ _____    ______ ____
ROOT
ATOM      1  N   UNL     1       0.692   1.342  -3.251  0.00  0.00    -0.174 NA
ATOM      2  C   UNL     1      -0.264   2.439  -3.034  0.00  0.00    +0.125 C 
ATOM      3  C   UNL     1      -0.359   3.263  -4.322  0.00  0.00    +0.102 C 
ATOM      4  N   UNL     1       0.987   3.684  -4.732  0.00  0.00    -0.293 NA
ATOM      5  C   UNL     1       1.834   2.527  -5.050  0.00  0.00    +0.102 C 
ATOM      6  C   UNL     1       2.022   1.673  -3.786  0.00  0.00    +0.125 C 
ENDROOT
BRANCH   1   7
ATOM      7  S   UNL     1       0.284  -0.224  -2.897  0.00  0.00    +0.061 S 
ATOM      8  O   UNL     1       1.123  -1.052  -3.691  0.00  0.00    -0.153 OA
ATOM      9  O   UNL     1      -1.134  -0.297  -2.954  0.00  0.00    -0.153 OA
BRANCH   7  12
ATOM     10  C   UNL     1      -0.019   1.526   0.010  0.00  0.00    +0.047 C 
ATOM     11  C   UNL     1       0.002  -0.004   0.002  0.00  0.00    +0.196 C 
ATOM     12  C   UNL     1       0.735  -0.512  -1.218  0.00  0.00    +0.134 C 
ATOM     13  C   UNL     1       1.772  -1.208  -0.801  0.00  0.00    +0.061 C 
ATOM     14  N   UNL     1       1.832  -1.235   0.581  0.00  0.00    -0.268 N 
ATOM     15  O   UNL     1       0.748  -0.498   1.124  0.00  0.00    -0.265 OA
ATOM     16  C   UNL     1       2.763  -1.888  -1.710  0.00  0.00    +0.067 C 
ATOM     17  H   UNL     1       2.513  -1.690   1.100  0.00  0.00    +0.194 HD
ENDBRANCH   7  12
ENDBRANCH   1   7
BRANCH   4  18
ATOM     18  C   UNL     1       0.925   4.618  -5.864  0.00  0.00    +0.158 C 
BRANCH  18  19
ATOM     19  C   UNL     1       2.289   5.216  -6.097  0.00  0.00    +0.138 C 
ATOM     20  N   UNL     1       3.273   4.841  -5.316  0.00  0.00    -0.160 NA
ATOM     21  C   UNL     1       4.518   5.313  -5.443  0.00  0.00    +0.271 C 
ATOM     22  O   UNL     1       5.410   4.942  -4.699  0.00  0.00    -0.268 OA
ATOM     23  C   UNL     1       4.780   6.311  -6.528  0.00  0.00    +0.068 C 
ATOM     24  C   UNL     1       5.937   6.914  -6.841  0.00  0.00    +0.008 C 
ATOM     25  C   UNL     1       5.931   7.891  -7.995  0.00  0.00    +0.106 C 
ATOM     26  S   UNL     1       4.172   7.829  -8.527  0.00  0.00    -0.093 S 
ATOM     27  C   UNL     1       3.589   6.649  -7.336  0.00  0.00    +0.112 C 
ATOM     28  N   UNL     1       2.431   6.088  -7.083  0.00  0.00    -0.226 NA
BRANCH  25  29
ATOM     29  C   UNL     1       6.847   7.428  -9.098  0.00  0.00    -0.030 A 
ATOM     30  C   UNL     1       6.619   6.215  -9.722  0.00  0.00    +0.005 A 
ATOM     31  C   UNL     1       7.459   5.790 -10.734  0.00  0.00    +0.000 A 
ATOM     32  C   UNL     1       8.526   6.578 -11.123  0.00  0.00    +0.000 A 
ATOM     33  C   UNL     1       8.753   7.791 -10.501  0.00  0.00    +0.000 A 
ATOM     34  C   UNL     1       7.911   8.218  -9.491  0.00  0.00    +0.005 A 
ENDBRANCH  25  29
ENDBRANCH  18  19
ENDBRANCH   4  18
TORSDOF 5
