REMARK  Name = ZINC23058449
REMARK  12 active torsions:
REMARK  status: ('A' for Active; 'I' for Inactive)
REMARK    1  A    between atoms: C_1  and  C_2
REMARK    2  A    between atoms: C_2  and  C_3
REMARK    3  A    between atoms: C_2  and  C_4
REMARK    4  A    between atoms: C_4  and  C_5
REMARK    5  A    between atoms: C_5  and  C_7
REMARK    6  A    between atoms: C_5  and  N_27
REMARK    7  A    between atoms: N_9  and  C_10
REMARK    8  A    between atoms: C_10  and  C_11
REMARK    9  A    between atoms: C_11  and  C_13
REMARK   10  A    between atoms: C_11  and  N_21
REMARK   11  A    between atoms: C_16  and  O_19
REMARK   12  A    between atoms: O_19  and  C_20
REMARK                            x       y       z     vdW  Elec       q    Type
REMARK                         _______ _______ _______ _____ _____    ______ ____
ROOT
ATOM      1  C   UNL     1       0.240   0.246  -3.305  0.00  0.00    +0.234 C 
ATOM      2  O   UNL     1      -0.403   1.102  -3.875  0.00  0.00    -0.274 OA
ATOM      3  N   UNL     1       0.276   0.216  -1.958  0.00  0.00    -0.315 N 
ATOM      4  H   UNL     1       0.859  -0.560  -1.441  0.00  0.00    +0.149 HD
ENDROOT
BRANCH   1   5
ATOM      5  C   UNL     1       0.998  -0.784  -4.102  0.00  0.00    +0.170 C 
BRANCH   5   6
ATOM      6  N   UNL     1       0.799  -0.537  -5.532  0.00  0.00    -0.230 N 
ATOM      7  C   UNL     1       1.202   0.592  -6.146  0.00  0.00    +0.227 C 
ATOM      8  O   UNL     1       1.936   1.439  -5.685  0.00  0.00    -0.275 OA
ATOM      9  C   UNL     1       0.560   0.606  -7.543  0.00  0.00    +0.091 C 
ATOM     10  C   UNL     1      -0.803   1.270  -7.335  0.00  0.00    +0.040 C 
ATOM     11  C   UNL     1      -1.871   0.712  -8.210  0.00  0.00    -0.030 C 
ATOM     12  C   UNL     1      -1.805  -0.421  -8.826  0.00  0.00    -0.030 C 
ATOM     13  C   UNL     1      -0.611  -1.301  -8.776  0.00  0.00    +0.040 C 
ATOM     14  C   UNL     1       0.402  -0.909  -7.752  0.00  0.00    +0.091 C 
ATOM     15  C   UNL     1       0.190  -1.420  -6.356  0.00  0.00    +0.227 C 
ATOM     16  O   UNL     1      -0.408  -2.423  -6.032  0.00  0.00    -0.275 OA
ENDBRANCH   5   6
BRANCH   5  17
ATOM     17  C   UNL     1       2.488  -0.690  -3.771  0.00  0.00    +0.035 C 
BRANCH  17  19
ATOM     18  C   UNL     1       4.749  -1.618  -4.292  0.00  0.00    +0.007 C 
ATOM     19  C   UNL     1       3.244  -1.804  -4.498  0.00  0.00    -0.015 C 
ATOM     20  C   UNL     1       2.816  -3.161  -3.936  0.00  0.00    +0.007 C 
ENDBRANCH  17  19
ENDBRANCH   5  17
ENDBRANCH   1   5
BRANCH   3  21
ATOM     21  C   UNL     1      -0.461   1.217  -1.183  0.00  0.00    +0.093 C 
BRANCH  21  22
ATOM     22  C   UNL     1      -0.352   0.889   0.308  0.00  0.00    -0.020 C 
BRANCH  22  23
ATOM     23  N   UNL     1       1.064   0.808   0.689  0.00  0.00    +0.385 N 
ATOM     24  C   UNL     1       1.213   0.284   2.053  0.00  0.00    -0.078 C 
ATOM     25  C   UNL     1       2.697   0.076   2.362  0.00  0.00    -0.019 C 
ATOM     26  C   UNL     1       3.433   1.412   2.226  0.00  0.00    -0.004 C 
ATOM     27  C   UNL     1       3.222   1.961   0.812  0.00  0.00    -0.019 C 
ATOM     28  C   UNL     1       1.723   2.113   0.548  0.00  0.00    -0.078 C 
ATOM     29  H   UNL     1       1.561   0.106   0.004  0.00  0.00    -0.081 HD
ENDBRANCH  22  23
BRANCH  22  30
ATOM     30  C   UNL     1      -1.028   1.971   1.111  0.00  0.00    -0.059 A 
ATOM     31  C   UNL     1      -0.745   3.300   0.854  0.00  0.00    +0.005 A 
ATOM     32  C   UNL     1      -1.367   4.294   1.584  0.00  0.00    +0.046 A 
ATOM     33  C   UNL     1      -2.267   3.957   2.584  0.00  0.00    +0.120 A 
ATOM     34  C   UNL     1      -2.545   2.623   2.844  0.00  0.00    +0.046 A 
ATOM     35  C   UNL     1      -1.925   1.633   2.107  0.00  0.00    +0.005 A 
BRANCH  33  36
ATOM     36  O   UNL     1      -2.876   4.933   3.309  0.00  0.00    -0.495 OA
ATOM     37  C   UNL     1      -2.541   6.284   2.987  0.00  0.00    +0.277 C 
ENDBRANCH  33  36
ENDBRANCH  22  30
ENDBRANCH  21  22
ENDBRANCH   3  21
TORSDOF 9
