REMARK  Name = ZINC04599234
REMARK  5 active torsions:
REMARK  status: ('A' for Active; 'I' for Inactive)
REMARK    1  A    between atoms: C_1  and  C_2
REMARK    2  A    between atoms: C_2  and  C_3
REMARK    3  A    between atoms: C_10  and  C_14
REMARK    4  A    between atoms: C_10  and  O_18
REMARK    5  A    between atoms: C_19  and  C_21
REMARK                            x       y       z     vdW  Elec       q    Type
REMARK                         _______ _______ _______ _____ _____    ______ ____
ROOT
ATOM      1  C   UNL     1       8.912   2.073   0.365  0.00  0.00    -0.010 C 
ATOM      2  C   UNL     1       7.947   3.205   0.712  0.00  0.00    +0.009 C 
ATOM      3  C   UNL     1       6.771   3.224  -0.278  0.00  0.00    +0.053 C 
ATOM      4  C   UNL     1       6.211   1.817  -0.309  0.00  0.00    +0.045 C 
ATOM      5  N   UNL     1       5.022   1.429  -0.150  0.00  0.00    -0.183 NA
ATOM      6  N   UNL     1       4.866   0.042  -0.132  0.00  0.00    -0.148 N 
ATOM      7  C   UNL     1       6.194  -0.584  -0.274  0.00  0.00    +0.259 C 
ATOM      8  C   UNL     1       7.116   0.613  -0.536  0.00  0.00    +0.097 C 
ATOM      9  C   UNL     1       8.235   0.705   0.503  0.00  0.00    +0.018 C 
ATOM     10  C   UNL     1       3.696  -0.616   0.000  0.00  0.00    +0.269 C 
ATOM     11  O   UNL     1       3.689  -1.826   0.112  0.00  0.00    -0.268 OA
ENDROOT
BRANCH  10  12
ATOM     12  C   UNL     1       2.424   0.135   0.009  0.00  0.00    +0.039 A 
ATOM     13  C   UNL     1       1.223  -0.525   0.276  0.00  0.00    +0.014 A 
ATOM     14  C   UNL     1       0.038   0.180   0.282  0.00  0.00    +0.021 A 
ATOM     15  C   UNL     1       0.038   1.541   0.024  0.00  0.00    +0.041 A 
ATOM     16  C   UNL     1       1.226   2.202  -0.242  0.00  0.00    +0.021 A 
ATOM     17  C   UNL     1       2.417   1.507  -0.251  0.00  0.00    +0.014 A 
ATOM     18 CL   UNL     1      -1.458   2.422   0.026  0.00  0.00    -0.084 Cl
ENDBRANCH  10  12
BRANCH   7  19
ATOM     19  C   UNL     1       6.592  -1.305   1.016  0.00  0.00    +0.438 C 
ATOM     20  F   UNL     1       5.742  -2.397   1.221  0.00  0.00    -0.166 F 
ATOM     21  F   UNL     1       7.912  -1.755   0.909  0.00  0.00    -0.166 F 
ATOM     22  F   UNL     1       6.486  -0.422   2.095  0.00  0.00    -0.166 F 
ENDBRANCH   7  19
BRANCH   1  24
ATOM     23  C   UNL     1      10.895   3.427   1.057  0.00  0.00    +0.004 C 
ATOM     24  C   UNL     1      10.116   2.134   1.307  0.00  0.00    +0.000 C 
ENDBRANCH   1  24
BRANCH   7  25
ATOM     25  O   UNL     1       6.211  -1.484  -1.383  0.00  0.00    -0.363 OA
ATOM     26  H   UNL     1       5.588  -2.220  -1.303  0.00  0.00    +0.212 HD
ENDBRANCH   7  25
TORSDOF 4
