REMARK  Name = ZINC12244651
REMARK  9 active torsions:
REMARK  status: ('A' for Active; 'I' for Inactive)
REMARK    1  A    between atoms: C_1  and  C_2
REMARK    2  A    between atoms: C_2  and  C_3
REMARK    3  A    between atoms: C_3  and  C_20
REMARK    4  A    between atoms: N_6  and  C_10
REMARK    5  A    between atoms: C_10  and  C_11
REMARK    6  A    between atoms: C_25  and  C_26
REMARK    7  A    between atoms: C_25  and  N_67
REMARK    8  A    between atoms: C_29  and  C_33
REMARK    9  A    between atoms: C_31  and  C_32
REMARK                            x       y       z     vdW  Elec       q    Type
REMARK                         _______ _______ _______ _____ _____    ______ ____
ROOT
ATOM      1  C   UNL     1       4.221   6.099  -0.225  0.00  0.00    +0.115 C 
ATOM      2  C   UNL     1       5.733   6.135  -0.120  0.00  0.00    +0.247 C 
ATOM      3  O   UNL     1       6.528   5.487  -0.766  0.00  0.00    -0.273 OA
ATOM      4  N   UNL     1       6.010   7.038   0.842  0.00  0.00    -0.220 N 
ATOM      5  C   UNL     1       4.895   7.572   1.353  0.00  0.00    +0.310 C 
ATOM      6  O   UNL     1       4.889   8.409   2.234  0.00  0.00    -0.252 OA
ATOM      7  N   UNL     1       3.777   7.079   0.782  0.00  0.00    -0.285 N 
ATOM      8  H   UNL     1       2.862   7.320   0.991  0.00  0.00    +0.151 HD
ENDROOT
BRANCH   1   9
ATOM      9  C   UNL     1       3.691   4.704   0.110  0.00  0.00    +0.018 C 
ATOM     10  C   UNL     1       4.156   4.304   1.513  0.00  0.00    -0.013 C 
ATOM     11  C   UNL     1       3.573   2.934   1.867  0.00  0.00    -0.078 C 
ATOM     12  C   UNL     1       1.635   3.334   0.468  0.00  0.00    -0.078 C 
ATOM     13  C   UNL     1       2.160   4.716   0.073  0.00  0.00    -0.013 C 
ATOM     14  N   UNL     1       2.097   3.019   1.837  0.00  0.00    +0.382 N 
ATOM     15  H   UNL     1       1.793   3.767   2.471  0.00  0.00    -0.081 HD
BRANCH  14  16
ATOM     16  C   UNL     1       1.509   1.740   2.286  0.00  0.00    -0.043 C 
BRANCH  16  17
ATOM     17  C   UNL     1       0.051   1.962   2.597  0.00  0.00    -0.061 A 
ATOM     18  C   UNL     1      -0.920   1.477   1.740  0.00  0.00    +0.002 A 
ATOM     19  C   UNL     1      -2.257   1.680   2.025  0.00  0.00    +0.003 A 
ATOM     20  C   UNL     1      -2.623   2.367   3.167  0.00  0.00    -0.050 A 
ATOM     21  C   UNL     1      -1.653   2.847   4.026  0.00  0.00    +0.007 A 
ATOM     22  C   UNL     1      -0.315   2.649   3.738  0.00  0.00    -0.049 A 
ATOM     23  C   UNL     1       0.743   3.177   4.672  0.00  0.00    +0.044 C 
ATOM     24  C   UNL     1      -4.081   2.588   3.479  0.00  0.00    +0.044 C 
ENDBRANCH  16  17
ENDBRANCH  14  16
ENDBRANCH   1   9
BRANCH   1  26
ATOM     25  C   UNL     1       4.312   7.920  -1.934  0.00  0.00    +0.006 C 
ATOM     26  C   UNL     1       3.769   6.523  -1.624  0.00  0.00    +0.032 C 
ENDBRANCH   1  26
BRANCH   4  27
ATOM     27  C   UNL     1       7.365   7.391   1.274  0.00  0.00    +0.153 C 
BRANCH  27  28
ATOM     28  C   UNL     1       7.873   8.541   0.443  0.00  0.00    -0.026 A 
ATOM     29  C   UNL     1       7.650   9.842   0.857  0.00  0.00    +0.009 A 
ATOM     30  C   UNL     1       8.114  10.900   0.099  0.00  0.00    +0.050 A 
ATOM     31  C   UNL     1       8.805  10.660  -1.078  0.00  0.00    +0.166 A 
ATOM     32  C   UNL     1       9.029   9.350  -1.495  0.00  0.00    +0.167 A 
ATOM     33  C   UNL     1       8.565   8.294  -0.728  0.00  0.00    +0.054 A 
ATOM     34  O   UNL     1       9.722   9.379  -2.670  0.00  0.00    -0.453 OA
ATOM     35  C   UNL     1       9.565  10.717  -3.177  0.00  0.00    +0.466 C 
ATOM     36  O   UNL     1       9.358  11.509  -1.993  0.00  0.00    -0.453 OA
ENDBRANCH  27  28
ENDBRANCH   4  27
TORSDOF 6
