REMARK  Name = ZINC37576298
REMARK  6 active torsions:
REMARK  status: ('A' for Active; 'I' for Inactive)
REMARK    1  A    between atoms: C_1  and  C_2
REMARK    2  A    between atoms: C_2  and  C_3
REMARK    3  A    between atoms: C_3  and  N_4
REMARK    4  A    between atoms: N_4  and  C_5
REMARK    5  A    between atoms: N_4  and  S_8
REMARK    6  A    between atoms: S_8  and  C_11
REMARK                            x       y       z     vdW  Elec       q    Type
REMARK                         _______ _______ _______ _____ _____    ______ ____
ROOT
ATOM      1  S   UNL     1      -0.438  -2.853   1.618  0.00  0.00    +0.062 S 
ATOM      2  O   UNL     1      -0.077  -4.001   2.374  0.00  0.00    -0.153 OA
ATOM      3  O   UNL     1      -1.281  -1.834   2.137  0.00  0.00    -0.153 OA
ENDROOT
BRANCH   1   4
ATOM      4  C   UNL     1      -1.204  -3.440   0.144  0.00  0.00    +0.120 A 
ATOM      5  C   UNL     1      -1.333  -4.798  -0.074  0.00  0.00    +0.045 A 
ATOM      6  C   UNL     1      -1.934  -5.259  -1.231  0.00  0.00    +0.020 A 
ATOM      7  C   UNL     1      -2.408  -4.360  -2.170  0.00  0.00    +0.016 A 
ATOM      8  C   UNL     1      -2.279  -3.001  -1.951  0.00  0.00    +0.018 A 
ATOM      9  C   UNL     1      -1.682  -2.541  -0.791  0.00  0.00    +0.044 A 
ATOM     10 BR   UNL     1      -1.513  -0.681  -0.489  0.00  0.00    -0.048 Br
ATOM     11 BR   UNL     1      -2.110  -7.118  -1.530  0.00  0.00    -0.050 Br
ENDBRANCH   1   4
BRANCH   1  12
ATOM     12  N   UNL     1       0.977  -2.116   1.175  0.00  0.00    -0.174 NA
BRANCH  12  13
ATOM     13  C   UNL     1       2.163  -2.924   0.879  0.00  0.00    +0.080 C 
ATOM     14  C   UNL     1       3.456  -2.182   0.534  0.00  0.00    +0.022 C 
ATOM     15  C   UNL     1       2.681  -2.917  -0.561  0.00  0.00    +0.022 C 
ENDBRANCH  12  13
BRANCH  12  16
ATOM     16  C   UNL     1       1.043  -0.655   1.077  0.00  0.00    +0.109 C 
BRANCH  16  18
ATOM     17  C   UNL     1       2.024   1.410   2.084  0.00  0.00    +0.005 C 
ATOM     18  C   UNL     1       1.868  -0.104   2.242  0.00  0.00    +0.014 C 
ENDBRANCH  16  18
ENDBRANCH  12  16
ENDBRANCH   1  12
TORSDOF 5
