REMARK  Name = ZINC32531429
REMARK  8 active torsions:
REMARK  status: ('A' for Active; 'I' for Inactive)
REMARK    1  A    between atoms: C_1  and  C_2
REMARK    2  A    between atoms: C_4  and  O_5
REMARK    3  A    between atoms: C_14  and  C_16
REMARK    4  A    between atoms: C_21  and  S_22
REMARK    5  A    between atoms: S_22  and  C_23
REMARK    6  A    between atoms: C_23  and  C_24
REMARK    7  A    between atoms: C_25  and  C_30
REMARK    8  A    between atoms: C_28  and  C_29
REMARK                            x       y       z     vdW  Elec       q    Type
REMARK                         _______ _______ _______ _____ _____    ______ ____
ROOT
ATOM      1  C   UNL     1       1.759  12.400  -1.123  0.00  0.00    +0.045 C 
ATOM      2  C   UNL     1       0.718  11.614  -0.369  0.00  0.00    -0.033 A 
ATOM      3  C   UNL     1      -0.323  12.239   0.240  0.00  0.00    +0.091 A 
ATOM      4  C   UNL     1      -1.284  11.481   0.940  0.00  0.00    +0.285 A 
ATOM      5  O   UNL     1      -1.203  10.144   1.023  0.00  0.00    -0.425 OA
ATOM      6  C   UNL     1      -0.194   9.461   0.440  0.00  0.00    +0.141 A 
ATOM      7  C   UNL     1       0.801  10.155  -0.274  0.00  0.00    +0.021 A 
ATOM      8  C   UNL     1       1.848   9.452  -0.881  0.00  0.00    +0.013 A 
ATOM      9  C   UNL     1       1.905   8.093  -0.772  0.00  0.00    +0.024 A 
ATOM     10  C   UNL     1       0.919   7.398  -0.071  0.00  0.00    +0.037 A 
ATOM     11  C   UNL     1      -0.126   8.080   0.536  0.00  0.00    +0.070 A 
ATOM     12  N   UNL     1       0.988   6.009   0.026  0.00  0.00    -0.281 N 
ATOM     13  C   UNL     1      -0.144   5.277   0.028  0.00  0.00    +0.251 C 
ATOM     14  O   UNL     1      -1.227   5.831   0.030  0.00  0.00    -0.270 OA
ATOM     15  H   UNL     1       1.965   5.511   0.100  0.00  0.00    +0.155 HD
ENDROOT
BRANCH  13  16
ATOM     16  C   UNL     1      -0.070   3.806   0.029  0.00  0.00    +0.069 A 
ATOM     17  C   UNL     1       1.170   3.154   0.027  0.00  0.00    +0.017 A 
ATOM     18  C   UNL     1       1.185   1.771   0.028  0.00  0.00    +0.020 A 
ATOM     19  C   UNL     1      -0.011   1.075   0.031  0.00  0.00    +0.112 A 
ATOM     20  N   UNL     1      -1.169   1.706   0.027  0.00  0.00    -0.248 NA
ATOM     21  C   UNL     1      -1.242   3.029   0.032  0.00  0.00    +0.109 A 
BRANCH  21  22
ATOM     22  S   UNL     1      -2.817   3.820   0.034  0.00  0.00    -0.100 S 
BRANCH  22  23
ATOM     23  C   UNL     1      -3.897   2.368   0.037  0.00  0.00    +0.116 C 
BRANCH  23  24
ATOM     24  C   UNL     1      -5.337   2.813   0.040  0.00  0.00    +0.027 A 
ATOM     25  C   UNL     1      -6.169   3.065   1.155  0.00  0.00    +0.085 A 
ATOM     26  N   UNL     1      -7.324   3.427   0.677  0.00  0.00    -0.083 NA
ATOM     27  O   UNL     1      -7.326   3.426  -0.532  0.00  0.00    -0.359 OA
ATOM     28  C   UNL     1      -6.136   3.058  -1.026  0.00  0.00    +0.138 A 
ATOM     29  C   UNL     1      -5.761   2.941  -2.481  0.00  0.00    +0.089 C 
ATOM     30  C   UNL     1      -5.791   2.943   2.608  0.00  0.00    +0.069 C 
ENDBRANCH  23  24
ENDBRANCH  22  23
ENDBRANCH  21  22
ENDBRANCH  13  16
BRANCH   4  31
ATOM     31  O   UNL     1      -2.212  12.054   1.481  0.00  0.00    -0.480 OA
ATOM     32  H   UNL     1      -2.970  11.476   2.030  0.00  0.00    +0.295 HD
ENDBRANCH   4  31
TORSDOF 5
