REMARK  Name = ZINC41173397
REMARK  4 active torsions:
REMARK  status: ('A' for Active; 'I' for Inactive)
REMARK    1  A    between atoms: C_3  and  C_8
REMARK    2  A    between atoms: N_11  and  S_15
REMARK    3  A    between atoms: S_15  and  C_18
REMARK    4  A    between atoms: C_22  and  N_24
REMARK                            x       y       z     vdW  Elec       q    Type
REMARK                         _______ _______ _______ _____ _____    ______ ____
ROOT
ATOM      1  C   UNL     1       3.672   2.184  -0.021  0.00  0.00    +0.164 C 
ATOM      2  C   UNL     1       4.164   2.344  -1.464  0.00  0.00    +0.146 C 
ATOM      3  N   UNL     1       5.512   2.931  -1.433  0.00  0.00    -0.172 NA
ATOM      4  C   UNL     1       6.518   2.308  -0.558  0.00  0.00    +0.137 C 
ATOM      5  C   UNL     1       5.912   2.150   0.841  0.00  0.00    +0.178 C 
ATOM      6  O   UNL     1       4.655   1.475   0.737  0.00  0.00    -0.369 OA
ENDROOT
BRANCH   1   9
ATOM      7  C   UNL     1      -0.017   1.378   0.010  0.00  0.00    +0.002 A 
ATOM      8  C   UNL     1       1.171   2.086   0.002  0.00  0.00    +0.006 A 
ATOM      9  C   UNL     1       2.378   1.412  -0.013  0.00  0.00    -0.016 A 
ATOM     10  C   UNL     1       2.398   0.029  -0.021  0.00  0.00    +0.026 A 
ATOM     11  C   UNL     1       1.210  -0.679  -0.013  0.00  0.00    +0.041 A 
ATOM     12  C   UNL     1       0.002  -0.004   0.002  0.00  0.00    +0.020 A 
ATOM     13 CL   UNL     1       1.234  -2.415  -0.024  0.00  0.00    -0.084 Cl
ENDBRANCH   1   9
BRANCH   3  14
ATOM     14  S   UNL     1       5.887   4.255  -2.354  0.00  0.00    +0.061 S 
ATOM     15  O   UNL     1       7.295   4.232  -2.546  0.00  0.00    -0.153 OA
ATOM     16  O   UNL     1       4.971   4.267  -3.440  0.00  0.00    -0.153 OA
BRANCH  14  17
ATOM     17  C   UNL     1       5.535   5.683  -1.383  0.00  0.00    +0.108 A 
ATOM     18  C   UNL     1       4.277   6.256  -1.427  0.00  0.00    +0.028 A 
ATOM     19  C   UNL     1       4.001   7.376  -0.666  0.00  0.00    +0.004 A 
ATOM     20  C   UNL     1       4.982   7.922   0.142  0.00  0.00    +0.033 A 
ATOM     21  C   UNL     1       6.238   7.348   0.187  0.00  0.00    +0.128 A 
ATOM     22  C   UNL     1       6.513   6.226  -0.572  0.00  0.00    +0.061 A 
BRANCH  21  23
ATOM     23  N   UNL     1       7.288   7.933   1.051  0.00  0.00    +0.056 N 
ATOM     24  O   UNL     1       7.047   8.913   1.716  0.00  0.00    -0.126 OA
ATOM     25  O   UNL     1       8.387   7.431   1.090  0.00  0.00    -0.126 OA
ENDBRANCH  21  23
ENDBRANCH  14  17
ENDBRANCH   3  14
TORSDOF 4
