REMARK  Name = ZINC19760958
REMARK  11 active torsions:
REMARK  status: ('A' for Active; 'I' for Inactive)
REMARK    1  A    between atoms: C_1  and  C_2
REMARK    2  A    between atoms: C_3  and  C_30
REMARK    3  A    between atoms: C_4  and  C_14
REMARK    4  A    between atoms: C_17  and  O_22
REMARK    5  A    between atoms: C_18  and  O_20
REMARK    6  A    between atoms: O_20  and  C_21
REMARK    7  A    between atoms: O_22  and  C_23
REMARK    8  A    between atoms: C_23  and  C_24
REMARK    9  A    between atoms: C_30  and  O_32
REMARK   10  A    between atoms: O_32  and  C_33
REMARK   11  A    between atoms: C_33  and  C_34
REMARK                            x       y       z     vdW  Elec       q    Type
REMARK                         _______ _______ _______ _____ _____    ______ ____
ROOT
ATOM      1  C   UNL     1      -4.499   2.980  -4.243  0.00  0.00    +0.061 C 
ATOM      2  C   UNL     1      -5.084   2.113  -3.158  0.00  0.00    +0.016 C 
ATOM      3  C   UNL     1      -4.271   1.517  -2.269  0.00  0.00    +0.065 C 
ATOM      4  C   UNL     1      -4.817   0.645  -1.176  0.00  0.00    +0.092 C 
ATOM      5  C   UNL     1      -6.291   0.891  -0.974  0.00  0.00    +0.024 C 
ATOM      6  C   UNL     1      -7.023   1.513  -1.923  0.00  0.00    +0.015 C 
ATOM      7  N   UNL     1      -6.437   1.935  -3.086  0.00  0.00    -0.321 N 
ATOM      8  C   UNL     1      -8.497   1.765  -1.727  0.00  0.00    +0.051 C 
ATOM      9  C   UNL     1      -9.095   0.661  -0.852  0.00  0.00    +0.014 C 
ATOM     10  C   UNL     1      -8.349   0.644   0.486  0.00  0.00    +0.080 C 
ATOM     11  C   UNL     1      -6.880   0.452   0.225  0.00  0.00    +0.162 C 
ATOM     12  O   UNL     1      -6.190  -0.092   1.064  0.00  0.00    -0.292 OA
ATOM     13  H   UNL     1      -7.065   2.130  -3.968  0.00  0.00    +0.152 HD
ENDROOT
BRANCH   4  14
ATOM     14  C   UNL     1      -4.603  -0.800  -1.543  0.00  0.00    -0.032 A 
ATOM     15  C   UNL     1      -5.171  -1.312  -2.695  0.00  0.00    +0.008 A 
ATOM     16  C   UNL     1      -4.973  -2.636  -3.038  0.00  0.00    +0.050 A 
ATOM     17  C   UNL     1      -4.212  -3.457  -2.221  0.00  0.00    +0.162 A 
ATOM     18  C   UNL     1      -3.644  -2.944  -1.059  0.00  0.00    +0.162 A 
ATOM     19  C   UNL     1      -3.842  -1.614  -0.724  0.00  0.00    +0.054 A 
BRANCH  18  20
ATOM     20  O   UNL     1      -2.896  -3.746  -0.255  0.00  0.00    -0.491 OA
ATOM     21  C   UNL     1      -2.344  -3.151   0.921  0.00  0.00    +0.277 C 
ENDBRANCH  18  20
BRANCH  17  22
ATOM     22  O   UNL     1      -4.020  -4.761  -2.555  0.00  0.00    -0.484 OA
BRANCH  22  23
ATOM     23  C   UNL     1      -4.633  -5.219  -3.762  0.00  0.00    +0.264 C 
BRANCH  23  24
ATOM     24  C   UNL     1      -4.313  -6.677  -3.967  0.00  0.00    -0.010 A 
ATOM     25  C   UNL     1      -3.186  -7.045  -4.678  0.00  0.00    +0.007 A 
ATOM     26  C   UNL     1      -2.890  -8.382  -4.861  0.00  0.00    +0.000 A 
ATOM     27  C   UNL     1      -3.726  -9.353  -4.342  0.00  0.00    +0.000 A 
ATOM     28  C   UNL     1      -4.856  -8.986  -3.635  0.00  0.00    +0.000 A 
ATOM     29  C   UNL     1      -5.149  -7.648  -3.447  0.00  0.00    +0.007 A 
ENDBRANCH  23  24
ENDBRANCH  22  23
ENDBRANCH  17  22
ENDBRANCH   4  14
BRANCH   3  30
ATOM     30  C   UNL     1      -2.874   1.719  -2.362  0.00  0.00    +0.338 C 
ATOM     31  O   UNL     1      -2.309   2.444  -1.565  0.00  0.00    -0.245 OA
BRANCH  30  32
ATOM     32  O   UNL     1      -2.167   1.108  -3.336  0.00  0.00    -0.459 OA
BRANCH  32  33
ATOM     33  C   UNL     1      -0.760   1.357  -3.370  0.00  0.00    +0.264 C 
BRANCH  33  34
ATOM     34  C   UNL     1      -0.134   0.584  -4.532  0.00  0.00    +0.156 C 
ATOM     35  C   UNL     1       1.400   0.755  -4.508  0.00  0.00    +0.037 C 
ATOM     36  C   UNL     1       1.741   0.887  -6.018  0.00  0.00    +0.031 C 
ATOM     37  C   UNL     1       0.490   1.640  -6.537  0.00  0.00    +0.160 C 
ATOM     38  O   UNL     1      -0.608   1.110  -5.777  0.00  0.00    -0.373 OA
ENDBRANCH  33  34
ENDBRANCH  32  33
ENDBRANCH  30  32
ENDBRANCH   3  30
TORSDOF 9
