REMARK  Name = ZINC12588838
REMARK  6 active torsions:
REMARK  status: ('A' for Active; 'I' for Inactive)
REMARK    1  A    between atoms: C_4  and  C_7
REMARK    2  A    between atoms: C_7  and  C_9
REMARK    3  A    between atoms: C_11  and  C_29
REMARK    4  A    between atoms: N_16  and  C_23
REMARK    5  A    between atoms: C_17  and  C_18
REMARK    6  A    between atoms: C_17  and  O_22
REMARK                            x       y       z     vdW  Elec       q    Type
REMARK                         _______ _______ _______ _____ _____    ______ ____
ROOT
ATOM      1  C   UNL     1       3.462   3.569   0.094  0.00  0.00    +0.145 C 
ATOM      2  C   UNL     1       3.546   4.430   1.359  0.00  0.00    +0.120 C 
ATOM      3  N   UNL     1       4.804   4.146   2.050  0.00  0.00    -0.291 N 
ATOM      4  C   UNL     1       5.896   3.750   1.379  0.00  0.00    +0.309 C 
ATOM      5  O   UNL     1       6.919   3.538   2.000  0.00  0.00    -0.252 OA
ATOM      6  N   UNL     1       5.904   3.580   0.048  0.00  0.00    -0.218 N 
ATOM      7  C   UNL     1       4.705   3.830  -0.762  0.00  0.00    +0.250 C 
ATOM      8  H   UNL     1       4.850   4.247   3.014  0.00  0.00    +0.151 HD
ENDROOT
BRANCH   2   9
ATOM      9  C   UNL     1       2.387   4.108   2.266  0.00  0.00    -0.026 A 
ATOM     10  C   UNL     1       2.429   2.981   3.066  0.00  0.00    +0.007 A 
ATOM     11  C   UNL     1       1.368   2.688   3.903  0.00  0.00    +0.020 A 
ATOM     12  C   UNL     1       0.260   3.516   3.931  0.00  0.00    +0.041 A 
ATOM     13  C   UNL     1       0.216   4.640   3.125  0.00  0.00    +0.020 A 
ATOM     14  C   UNL     1       1.280   4.935   2.293  0.00  0.00    +0.007 A 
ATOM     15 CL   UNL     1      -1.075   3.144   4.976  0.00  0.00    -0.084 Cl
ENDBRANCH   2   9
BRANCH   6  16
ATOM     16  C   UNL     1       7.078   3.153  -0.582  0.00  0.00    +0.041 A 
ATOM     17  C   UNL     1       7.502   1.837  -0.445  0.00  0.00    +0.023 A 
ATOM     18  C   UNL     1       8.659   1.418  -1.071  0.00  0.00    +0.002 A 
ATOM     19  C   UNL     1       9.401   2.308  -1.825  0.00  0.00    +0.000 A 
ATOM     20  C   UNL     1       8.984   3.620  -1.959  0.00  0.00    +0.002 A 
ATOM     21  C   UNL     1       7.825   4.045  -1.340  0.00  0.00    +0.023 A 
ENDBRANCH   6  16
BRANCH   7  22
ATOM     22  C   UNL     1       4.696   2.896  -1.975  0.00  0.00    +0.437 C 
ATOM     23  F   UNL     1       3.484   3.033  -2.659  0.00  0.00    -0.166 F 
ATOM     24  F   UNL     1       5.753   3.230  -2.828  0.00  0.00    -0.166 F 
ATOM     25  F   UNL     1       4.843   1.573  -1.546  0.00  0.00    -0.166 F 
ENDBRANCH   7  22
BRANCH   1  26
ATOM     26  C   UNL     1       3.407   2.112   0.477  0.00  0.00    +0.173 C 
ATOM     27  O   UNL     1       4.434   1.479   0.601  0.00  0.00    -0.292 OA
BRANCH  26  31
ATOM     28  C   UNL     1      -0.338   0.227   1.119  0.00  0.00    +0.000 A 
ATOM     29  C   UNL     1      -0.292   1.565   0.768  0.00  0.00    +0.001 A 
ATOM     30  C   UNL     1       0.921   2.185   0.558  0.00  0.00    +0.011 A 
ATOM     31  C   UNL     1       2.108   1.458   0.700  0.00  0.00    +0.018 A 
ATOM     32  C   UNL     1       2.053   0.107   1.055  0.00  0.00    +0.011 A 
ATOM     33  C   UNL     1       0.831  -0.499   1.262  0.00  0.00    +0.001 A 
ENDBRANCH  26  31
ENDBRANCH   1  26
BRANCH   7  34
ATOM     34  O   UNL     1       4.705   5.189  -1.204  0.00  0.00    -0.364 OA
ATOM     35  H   UNL     1       5.465   5.424  -1.753  0.00  0.00    +0.212 HD
ENDBRANCH   7  34
TORSDOF 6
