REMARK  Name = ZINC64179009
REMARK  6 active torsions:
REMARK  status: ('A' for Active; 'I' for Inactive)
REMARK    1  A    between atoms: C_4  and  S_7
REMARK    2  A    between atoms: S_7  and  N_10
REMARK    3  A    between atoms: N_10  and  C_11
REMARK    4  A    between atoms: C_17  and  C_19
REMARK    5  A    between atoms: C_19  and  C_20
REMARK    6  A    between atoms: C_20  and  C_21
REMARK                            x       y       z     vdW  Elec       q    Type
REMARK                         _______ _______ _______ _____ _____    ______ ____
ROOT
ATOM      1  C   UNL     1       3.567  -1.942   2.398  0.00  0.00    +0.079 C 
ATOM      2  C   UNL     1       2.578  -1.086   3.192  0.00  0.00    +0.039 C 
ATOM      3  C   UNL     1       1.709  -1.995   4.066  0.00  0.00    +0.109 C 
ATOM      4  N   UNL     1       2.586  -2.830   4.898  0.00  0.00    -0.301 N 
ATOM      5  C   UNL     1       3.634  -3.625   4.243  0.00  0.00    +0.109 C 
ATOM      6  C   UNL     1       4.481  -2.698   3.366  0.00  0.00    +0.039 C 
ATOM      7  C   UNL     1       2.434  -2.866   6.237  0.00  0.00    +0.216 C 
ATOM      8  O   UNL     1       1.565  -2.204   6.766  0.00  0.00    -0.276 OA
ENDROOT
BRANCH   1   9
ATOM      9  N   UNL     1       4.378  -1.079   1.536  0.00  0.00    -0.187 NA
ATOM     10  H   UNL     1       5.174  -0.651   1.888  0.00  0.00    +0.148 HD
BRANCH   9  11
ATOM     11  S   UNL     1       3.934  -0.832  -0.041  0.00  0.00    +0.059 S 
ATOM     12  O   UNL     1       3.674  -2.114  -0.595  0.00  0.00    -0.153 OA
ATOM     13  O   UNL     1       4.890   0.060  -0.597  0.00  0.00    -0.153 OA
BRANCH  11  17
ATOM     14  C   UNL     1      -0.017   1.378   0.010  0.00  0.00    +0.000 A 
ATOM     15  C   UNL     1       1.171   2.086   0.002  0.00  0.00    +0.002 A 
ATOM     16  C   UNL     1       2.377   1.411  -0.013  0.00  0.00    +0.028 A 
ATOM     17  C   UNL     1       2.396   0.029  -0.020  0.00  0.00    +0.105 A 
ATOM     18  C   UNL     1       1.208  -0.679  -0.012  0.00  0.00    +0.028 A 
ATOM     19  C   UNL     1       0.002  -0.004   0.002  0.00  0.00    +0.002 A 
ENDBRANCH  11  17
ENDBRANCH   9  11
ENDBRANCH   1   9
BRANCH   7  20
ATOM     20  C   UNL     1       3.341  -3.727   7.076  0.00  0.00    +0.100 C 
BRANCH  20  21
ATOM     21  C   UNL     1       2.958  -3.587   8.550  0.00  0.00    +0.042 C 
BRANCH  21  22
ATOM     22  C   UNL     1       3.866  -4.448   9.390  0.00  0.00    -0.041 C 
ATOM     23  C   UNL     1       4.996  -4.061  10.025  0.00  0.00    -0.001 A 
ATOM     24  C   UNL     1       5.691  -2.772  10.120  0.00  0.00    +0.010 A 
ATOM     25  C   UNL     1       6.829  -2.693  10.847  0.00  0.00    +0.001 A 
ATOM     26  C   UNL     1       7.360  -3.808  11.509  0.00  0.00    +0.002 A 
ATOM     27  C   UNL     1       6.778  -5.026  11.468  0.00  0.00    +0.026 A 
ATOM     28  C   UNL     1       5.577  -5.224  10.734  0.00  0.00    +0.043 A 
ATOM     29  N   UNL     1       4.835  -6.288  10.544  0.00  0.00    -0.380 N 
ATOM     30  C   UNL     1       3.695  -5.919   9.697  0.00  0.00    +0.144 C 
ATOM     31  H   UNL     1       5.009  -7.171  10.906  0.00  0.00    +0.160 HD
ENDBRANCH  21  22
ENDBRANCH  20  21
ENDBRANCH   7  20
TORSDOF 6
