REMARK  Name = ZINC45221965
REMARK  5 active torsions:
REMARK  status: ('A' for Active; 'I' for Inactive)
REMARK    1  A    between atoms: C_1  and  C_2
REMARK    2  A    between atoms: C_6  and  N_9
REMARK    3  A    between atoms: C_7  and  C_8
REMARK    4  A    between atoms: C_10  and  C_12
REMARK    5  A    between atoms: C_12  and  C_13
REMARK                            x       y       z     vdW  Elec       q    Type
REMARK                         _______ _______ _______ _____ _____    ______ ____
ROOT
ATOM      1  N   UNL     1       0.052  -2.778   2.426  0.00  0.00    -0.284 N 
ATOM      2  C   UNL     1       0.273  -4.107   2.439  0.00  0.00    +0.218 C 
ATOM      3  O   UNL     1       0.548  -4.686   1.409  0.00  0.00    -0.275 OA
ATOM      4  H   UNL     1      -0.098  -2.303   3.259  0.00  0.00    +0.155 HD
ENDROOT
BRANCH   1  10
ATOM      5  C   UNL     1       2.422  -0.049  -0.905  0.00  0.00    +0.044 C 
ATOM      6  C   UNL     1       1.171  -0.746  -0.436  0.00  0.00    -0.044 A 
ATOM      7  C   UNL     1       0.030  -0.691  -1.204  0.00  0.00    +0.033 A 
ATOM      8  C   UNL     1      -1.133  -1.337  -0.772  0.00  0.00    +0.091 A 
ATOM      9  C   UNL     1      -1.125  -2.036   0.444  0.00  0.00    +0.088 A 
ATOM     10  C   UNL     1       0.038  -2.082   1.212  0.00  0.00    +0.062 A 
ATOM     11  C   UNL     1       1.181  -1.441   0.764  0.00  0.00    -0.024 A 
ATOM     12  C   UNL     1       2.441  -1.495   1.589  0.00  0.00    +0.046 C 
ATOM     13  N   UNL     1      -2.396  -2.556   0.594  0.00  0.00    -0.343 N 
ATOM     14  H   UNL     1      -2.714  -3.093   1.337  0.00  0.00    +0.167 HD
ATOM     15  C   UNL     1      -3.119  -2.176  -0.493  0.00  0.00    +0.197 A 
ATOM     16  N   UNL     1      -2.381  -1.462  -1.293  0.00  0.00    -0.236 NA
ENDBRANCH   1  10
BRANCH   2  17
ATOM     17  C   UNL     1       0.178  -4.875   3.733  0.00  0.00    +0.103 C 
BRANCH  17  18
ATOM     18  C   UNL     1       0.472  -6.353   3.471  0.00  0.00    -0.020 C 
ATOM     19  C   UNL     1      -0.548  -6.907   2.474  0.00  0.00    +0.011 C 
ATOM     20  C   UNL     1      -0.254  -8.386   2.212  0.00  0.00    -0.010 C 
ATOM     21  C   UNL     1      -0.350  -9.165   3.526  0.00  0.00    +0.007 C 
ATOM     22  C   UNL     1       0.669  -8.611   4.523  0.00  0.00    -0.010 C 
ATOM     23  C   UNL     1       0.375  -7.132   4.785  0.00  0.00    +0.011 C 
ATOM     24  C   UNL     1       2.078  -8.757   3.946  0.00  0.00    +0.007 C 
ATOM     25  C   UNL     1       2.175  -7.978   2.633  0.00  0.00    -0.010 C 
ATOM     26  C   UNL     1       1.156  -8.531   1.635  0.00  0.00    +0.007 C 
ATOM     27  C   UNL     1       1.881  -6.499   2.894  0.00  0.00    +0.011 C 
ENDBRANCH  17  18
ENDBRANCH   2  17
TORSDOF 3
