REMARK  Name = ZINC39280292
REMARK  2 active torsions:
REMARK  status: ('A' for Active; 'I' for Inactive)
REMARK    1  A    between atoms: C_4  and  C_7
REMARK    2  A    between atoms: C_25  and  C_26
REMARK                            x       y       z     vdW  Elec       q    Type
REMARK                         _______ _______ _______ _____ _____    ______ ____
ROOT
ATOM      1  C   UNL     1       3.711  -0.707  -0.038  0.00  0.00    +0.151 C 
ATOM      2  C   UNL     1       4.025  -1.063  -1.471  0.00  0.00    -0.016 C 
ATOM      3  C   UNL     1       4.227  -2.355  -1.783  0.00  0.00    +0.076 C 
ATOM      4  C   UNL     1       4.564  -2.719  -3.182  0.00  0.00    +0.004 A 
ATOM      5  C   UNL     1       4.459  -4.036  -3.618  0.00  0.00    +0.010 A 
ATOM      6  C   UNL     1       4.761  -4.348  -4.929  0.00  0.00    +0.001 A 
ATOM      7  C   UNL     1       5.163  -3.355  -5.804  0.00  0.00    +0.000 A 
ATOM      8  C   UNL     1       5.275  -2.045  -5.372  0.00  0.00    +0.004 A 
ATOM      9  C   UNL     1       4.985  -1.724  -4.062  0.00  0.00    -0.038 A 
ATOM     10  C   UNL     1       5.146  -0.311  -3.568  0.00  0.00    +0.040 C 
ATOM     11  C   UNL     1       4.078   0.007  -2.525  0.00  0.00    +0.040 C 
ATOM     12  N   UNL     1       4.126  -3.317  -0.829  0.00  0.00    -0.223 NA
ATOM     13  C   UNL     1       3.849  -3.088   0.417  0.00  0.00    +0.178 A 
ATOM     14  N   UNL     1       3.621  -1.829   0.939  0.00  0.00    -0.275 N 
ATOM     15  C   UNL     1       3.345  -1.717   2.244  0.00  0.00    +0.268 A 
ATOM     16  O   UNL     1       3.139  -0.631   2.751  0.00  0.00    -0.266 OA
ATOM     17  C   UNL     1       3.299  -2.956   3.048  0.00  0.00    +0.080 A 
ATOM     18  C   UNL     1       3.038  -3.119   4.397  0.00  0.00    +0.026 C 
ATOM     19  S   UNL     1       3.670  -4.185   1.810  0.00  0.00    -0.046 S 
ENDROOT
BRANCH  18  20
ATOM     20  C   UNL     1       3.045  -4.395   4.959  0.00  0.00    -0.018 C 
ATOM     21  C   UNL     1       2.799  -4.732   6.291  0.00  0.00    +0.003 A 
ATOM     22  C   UNL     1       2.485  -3.959   7.429  0.00  0.00    +0.010 A 
ATOM     23  C   UNL     1       2.294  -4.569   8.626  0.00  0.00    +0.001 A 
ATOM     24  C   UNL     1       2.400  -5.956   8.767  0.00  0.00    +0.002 A 
ATOM     25  C   UNL     1       2.698  -6.760   7.719  0.00  0.00    +0.026 A 
ATOM     26  C   UNL     1       2.912  -6.194   6.433  0.00  0.00    +0.043 A 
ATOM     27  N   UNL     1       3.208  -6.748   5.277  0.00  0.00    -0.380 N 
ATOM     28  C   UNL     1       3.314  -5.705   4.252  0.00  0.00    +0.149 C 
ATOM     29  H   UNL     1       3.333  -7.698   5.125  0.00  0.00    +0.160 HD
ENDBRANCH  18  20
BRANCH   1  33
ATOM     30  C   UNL     1      -0.017   1.378   0.010  0.00  0.00    +0.000 A 
ATOM     31  C   UNL     1       1.171   2.086   0.002  0.00  0.00    +0.000 A 
ATOM     32  C   UNL     1       2.377   1.411  -0.013  0.00  0.00    +0.006 A 
ATOM     33  C   UNL     1       2.396   0.029  -0.020  0.00  0.00    -0.020 A 
ATOM     34  C   UNL     1       1.208  -0.679  -0.012  0.00  0.00    +0.006 A 
ATOM     35  C   UNL     1       0.002  -0.004   0.002  0.00  0.00    +0.000 A 
ENDBRANCH   1  33
TORSDOF 2
