REMARK  Name = ZINC06239047
REMARK  10 active torsions:
REMARK  status: ('A' for Active; 'I' for Inactive)
REMARK    1  A    between atoms: C_1  and  O_2
REMARK    2  A    between atoms: O_2  and  C_3
REMARK    3  A    between atoms: C_3  and  C_4
REMARK    4  A    between atoms: C_4  and  N_5
REMARK    5  A    between atoms: N_5  and  C_6
REMARK    6  A    between atoms: C_6  and  N_8
REMARK    7  A    between atoms: N_8  and  C_9
REMARK    8  A    between atoms: N_8  and  C_19
REMARK    9  A    between atoms: C_9  and  C_10
REMARK   10  A    between atoms: C_19  and  C_20
REMARK                            x       y       z     vdW  Elec       q    Type
REMARK                         _______ _______ _______ _____ _____    ______ ____
ROOT
ATOM      1  N   UNL     1      -2.925   0.716   1.401  0.00  0.00    -0.304 N 
ENDROOT
BRANCH   1   2
ATOM      2  C   UNL     1      -2.515  -0.404   2.028  0.00  0.00    +0.134 C 
ATOM      3  S   UNL     1      -1.512  -1.525   1.210  0.00  0.00    -0.019 S 
BRANCH   2   4
ATOM      4  N   UNL     1      -2.894  -0.642   3.300  0.00  0.00    -0.324 N 
ATOM      5  H   UNL     1      -3.463  -0.006   3.763  0.00  0.00    +0.148 HD
BRANCH   4   6
ATOM      6  C   UNL     1      -2.449  -1.859   3.981  0.00  0.00    +0.131 C 
BRANCH   6   7
ATOM      7  C   UNL     1      -3.016  -1.885   5.402  0.00  0.00    +0.178 C 
BRANCH   7   9
ATOM      8  C   UNL     1      -5.073  -2.015   6.626  0.00  0.00    +0.194 C 
ATOM      9  O   UNL     1      -4.440  -1.984   5.345  0.00  0.00    -0.381 OA
ENDBRANCH   7   9
ENDBRANCH   6   7
ENDBRANCH   4   6
ENDBRANCH   2   4
ENDBRANCH   1   2
BRANCH   1  10
ATOM     10  C   UNL     1      -2.513   0.975   0.019  0.00  0.00    +0.142 C 
BRANCH  10  11
ATOM     11  C   UNL     1      -1.220   1.749   0.017  0.00  0.00    -0.026 A 
ATOM     12  C   UNL     1      -0.013   1.076   0.008  0.00  0.00    +0.009 A 
ATOM     13  C   UNL     1       1.176   1.782   0.000  0.00  0.00    +0.050 A 
ATOM     14  C   UNL     1       1.160   3.167   0.008  0.00  0.00    +0.166 A 
ATOM     15  C   UNL     1      -0.057   3.845   0.022  0.00  0.00    +0.167 A 
ATOM     16  C   UNL     1      -1.244   3.131   0.031  0.00  0.00    +0.054 A 
ATOM     17  O   UNL     1       0.192   5.188   0.026  0.00  0.00    -0.453 OA
ATOM     18  C   UNL     1       1.561   5.326  -0.398  0.00  0.00    +0.466 C 
ATOM     19  O   UNL     1       2.171   4.084   0.002  0.00  0.00    -0.453 OA
ENDBRANCH  10  11
ENDBRANCH   1  10
BRANCH   1  20
ATOM     20  C   UNL     1      -3.783   1.675   2.101  0.00  0.00    +0.147 C 
BRANCH  20  21
ATOM     21  C   UNL     1      -5.229   1.319   1.869  0.00  0.00    +0.035 A 
ATOM     22  C   UNL     1      -5.891   0.556   2.776  0.00  0.00    +0.020 A 
ATOM     23  C   UNL     1      -7.293   0.227   2.522  0.00  0.00    +0.003 A 
ATOM     24  C   UNL     1      -8.026  -0.556   3.422  0.00  0.00    +0.059 A 
ATOM     25  C   UNL     1      -9.346  -0.853   3.155  0.00  0.00    +0.163 A 
ATOM     26  C   UNL     1      -9.954  -0.372   1.992  0.00  0.00    +0.164 A 
ATOM     27  C   UNL     1      -9.237   0.404   1.097  0.00  0.00    +0.075 A 
ATOM     28  C   UNL     1      -7.907   0.710   1.350  0.00  0.00    +0.053 A 
ATOM     29  N   UNL     1      -7.177   1.482   0.469  0.00  0.00    -0.322 N 
ATOM     30  H   UNL     1      -7.612   1.822  -0.365  0.00  0.00    +0.169 HD
ATOM     31  C   UNL     1      -5.890   1.783   0.714  0.00  0.00    +0.254 A 
ATOM     32  O   UNL     1      -5.278   2.470  -0.085  0.00  0.00    -0.268 OA
ATOM     33  O   UNL     1     -11.256  -0.657   1.722  0.00  0.00    -0.485 OA
ATOM     34  C   UNL     1     -11.841  -1.746   2.446  0.00  0.00    +0.270 C 
ATOM     35  C   UNL     1     -11.470  -1.592   3.927  0.00  0.00    +0.270 C 
ATOM     36  O   UNL     1     -10.043  -1.621   4.038  0.00  0.00    -0.485 OA
ENDBRANCH  20  21
ENDBRANCH   1  20
TORSDOF 9
