REMARK  Name = ZINC04882759
REMARK  5 active torsions:
REMARK  status: ('A' for Active; 'I' for Inactive)
REMARK    1  A    between atoms: C_1  and  C_2
REMARK    2  A    between atoms: C_2  and  O_3
REMARK    3  A    between atoms: O_3  and  C_4
REMARK    4  A    between atoms: C_7  and  C_10
REMARK    5  A    between atoms: N_14  and  N_18
REMARK                            x       y       z     vdW  Elec       q    Type
REMARK                         _______ _______ _______ _____ _____    ______ ____
ROOT
ATOM      1  C   UNL     1       2.523   1.588  -0.013  0.00  0.00    +0.028 C 
ATOM      2  C   UNL     1       1.246   1.953   0.271  0.00  0.00    +0.078 C 
ATOM      3  C   UNL     1       0.014   1.140   0.274  0.00  0.00    +0.272 C 
ATOM      4  O   UNL     1       0.028  -0.045  -0.004  0.00  0.00    -0.268 OA
ATOM      5  N   UNL     1      -1.108   1.766   0.589  0.00  0.00    -0.189 N 
ATOM      6  C   UNL     1      -1.119   3.078   0.901  0.00  0.00    +0.135 C 
ATOM      7  S   UNL     1      -2.455   4.056   1.336  0.00  0.00    -0.026 S 
ATOM      8  S   UNL     1       0.596   3.550   0.743  0.00  0.00    -0.060 S 
ENDROOT
BRANCH   1  12
ATOM      9  C   UNL     1       5.556   4.537  -0.307  0.00  0.00    +0.121 A 
ATOM     10  C   UNL     1       5.896   3.189  -0.325  0.00  0.00    +0.046 A 
ATOM     11  C   UNL     1       4.915   2.227  -0.230  0.00  0.00    +0.011 A 
ATOM     12  C   UNL     1       3.573   2.609  -0.115  0.00  0.00    -0.024 A 
ATOM     13  C   UNL     1       3.235   3.968  -0.103  0.00  0.00    +0.011 A 
ATOM     14  C   UNL     1       4.225   4.921  -0.193  0.00  0.00    +0.046 A 
BRANCH   9  15
ATOM     15  O   UNL     1       6.527   5.481  -0.401  0.00  0.00    -0.492 OA
BRANCH  15  17
ATOM     16  C   UNL     1       7.332   7.758  -0.493  0.00  0.00    +0.048 C 
ATOM     17  C   UNL     1       6.108   6.847  -0.377  0.00  0.00    +0.225 C 
ENDBRANCH  15  17
ENDBRANCH   9  15
ENDBRANCH   1  12
BRANCH   5  18
ATOM     18  N   UNL     1      -2.281   1.067   0.603  0.00  0.00    -0.246 NA
ATOM     19  H   UNL     1      -3.054   1.663   0.859  0.00  0.00    +0.141 HD
ATOM     20  H   UNL     1      -2.447   0.620  -0.286  0.00  0.00    +0.141 HD
ENDBRANCH   5  18
TORSDOF 4
