REMARK  Name = ZINC35970527
REMARK  10 active torsions:
REMARK  status: ('A' for Active; 'I' for Inactive)
REMARK    1  A    between atoms: C_1  and  C_2
REMARK    2  A    between atoms: C_3  and  C_35
REMARK    3  A    between atoms: C_4  and  C_27
REMARK    4  A    between atoms: C_7  and  C_12
REMARK    5  A    between atoms: C_13  and  N_15
REMARK    6  A    between atoms: C_18  and  N_21
REMARK    7  A    between atoms: C_31  and  O_33
REMARK    8  A    between atoms: O_33  and  C_34
REMARK    9  A    between atoms: C_35  and  O_37
REMARK   10  A    between atoms: O_37  and  C_38
REMARK                            x       y       z     vdW  Elec       q    Type
REMARK                         _______ _______ _______ _____ _____    ______ ____
ROOT
ATOM      1  C   UNL     1      -0.042   1.608   0.910  0.00  0.00    +0.066 C 
ATOM      2  C   UNL     1      -0.080   0.119   0.679  0.00  0.00    +0.053 C 
ATOM      3  C   UNL     1      -1.296  -0.535   0.618  0.00  0.00    +0.082 C 
ATOM      4  C   UNL     1      -1.283  -2.029   0.385  0.00  0.00    +0.150 C 
ATOM      5  N   UNL     1       0.047  -2.679   0.238  0.00  0.00    -0.267 N 
ATOM      6  C   UNL     1       0.297  -4.019   0.020  0.00  0.00    +0.048 C 
ATOM      7  C   UNL     1       1.587  -4.407  -0.085  0.00  0.00    +0.072 C 
ATOM      8  S   UNL     1       2.454  -2.865   0.127  0.00  0.00    -0.060 S 
ATOM      9  C   UNL     1       1.131  -1.852   0.330  0.00  0.00    +0.166 C 
ATOM     10  N   UNL     1       1.050  -0.553   0.531  0.00  0.00    -0.230 NA
ENDROOT
BRANCH   4  11
ATOM     11  C   UNL     1      -2.076  -2.310  -0.865  0.00  0.00    -0.019 A 
ATOM     12  C   UNL     1      -1.547  -2.000  -2.104  0.00  0.00    +0.006 A 
ATOM     13  C   UNL     1      -2.272  -2.256  -3.253  0.00  0.00    +0.004 A 
ATOM     14  C   UNL     1      -3.529  -2.824  -3.165  0.00  0.00    +0.045 A 
ATOM     15  C   UNL     1      -4.062  -3.136  -1.924  0.00  0.00    +0.120 A 
ATOM     16  C   UNL     1      -3.330  -2.883  -0.773  0.00  0.00    +0.051 A 
BRANCH  15  17
ATOM     17  O   UNL     1      -5.298  -3.694  -1.835  0.00  0.00    -0.495 OA
ATOM     18  C   UNL     1      -5.992  -3.932  -3.061  0.00  0.00    +0.277 C 
ENDBRANCH  15  17
ENDBRANCH   4  11
BRANCH   6  19
ATOM     19  C   UNL     1      -0.801  -4.990  -0.094  0.00  0.00    +0.091 C 
ATOM     20  C   UNL     1      -0.532  -6.308  -0.150  0.00  0.00    +0.241 C 
ATOM     21  O   UNL     1       0.738  -6.748   0.025  0.00  0.00    -0.271 OA
BRANCH  20  22
ATOM     22  N   UNL     1      -1.552  -7.214  -0.387  0.00  0.00    -0.298 N 
ATOM     23  C   UNL     1      -2.724  -6.829  -1.185  0.00  0.00    +0.106 C 
ATOM     24  C   UNL     1      -2.905  -7.845  -2.317  0.00  0.00    +0.004 C 
ATOM     25  C   UNL     1      -2.983  -9.254  -1.726  0.00  0.00    -0.066 C 
ATOM     26  C   UNL     1      -1.677  -9.574  -0.994  0.00  0.00    +0.004 C 
ATOM     27  C   UNL     1      -1.480  -8.580   0.149  0.00  0.00    +0.106 C 
BRANCH  25  28
ATOM     28  N   UNL     1      -3.189 -10.227  -2.806  0.00  0.00    +0.382 N 
ATOM     29  C   UNL     1      -4.438  -9.915  -3.512  0.00  0.00    -0.078 C 
ATOM     30  C   UNL     1      -4.617 -10.877  -4.689  0.00  0.00    -0.019 C 
ATOM     31  C   UNL     1      -4.672 -12.314  -4.163  0.00  0.00    -0.004 C 
ATOM     32  C   UNL     1      -3.398 -12.604  -3.365  0.00  0.00    -0.019 C 
ATOM     33  C   UNL     1      -3.264 -11.579  -2.237  0.00  0.00    -0.078 C 
ATOM     34  H   UNL     1      -2.418 -10.178  -3.454  0.00  0.00    -0.081 HD
ENDBRANCH  25  28
ENDBRANCH  20  22
ENDBRANCH   6  19
BRANCH   3  35
ATOM     35  C   UNL     1      -2.501   0.163   0.769  0.00  0.00    +0.339 C 
ATOM     36  O   UNL     1      -2.488   1.367   0.957  0.00  0.00    -0.245 OA
BRANCH  35  37
ATOM     37  O   UNL     1      -3.678  -0.498   0.705  0.00  0.00    -0.465 OA
ATOM     38  C   UNL     1      -4.867   0.277   0.867  0.00  0.00    +0.280 C 
ENDBRANCH  35  37
ENDBRANCH   3  35
TORSDOF 7
