REMARK  Name = ZINC42962926
REMARK  7 active torsions:
REMARK  status: ('A' for Active; 'I' for Inactive)
REMARK    1  A    between atoms: C_1  and  O_2
REMARK    2  A    between atoms: O_2  and  C_3
REMARK    3  A    between atoms: C_6  and  C_9
REMARK    4  A    between atoms: C_9  and  C_11
REMARK    5  A    between atoms: C_9  and  O_13
REMARK    6  A    between atoms: C_11  and  N_12
REMARK    7  A    between atoms: O_13  and  C_14
REMARK                            x       y       z     vdW  Elec       q    Type
REMARK                         _______ _______ _______ _____ _____    ______ ____
ROOT
ATOM      1  C   UNL     1       2.494  -2.496  -4.383  0.00  0.00    +0.186 C 
ENDROOT
BRANCH   1   5
ATOM      2  C   UNL     1       0.494  -0.524  -1.161  0.00  0.00    +0.120 A 
ATOM      3  C   UNL     1       1.094   0.220  -2.166  0.00  0.00    +0.046 A 
ATOM      4  C   UNL     1       1.740  -0.419  -3.206  0.00  0.00    +0.011 A 
ATOM      5  C   UNL     1       1.789  -1.800  -3.247  0.00  0.00    -0.009 A 
ATOM      6  C   UNL     1       1.191  -2.545  -2.247  0.00  0.00    +0.011 A 
ATOM      7  C   UNL     1       0.549  -1.910  -1.201  0.00  0.00    +0.046 A 
BRANCH   2   9
ATOM      8  C   UNL     1      -0.159   1.531  -0.161  0.00  0.00    +0.277 C 
ATOM      9  O   UNL     1      -0.141   0.102  -0.137  0.00  0.00    -0.495 OA
ENDBRANCH   2   9
ENDBRANCH   1   5
BRANCH   1  10
ATOM     10  C   UNL     1       3.888  -2.932  -3.927  0.00  0.00    -0.036 C 
BRANCH  10  11
ATOM     11  N   UNL     1       4.619  -3.502  -5.067  0.00  0.00    +0.381 N 
ATOM     12  H   UNL     1       5.538  -3.790  -4.766  0.00  0.00    -0.090 HD
ATOM     13  H   UNL     1       4.116  -4.301  -5.424  0.00  0.00    -0.090 HD
ATOM     14  H   UNL     1       4.705  -2.807  -5.793  0.00  0.00    -0.090 HD
ENDBRANCH  10  11
ENDBRANCH   1  10
BRANCH   1  15
ATOM     15  O   UNL     1       1.741  -3.644  -4.779  0.00  0.00    -0.485 OA
BRANCH  15  16
ATOM     16  C   UNL     1       1.699  -3.926  -6.109  0.00  0.00    +0.141 A 
ATOM     17  C   UNL     1       2.462  -3.185  -6.999  0.00  0.00    +0.068 A 
ATOM     18  C   UNL     1       2.419  -3.474  -8.351  0.00  0.00    +0.063 A 
ATOM     19  C   UNL     1       1.614  -4.501  -8.815  0.00  0.00    +0.061 A 
ATOM     20  C   UNL     1       0.853  -5.241  -7.928  0.00  0.00    +0.045 A 
ATOM     21  C   UNL     1       0.898  -4.959  -6.575  0.00  0.00    +0.084 A 
ATOM     22 CL   UNL     1      -0.052  -5.891  -5.461  0.00  0.00    -0.080 Cl
ATOM     23 CL   UNL     1       1.561  -4.861 -10.513  0.00  0.00    -0.082 Cl
ATOM     24 CL   UNL     1       3.373  -2.547  -9.467  0.00  0.00    -0.082 Cl
ENDBRANCH  15  16
ENDBRANCH   1  15
TORSDOF 6
