REMARK  Name = ZINC01104324
REMARK  7 active torsions:
REMARK  status: ('A' for Active; 'I' for Inactive)
REMARK    1  A    between atoms: C_1  and  C_2
REMARK    2  A    between atoms: N_10  and  C_11
REMARK    3  A    between atoms: C_11  and  C_12
REMARK    4  A    between atoms: C_12  and  C_13
REMARK    5  A    between atoms: N_15  and  N_16
REMARK    6  A    between atoms: C_17  and  C_18
REMARK    7  A    between atoms: C_27  and  O_28
REMARK                            x       y       z     vdW  Elec       q    Type
REMARK                         _______ _______ _______ _____ _____    ______ ____
ROOT
ATOM      1  C   UNL     1      -2.563   9.406   0.072  0.00  0.00    +0.234 C 
ATOM      2  O   UNL     1      -1.508  10.005   0.065  0.00  0.00    -0.274 OA
ATOM      3  N   UNL     1      -2.572   8.058   0.066  0.00  0.00    -0.207 N 
ATOM      4  H   UNL     1      -3.415   7.579   0.072  0.00  0.00    +0.177 HD
ENDROOT
BRANCH   3   5
ATOM      5  N   UNL     1      -1.363   7.350   0.052  0.00  0.00    -0.188 NA
ATOM      6  C   UNL     1      -1.372   6.050   0.046  0.00  0.00    +0.142 C 
BRANCH   6   7
ATOM      7  C   UNL     1      -0.104   5.307   0.031  0.00  0.00    +0.044 A 
ATOM      8  C   UNL     1      -0.096   3.845   0.024  0.00  0.00    -0.006 A 
ATOM      9  C   UNL     1      -1.286   3.107   0.031  0.00  0.00    +0.009 A 
ATOM     10  C   UNL     1      -1.234   1.745   0.017  0.00  0.00    +0.001 A 
ATOM     11  C   UNL     1      -0.013   1.076   0.008  0.00  0.00    +0.001 A 
ATOM     12  C   UNL     1       1.163   1.762   0.000  0.00  0.00    +0.008 A 
ATOM     13  C   UNL     1       1.148   3.168   0.008  0.00  0.00    -0.017 A 
ATOM     14  C   UNL     1       2.342   3.910   0.000  0.00  0.00    +0.012 A 
ATOM     15  C   UNL     1       2.316   5.269   0.007  0.00  0.00    +0.046 A 
ATOM     16  C   UNL     1       1.117   5.981   0.022  0.00  0.00    +0.126 A 
BRANCH  16  17
ATOM     17  O   UNL     1       1.138   7.338   0.028  0.00  0.00    -0.506 OA
ATOM     18  H   UNL     1       1.135   7.735  -0.854  0.00  0.00    +0.292 HD
ENDBRANCH  16  17
ENDBRANCH   6   7
ENDBRANCH   3   5
BRANCH   1  19
ATOM     19  C   UNL     1      -3.863  10.168   0.088  0.00  0.00    +0.119 C 
BRANCH  19  20
ATOM     20  C   UNL     1      -3.573  11.671   0.092  0.00  0.00    +0.133 C 
BRANCH  20  30
ATOM     21  C   UNL     1      -5.091  12.565   2.633  0.00  0.00    +0.086 C 
ATOM     22  C   UNL     1      -5.522  12.815   1.211  0.00  0.00    +0.108 A 
ATOM     23  N   UNL     1      -6.603  13.448   0.860  0.00  0.00    -0.233 NA
ATOM     24  C   UNL     1      -6.685  13.494  -0.495  0.00  0.00    +0.089 A 
ATOM     25  C   UNL     1      -7.614  14.038  -1.386  0.00  0.00    +0.030 A 
ATOM     26  C   UNL     1      -7.408  13.933  -2.732  0.00  0.00    +0.002 A 
ATOM     27  C   UNL     1      -6.289  13.279  -3.228  0.00  0.00    +0.002 A 
ATOM     28  C   UNL     1      -5.362  12.731  -2.368  0.00  0.00    +0.028 A 
ATOM     29  C   UNL     1      -5.550  12.835  -0.997  0.00  0.00    +0.069 A 
ATOM     30  N   UNL     1      -4.837  12.411   0.107  0.00  0.00    -0.327 N 
ENDBRANCH  20  30
ENDBRANCH  19  20
ENDBRANCH   1  19
TORSDOF 6
