REMARK  Name = ZINC36501103
REMARK  20 active torsions:
REMARK  status: ('A' for Active; 'I' for Inactive)
REMARK    1  A    between atoms: C_1  and  C_2
REMARK    2  A    between atoms: C_5  and  C_9
REMARK    3  A    between atoms: C_6  and  C_8
REMARK    4  A    between atoms: C_9  and  C_11
REMARK    5  A    between atoms: C_9  and  N_22
REMARK    6  A    between atoms: N_13  and  C_14
REMARK    7  A    between atoms: C_14  and  C_15
REMARK    8  A    between atoms: C_14  and  C_16
REMARK    9  A    between atoms: C_14  and  C_17
REMARK   10  A    between atoms: C_17  and  C_18
REMARK   11  A    between atoms: C_18  and  C_19
REMARK   12  A    between atoms: C_18  and  C_20
REMARK   13  A    between atoms: C_18  and  C_21
REMARK   14  A    between atoms: N_22  and  C_23
REMARK   15  A    between atoms: C_23  and  C_24
REMARK   16  A    between atoms: C_29  and  C_31
REMARK   17  A    between atoms: C_31  and  C_32
REMARK   18  A    between atoms: C_32  and  C_33
REMARK   19  A    between atoms: C_36  and  O_39
REMARK   20  A    between atoms: O_39  and  C_40
REMARK                            x       y       z     vdW  Elec       q    Type
REMARK                         _______ _______ _______ _____ _____    ______ ____
ROOT
ATOM      1  C   UNL     1       1.347  -5.548   0.134  0.00  0.00    +0.193 C 
ENDROOT
BRANCH   1   6
ATOM      2  C   UNL     1       3.438  -2.895  -4.555  0.00  0.00    +0.044 C 
ATOM      3  C   UNL     1       2.893  -3.587  -3.332  0.00  0.00    -0.050 A 
ATOM      4  C   UNL     1       3.469  -4.762  -2.889  0.00  0.00    +0.004 A 
ATOM      5  C   UNL     1       2.969  -5.397  -1.767  0.00  0.00    +0.006 A 
ATOM      6  C   UNL     1       1.893  -4.856  -1.089  0.00  0.00    -0.015 A 
ATOM      7  C   UNL     1       1.317  -3.680  -1.532  0.00  0.00    -0.045 A 
ATOM      8  C   UNL     1       1.820  -3.043  -2.651  0.00  0.00    +0.007 A 
ATOM      9  C   UNL     1       0.144  -3.090  -0.793  0.00  0.00    +0.044 C 
ENDBRANCH   1   6
BRANCH   1  10
ATOM     10  C   UNL     1       2.470  -6.242   0.861  0.00  0.00    +0.239 C 
ATOM     11  O   UNL     1       2.729  -7.400   0.613  0.00  0.00    -0.273 OA
ATOM     12  N   UNL     1       3.187  -5.574   1.787  0.00  0.00    -0.308 N 
ATOM     13  H   UNL     1       2.929  -4.675   2.045  0.00  0.00    +0.149 HD
BRANCH  12  14
ATOM     14  C   UNL     1       4.355  -6.207   2.405  0.00  0.00    +0.030 C 
ATOM     15  C   UNL     1       3.927  -7.505   3.093  0.00  0.00    +0.031 C 
ATOM     16  C   UNL     1       5.395  -6.519   1.328  0.00  0.00    +0.031 C 
BRANCH  14  17
ATOM     17  C   UNL     1       4.961  -5.257   3.440  0.00  0.00    +0.031 C 
BRANCH  17  18
ATOM     18  C   UNL     1       4.818  -3.814   2.953  0.00  0.00    -0.036 C 
ATOM     19  C   UNL     1       3.412  -3.303   3.276  0.00  0.00    +0.010 C 
ATOM     20  C   UNL     1       5.854  -2.933   3.656  0.00  0.00    +0.010 C 
ATOM     21  C   UNL     1       5.046  -3.761   1.441  0.00  0.00    +0.010 C 
ENDBRANCH  17  18
ENDBRANCH  14  17
ENDBRANCH  12  14
ENDBRANCH   1  10
BRANCH   1  22
ATOM     22  N   UNL     1       0.344  -6.536  -0.272  0.00  0.00    -0.279 N 
ATOM     23  C   UNL     1      -0.364  -7.200   0.663  0.00  0.00    +0.217 C 
ATOM     24  O   UNL     1      -0.171  -6.979   1.840  0.00  0.00    -0.276 OA
BRANCH  22  25
ATOM     25  C   UNL     1       0.111  -6.802  -1.693  0.00  0.00    +0.183 C 
BRANCH  25  26
ATOM     26  C   UNL     1       1.002  -7.931  -2.146  0.00  0.00    +0.122 A 
ATOM     27  C   UNL     1       0.700  -9.240  -2.094  0.00  0.00    +0.046 A 
ATOM     28  C   UNL     1       1.813  -9.938  -2.616  0.00  0.00    +0.041 A 
ATOM     29  C   UNL     1       2.729  -9.013  -2.957  0.00  0.00    +0.195 A 
ATOM     30  O   UNL     1       2.229  -7.798  -2.675  0.00  0.00    -0.466 OA
ENDBRANCH  25  26
ENDBRANCH  22  25
BRANCH  23  31
ATOM     31  C   UNL     1      -1.396  -8.216   0.246  0.00  0.00    +0.100 C 
BRANCH  31  32
ATOM     32  C   UNL     1      -2.050  -8.819   1.491  0.00  0.00    +0.044 C 
BRANCH  32  33
ATOM     33  C   UNL     1      -3.082  -9.835   1.074  0.00  0.00    -0.047 A 
ATOM     34  C   UNL     1      -4.389  -9.441   0.854  0.00  0.00    +0.007 A 
ATOM     35  C   UNL     1      -5.337 -10.371   0.472  0.00  0.00    +0.046 A 
ATOM     36  C   UNL     1      -4.976 -11.700   0.309  0.00  0.00    +0.120 A 
ATOM     37  C   UNL     1      -3.664 -12.093   0.530  0.00  0.00    +0.046 A 
ATOM     38  C   UNL     1      -2.719 -11.158   0.907  0.00  0.00    +0.007 A 
BRANCH  36  39
ATOM     39  O   UNL     1      -5.907 -12.617  -0.066  0.00  0.00    -0.495 OA
ATOM     40  C   UNL     1      -5.464 -13.967  -0.214  0.00  0.00    +0.277 C 
ENDBRANCH  36  39
ENDBRANCH  32  33
ENDBRANCH  31  32
ENDBRANCH  23  31
ENDBRANCH   1  22
TORSDOF 12
