REMARK  Name = ZINC20876412
REMARK  8 active torsions:
REMARK  status: ('A' for Active; 'I' for Inactive)
REMARK    1  A    between atoms: C_1  and  C_2
REMARK    2  A    between atoms: C_2  and  C_4
REMARK    3  A    between atoms: C_2  and  N_14
REMARK    4  A    between atoms: N_14  and  C_15
REMARK    5  A    between atoms: C_15  and  C_16
REMARK    6  A    between atoms: C_19  and  O_23
REMARK    7  A    between atoms: O_23  and  C_24
REMARK    8  A    between atoms: C_24  and  C_25
REMARK                            x       y       z     vdW  Elec       q    Type
REMARK                         _______ _______ _______ _____ _____    ______ ____
ROOT
ATOM      1  C   UNL     1      -6.613   5.059   2.146  0.00  0.00    -0.046 C 
ENDROOT
BRANCH   1   2
ATOM      2  C   UNL     1      -5.309   4.331   1.939  0.00  0.00    -0.063 A 
ATOM      3  C   UNL     1      -4.855   4.081   0.657  0.00  0.00    +0.005 A 
ATOM      4  C   UNL     1      -3.660   3.414   0.464  0.00  0.00    +0.047 A 
ATOM      5  C   UNL     1      -2.917   2.995   1.558  0.00  0.00    +0.135 A 
ATOM      6  C   UNL     1      -3.378   3.243   2.843  0.00  0.00    +0.060 A 
ATOM      7  C   UNL     1      -4.571   3.916   3.030  0.00  0.00    +0.020 A 
ATOM      8 BR   UNL     1      -2.371   2.667   4.337  0.00  0.00    -0.047 Br
BRANCH   5   9
ATOM      9  O   UNL     1      -1.741   2.339   1.370  0.00  0.00    -0.486 OA
BRANCH   9  10
ATOM     10  C   UNL     1      -1.332   2.114   0.020  0.00  0.00    +0.264 C 
BRANCH  10  11
ATOM     11  C   UNL     1      -0.017   1.378   0.010  0.00  0.00    -0.010 A 
ATOM     12  C   UNL     1       1.171   2.086   0.002  0.00  0.00    +0.008 A 
ATOM     13  C   UNL     1       2.377   1.412  -0.013  0.00  0.00    +0.020 A 
ATOM     14  C   UNL     1       2.397   0.029  -0.021  0.00  0.00    +0.041 A 
ATOM     15  C   UNL     1       1.208  -0.679  -0.013  0.00  0.00    +0.020 A 
ATOM     16  C   UNL     1       0.002  -0.004   0.002  0.00  0.00    +0.008 A 
ATOM     17 CL   UNL     1       3.912  -0.818  -0.039  0.00  0.00    -0.084 Cl
ENDBRANCH  10  11
ENDBRANCH   9  10
ENDBRANCH   5   9
ENDBRANCH   1   2
BRANCH   1  18
ATOM     18  N   UNL     1      -7.712   4.087   2.209  0.00  0.00    +0.384 N 
ATOM     19  H   UNL     1      -7.525   3.397   3.046  0.00  0.00    -0.085 HD
ATOM     20  H   UNL     1      -7.738   3.522   1.266  0.00  0.00    -0.085 HD
BRANCH  18  22
ATOM     21  C   UNL     1      -9.561   5.207   1.058  0.00  0.00    -0.013 C 
ATOM     22  C   UNL     1      -9.001   4.762   2.411  0.00  0.00    -0.068 C 
BRANCH  22  23
ATOM     23  C   UNL     1      -9.984   3.797   3.077  0.00  0.00    -0.041 C 
ATOM     24  C   UNL     1      -9.424   3.352   4.429  0.00  0.00    +0.009 C 
ATOM     25  C   UNL     1     -10.407   2.387   5.095  0.00  0.00    -0.010 C 
ATOM     26  C   UNL     1     -11.749   3.090   5.305  0.00  0.00    +0.007 C 
ATOM     27  C   UNL     1     -12.309   3.535   3.952  0.00  0.00    -0.010 C 
ATOM     28  C   UNL     1     -11.326   4.500   3.287  0.00  0.00    +0.009 C 
ATOM     29  C   UNL     1     -12.509   2.311   3.056  0.00  0.00    +0.007 C 
ATOM     30  C   UNL     1     -11.166   1.608   2.846  0.00  0.00    -0.010 C 
ATOM     31  C   UNL     1     -10.607   1.163   4.199  0.00  0.00    +0.007 C 
ATOM     32  C   UNL     1     -10.184   2.574   2.180  0.00  0.00    +0.009 C 
ENDBRANCH  22  23
ENDBRANCH  18  22
ENDBRANCH   1  18
TORSDOF 7
