REMARK  Name = ZINC01026407
REMARK  6 active torsions:
REMARK  status: ('A' for Active; 'I' for Inactive)
REMARK    1  A    between atoms: C_1  and  C_2
REMARK    2  A    between atoms: C_5  and  C_8
REMARK    3  A    between atoms: C_8  and  N_9
REMARK    4  A    between atoms: C_10  and  C_12
REMARK    5  A    between atoms: C_13  and  N_26
REMARK    6  A    between atoms: C_17  and  C_21
REMARK                            x       y       z     vdW  Elec       q    Type
REMARK                         _______ _______ _______ _____ _____    ______ ____
ROOT
ATOM      1  C   UNL     1       1.224  -0.642  -0.013  0.00  0.00    +0.097 A 
ATOM      2  C   UNL     1       0.002  -0.004   0.002  0.00  0.00    +0.053 A 
ATOM      3  C   UNL     1      -0.018   1.449   0.010  0.00  0.00    +0.029 A 
ATOM      4  C   UNL     1      -1.141   2.318   0.031  0.00  0.00    +0.014 A 
ATOM      5  C   UNL     1      -0.942   3.664   0.031  0.00  0.00    +0.029 A 
ATOM      6  C   UNL     1       0.358   4.189   0.021  0.00  0.00    +0.079 A 
ATOM      7  N   UNL     1       1.407   3.373   0.007  0.00  0.00    -0.239 NA
ATOM      8  C   UNL     1       1.255   2.067   0.001  0.00  0.00    +0.111 A 
ATOM      9  S   UNL     1       2.392   0.703  -0.017  0.00  0.00    -0.062 S 
ENDROOT
BRANCH   6  10
ATOM     10  C   UNL     1       0.561   5.649   0.027  0.00  0.00    +0.038 A 
ATOM     11  C   UNL     1       1.735   6.358   0.020  0.00  0.00    +0.017 A 
ATOM     12  C   UNL     1       1.678   7.733   0.028  0.00  0.00    +0.008 A 
ATOM     13  C   UNL     1       0.464   8.345   0.043  0.00  0.00    +0.046 A 
ATOM     14  S   UNL     1      -0.656   6.955   0.038  0.00  0.00    -0.095 S 
ENDBRANCH   6  10
BRANCH   1  16
ATOM     15  N   UNL     1       2.760  -2.478  -0.037  0.00  0.00    -0.307 N 
ATOM     16  C   UNL     1       1.488  -2.034  -0.023  0.00  0.00    +0.253 C 
ATOM     17  O   UNL     1       0.565  -2.828  -0.018  0.00  0.00    -0.270 OA
ATOM     18  H   UNL     1       3.495  -1.846  -0.041  0.00  0.00    +0.149 HD
BRANCH  15  19
ATOM     19  C   UNL     1       3.032  -3.918  -0.047  0.00  0.00    +0.139 C 
BRANCH  19  24
ATOM     20  C   UNL     1       8.743  -4.797  -0.107  0.00  0.00    +0.044 C 
ATOM     21  C   UNL     1       7.254  -4.568  -0.091  0.00  0.00    -0.050 A 
ATOM     22  C   UNL     1       6.583  -4.468   1.113  0.00  0.00    +0.003 A 
ATOM     23  C   UNL     1       5.216  -4.258   1.127  0.00  0.00    +0.005 A 
ATOM     24  C   UNL     1       4.522  -4.147  -0.063  0.00  0.00    -0.030 A 
ATOM     25  C   UNL     1       5.192  -4.252  -1.267  0.00  0.00    +0.005 A 
ATOM     26  C   UNL     1       6.559  -4.457  -1.281  0.00  0.00    +0.003 A 
ENDBRANCH  19  24
ENDBRANCH  15  19
ENDBRANCH   1  16
BRANCH   2  27
ATOM     27  N   UNL     1      -1.180  -0.731   0.010  0.00  0.00    -0.356 N 
ATOM     28  H   UNL     1      -2.034  -0.270   0.021  0.00  0.00    +0.142 HD
ATOM     29  H   UNL     1      -1.153  -1.701   0.004  0.00  0.00    +0.142 HD
ENDBRANCH   2  27
TORSDOF 5
