REMARK  Name = ZINC09057624
REMARK  6 active torsions:
REMARK  status: ('A' for Active; 'I' for Inactive)
REMARK    1  A    between atoms: C_1  and  C_2
REMARK    2  A    between atoms: C_2  and  O_3
REMARK    3  A    between atoms: O_3  and  C_4
REMARK    4  A    between atoms: C_10  and  N_11
REMARK    5  A    between atoms: N_11  and  N_12
REMARK    6  A    between atoms: C_21  and  C_23
REMARK                            x       y       z     vdW  Elec       q    Type
REMARK                         _______ _______ _______ _____ _____    ______ ____
ROOT
ATOM      1  N   UNL     1      -4.833  -9.802   0.229  0.00  0.00    -0.235 N 
ATOM      2  C   UNL     1      -6.115 -10.316   0.319  0.00  0.00    +0.233 A 
ATOM      3  N   UNL     1      -7.134  -9.478   0.303  0.00  0.00    -0.213 NA
ATOM      4  C   UNL     1      -8.390  -9.936   0.388  0.00  0.00    +0.077 A 
ATOM      5  C   UNL     1      -9.496  -9.073   0.373  0.00  0.00    +0.030 A 
ATOM      6  C   UNL     1     -10.754  -9.590   0.462  0.00  0.00    +0.022 A 
ATOM      7  C   UNL     1     -10.960 -10.964   0.568  0.00  0.00    +0.042 A 
ATOM      8  C   UNL     1      -9.906 -11.832   0.586  0.00  0.00    +0.032 A 
ATOM      9  C   UNL     1      -8.602 -11.333   0.495  0.00  0.00    +0.028 A 
ATOM     10  C   UNL     1      -7.470 -12.185   0.507  0.00  0.00    +0.084 A 
ATOM     11  N   UNL     1      -6.267 -11.633   0.412  0.00  0.00    -0.213 NA
ATOM     12 CL   UNL     1     -12.579 -11.581   0.680  0.00  0.00    -0.084 Cl
ATOM     13  H   UNL     1      -4.070 -10.400   0.235  0.00  0.00    +0.173 HD
ENDROOT
BRANCH  10  14
ATOM     14  C   UNL     1      -7.625 -13.653   0.617  0.00  0.00    +0.001 A 
ATOM     15  C   UNL     1      -8.590 -14.314  -0.143  0.00  0.00    +0.010 A 
ATOM     16  C   UNL     1      -8.730 -15.683  -0.037  0.00  0.00    +0.001 A 
ATOM     17  C   UNL     1      -7.915 -16.399   0.822  0.00  0.00    +0.000 A 
ATOM     18  C   UNL     1      -6.956 -15.750   1.578  0.00  0.00    +0.001 A 
ATOM     19  C   UNL     1      -6.802 -14.383   1.476  0.00  0.00    +0.010 A 
ENDBRANCH  10  14
BRANCH   1  20
ATOM     20  N   UNL     1      -4.639  -8.419   0.129  0.00  0.00    -0.271 N 
ATOM     21  H   UNL     1      -5.403  -7.821   0.123  0.00  0.00    +0.169 HD
BRANCH  20  28
ATOM     22  C   UNL     1      -1.504  -1.840   0.112  0.00  0.00    +0.122 A 
ATOM     23  C   UNL     1      -0.373  -2.662   0.159  0.00  0.00    +0.046 A 
ATOM     24  C   UNL     1      -0.480  -4.016   0.156  0.00  0.00    +0.013 A 
ATOM     25  C   UNL     1      -1.755  -4.615   0.104  0.00  0.00    -0.003 A 
ATOM     26  C   UNL     1      -1.901  -6.006   0.100  0.00  0.00    +0.024 C 
ATOM     27  C   UNL     1      -3.198  -6.535   0.048  0.00  0.00    +0.053 C 
ATOM     28  C   UNL     1      -3.399  -7.921   0.042  0.00  0.00    +0.100 C 
ATOM     29  C   UNL     1      -4.346  -5.615  -0.000  0.00  0.00    +0.250 C 
ATOM     30  O   UNL     1      -5.481  -6.069  -0.045  0.00  0.00    -0.270 OA
ATOM     31  N   UNL     1      -4.167  -4.302   0.005  0.00  0.00    -0.281 N 
ATOM     32  C   UNL     1      -2.945  -3.762   0.055  0.00  0.00    +0.044 A 
ATOM     33  C   UNL     1      -2.775  -2.369   0.066  0.00  0.00    +0.069 A 
ATOM     34  H   UNL     1      -4.941  -3.719  -0.027  0.00  0.00    +0.155 HD
BRANCH  22  35
ATOM     35  O   UNL     1      -1.346  -0.492   0.116  0.00  0.00    -0.492 OA
BRANCH  35  37
ATOM     36  C   UNL     1      -0.029   1.534   0.163  0.00  0.00    +0.048 C 
ATOM     37  C   UNL     1      -0.006   0.004   0.165  0.00  0.00    +0.225 C 
ENDBRANCH  35  37
ENDBRANCH  22  35
ENDBRANCH  20  28
ENDBRANCH   1  20
TORSDOF 5
