REMARK  Name = ZINC63917332
REMARK  9 active torsions:
REMARK  status: ('A' for Active; 'I' for Inactive)
REMARK    1  A    between atoms: C_1  and  O_2
REMARK    2  A    between atoms: O_2  and  C_3
REMARK    3  A    between atoms: C_6  and  N_9
REMARK    4  A    between atoms: N_9  and  C_10
REMARK    5  A    between atoms: N_9  and  C_15
REMARK    6  A    between atoms: C_10  and  C_11
REMARK    7  A    between atoms: C_11  and  C_12
REMARK    8  A    between atoms: C_15  and  C_16
REMARK    9  A    between atoms: C_21  and  C_24
REMARK                            x       y       z     vdW  Elec       q    Type
REMARK                         _______ _______ _______ _____ _____    ______ ____
ROOT
ATOM      1  C   UNL     1       4.497  -1.360  -5.027  0.00  0.00    +0.236 C 
ATOM      2  O   UNL     1       4.977  -1.792  -4.001  0.00  0.00    -0.274 OA
ATOM      3  N   UNL     1       5.252  -0.624  -5.867  0.00  0.00    -0.263 N 
ATOM      4  C   UNL     1       6.578  -0.362  -5.557  0.00  0.00    +0.165 A 
ATOM      5  N   UNL     1       7.463   0.333  -6.239  0.00  0.00    -0.225 NA
ATOM      6  C   UNL     1       8.700   0.456  -5.742  0.00  0.00    +0.079 A 
ATOM      7  C   UNL     1       8.986  -0.157  -4.529  0.00  0.00    +0.076 A 
ATOM      8  S   UNL     1       7.516  -0.873  -4.129  0.00  0.00    -0.060 S 
ATOM      9  H   UNL     1       4.868  -0.279  -6.688  0.00  0.00    +0.157 HD
ENDROOT
BRANCH   6  10
ATOM     10  C   UNL     1       9.689   1.190  -6.433  0.00  0.00    +0.007 C 
ATOM     11  C   UNL     1       9.546   1.857  -7.646  0.00  0.00    +0.005 A 
ATOM     12  C   UNL     1       8.452   2.014  -8.526  0.00  0.00    +0.010 A 
ATOM     13  C   UNL     1       8.603   2.736  -9.666  0.00  0.00    +0.001 A 
ATOM     14  C   UNL     1       9.821   3.333  -9.998  0.00  0.00    +0.002 A 
ATOM     15  C   UNL     1      10.912   3.224  -9.201  0.00  0.00    +0.026 A 
ATOM     16  C   UNL     1      10.832   2.485  -7.992  0.00  0.00    +0.043 A 
ATOM     17  N   UNL     1      11.732   2.235  -7.061  0.00  0.00    -0.380 N 
ATOM     18  C   UNL     1      11.122   1.419  -6.007  0.00  0.00    +0.151 C 
ATOM     19  H   UNL     1      12.652   2.544  -7.071  0.00  0.00    +0.160 HD
ENDBRANCH   6  10
BRANCH   1  20
ATOM     20  C   UNL     1       3.056  -1.645  -5.364  0.00  0.00    +0.201 C 
BRANCH  20  21
ATOM     21  N   UNL     1       2.458  -2.457  -4.301  0.00  0.00    -0.321 N 
BRANCH  21  25
ATOM     22  C   UNL     1       0.606  -0.608  -1.056  0.00  0.00    +0.120 A 
ATOM     23  C   UNL     1       1.173   0.162  -2.062  0.00  0.00    +0.047 A 
ATOM     24  C   UNL     1       1.786  -0.451  -3.137  0.00  0.00    +0.027 A 
ATOM     25  C   UNL     1       1.836  -1.836  -3.212  0.00  0.00    +0.030 A 
ATOM     26  C   UNL     1       1.269  -2.605  -2.204  0.00  0.00    +0.027 A 
ATOM     27  C   UNL     1       0.660  -1.992  -1.127  0.00  0.00    +0.047 A 
BRANCH  22  29
ATOM     28  C   UNL     1      -0.017   1.425   0.010  0.00  0.00    +0.277 C 
ATOM     29  O   UNL     1       0.002  -0.004   0.002  0.00  0.00    -0.495 OA
ENDBRANCH  22  29
ENDBRANCH  21  25
BRANCH  21  30
ATOM     30  C   UNL     1       2.510  -3.919  -4.379  0.00  0.00    +0.115 C 
BRANCH  30  31
ATOM     31  C   UNL     1       1.273  -4.435  -5.117  0.00  0.00    +0.114 C 
BRANCH  31  32
ATOM     32  C   UNL     1       1.327  -5.939  -5.197  0.00  0.00    +0.212 C 
ATOM     33  O   UNL     1       2.262  -6.539  -4.712  0.00  0.00    -0.276 OA
ATOM     34  N   UNL     1       0.336  -6.617  -5.809  0.00  0.00    -0.329 N 
ATOM     35  H   UNL     1      -0.412  -6.137  -6.198  0.00  0.00    +0.145 HD
ATOM     36  H   UNL     1       0.370  -7.585  -5.860  0.00  0.00    +0.145 HD
ENDBRANCH  31  32
ENDBRANCH  30  31
ENDBRANCH  21  30
ENDBRANCH  20  21
ENDBRANCH   1  20
TORSDOF 8
