REMARK  Name = ZINC27697515
REMARK  6 active torsions:
REMARK  status: ('A' for Active; 'I' for Inactive)
REMARK    1  A    between atoms: C_4  and  C_7
REMARK    2  A    between atoms: C_7  and  C_9
REMARK    3  A    between atoms: C_7  and  S_22
REMARK    4  A    between atoms: N_17  and  C_18
REMARK    5  A    between atoms: C_18  and  C_19
REMARK    6  A    between atoms: S_22  and  C_23
REMARK                            x       y       z     vdW  Elec       q    Type
REMARK                         _______ _______ _______ _____ _____    ______ ____
ROOT
ATOM      1  C   UNL     1       3.728   3.055  -1.251  0.00  0.00    +0.129 A 
ATOM      2  N   UNL     1       3.057   4.158  -1.412  0.00  0.00    -0.231 NA
ATOM      3  C   UNL     1       3.340   4.691  -2.628  0.00  0.00    +0.089 A 
ATOM      4  C   UNL     1       2.911   5.839  -3.301  0.00  0.00    +0.030 A 
ATOM      5  C   UNL     1       3.389   6.114  -4.551  0.00  0.00    +0.002 A 
ATOM      6  C   UNL     1       4.300   5.264  -5.163  0.00  0.00    +0.002 A 
ATOM      7  C   UNL     1       4.737   4.127  -4.518  0.00  0.00    +0.028 A 
ATOM      8  C   UNL     1       4.262   3.831  -3.248  0.00  0.00    +0.069 A 
ATOM      9  N   UNL     1       4.492   2.808  -2.349  0.00  0.00    -0.317 N 
ENDROOT
BRANCH   1  10
ATOM     10  C   UNL     1       3.672   2.182  -0.024  0.00  0.00    +0.147 C 
BRANCH  10  14
ATOM     11  C   UNL     1       0.002  -0.004   0.002  0.00  0.00    +0.000 A 
ATOM     12  C   UNL     1      -0.017   1.378   0.010  0.00  0.00    +0.000 A 
ATOM     13  C   UNL     1       1.171   2.086   0.002  0.00  0.00    +0.005 A 
ATOM     14  C   UNL     1       2.377   1.411  -0.015  0.00  0.00    -0.027 A 
ATOM     15  C   UNL     1       2.396   0.029  -0.022  0.00  0.00    +0.005 A 
ATOM     16  C   UNL     1       1.208  -0.679  -0.013  0.00  0.00    +0.000 A 
ENDBRANCH  10  14
BRANCH  10  17
ATOM     17  S   UNL     1       3.769   3.219   1.461  0.00  0.00    -0.109 S 
BRANCH  17  18
ATOM     18  C   UNL     1       3.841   2.060   2.786  0.00  0.00    +0.009 A 
ATOM     19  C   UNL     1       3.810   0.696   2.521  0.00  0.00    +0.015 A 
ATOM     20  C   UNL     1       3.872  -0.209   3.562  0.00  0.00    +0.001 A 
ATOM     21  C   UNL     1       3.954   0.240   4.867  0.00  0.00    +0.000 A 
ATOM     22  C   UNL     1       3.980   1.597   5.135  0.00  0.00    +0.001 A 
ATOM     23  C   UNL     1       3.923   2.508   4.099  0.00  0.00    +0.015 A 
ENDBRANCH  17  18
ENDBRANCH  10  17
ENDBRANCH   1  10
BRANCH   9  24
ATOM     24  C   UNL     1       5.389   1.667  -2.544  0.00  0.00    +0.219 C 
BRANCH  24  25
ATOM     25  C   UNL     1       4.630   0.534  -3.186  0.00  0.00    +0.230 C 
ATOM     26  O   UNL     1       3.455   0.668  -3.455  0.00  0.00    -0.274 OA
ATOM     27  N   UNL     1       5.257  -0.626  -3.462  0.00  0.00    -0.328 N 
ATOM     28  H   UNL     1       4.703  -1.453  -3.931  0.00  0.00    +0.145 HD
ATOM     29  H   UNL     1       6.323  -0.747  -3.218  0.00  0.00    +0.145 HD
ENDBRANCH  24  25
ENDBRANCH   9  24
TORSDOF 6
