REMARK  Name = ZINC56053199
REMARK  8 active torsions:
REMARK  status: ('A' for Active; 'I' for Inactive)
REMARK    1  A    between atoms: C_1  and  C_2
REMARK    2  A    between atoms: C_6  and  C_28
REMARK    3  A    between atoms: C_8  and  N_11
REMARK    4  A    between atoms: N_11  and  S_12
REMARK    5  A    between atoms: S_12  and  C_15
REMARK    6  A    between atoms: C_17  and  C_21
REMARK    7  A    between atoms: C_28  and  C_29
REMARK    8  A    between atoms: C_28  and  C_30
REMARK                            x       y       z     vdW  Elec       q    Type
REMARK                         _______ _______ _______ _____ _____    ______ ____
ROOT
ATOM      1  S   UNL     1       1.518   2.293   3.095  0.00  0.00    +0.060 S 
ATOM      2  O   UNL     1       1.211   3.672   2.942  0.00  0.00    -0.153 OA
ATOM      3  O   UNL     1       1.829   1.717   4.356  0.00  0.00    -0.153 OA
ENDROOT
BRANCH   1   4
ATOM      4  C   UNL     1       2.889   1.962   2.039  0.00  0.00    +0.123 A 
ATOM      5  C   UNL     1       3.806   0.916   2.184  0.00  0.00    +0.060 A 
ATOM      6  C   UNL     1       4.710   1.025   1.149  0.00  0.00    +0.104 A 
ATOM      7  N   UNL     1       4.346   2.115   0.392  0.00  0.00    -0.355 N 
ATOM      8  H   UNL     1       4.804   2.431  -0.403  0.00  0.00    +0.166 HD
ATOM      9  C   UNL     1       3.237   2.671   0.938  0.00  0.00    +0.112 A 
BRANCH   6  10
ATOM     10  C   UNL     1       5.853   0.140   0.900  0.00  0.00    +0.263 C 
ATOM     11  O   UNL     1       6.072  -0.796   1.646  0.00  0.00    -0.268 OA
ATOM     12  N   UNL     1       6.661   0.362  -0.156  0.00  0.00    -0.296 N 
ATOM     13  C   UNL     1       6.516   1.455  -1.130  0.00  0.00    +0.108 C 
ATOM     14  C   UNL     1       7.646   1.295  -2.168  0.00  0.00    +0.020 C 
ATOM     15  C   UNL     1       8.024  -0.205  -2.044  0.00  0.00    +0.020 C 
ATOM     16  C   UNL     1       7.839  -0.445  -0.522  0.00  0.00    +0.108 C 
ENDBRANCH   6  10
ENDBRANCH   1   4
BRANCH   1  17
ATOM     17  N   UNL     1       0.224   1.450   2.497  0.00  0.00    -0.187 NA
ATOM     18  H   UNL     1      -0.547   1.927   2.152  0.00  0.00    +0.148 HD
BRANCH  17  24
ATOM     19  C   UNL     1      -0.118   1.524   0.022  0.00  0.00    +0.007 C 
ATOM     20  C   UNL     1      -0.097  -0.005   0.014  0.00  0.00    -0.013 C 
ATOM     21  C   UNL     1      -1.519  -0.536   0.208  0.00  0.00    +0.003 C 
ATOM     22  C   UNL     1      -2.070  -0.041   1.546  0.00  0.00    +0.005 C 
ATOM     23  C   UNL     1      -1.178  -0.545   2.683  0.00  0.00    +0.010 C 
ATOM     24  C   UNL     1       0.244  -0.015   2.489  0.00  0.00    +0.080 C 
ATOM     25  C   UNL     1       0.794  -0.510   1.150  0.00  0.00    +0.024 C 
BRANCH  23  26
ATOM     26  C   UNL     1      -1.729  -0.050   4.021  0.00  0.00    -0.013 C 
ATOM     27  C   UNL     1      -3.151  -0.580   4.215  0.00  0.00    +0.007 C 
ATOM     28  C   UNL     1      -0.838  -0.554   5.158  0.00  0.00    +0.007 C 
ENDBRANCH  23  26
ENDBRANCH  17  24
ENDBRANCH   1  17
TORSDOF 5
