REMARK  Name = ZINC07363768
REMARK  6 active torsions:
REMARK  status: ('A' for Active; 'I' for Inactive)
REMARK    1  A    between atoms: C_1  and  C_2
REMARK    2  A    between atoms: C_5  and  C_8
REMARK    3  A    between atoms: C_8  and  N_9
REMARK    4  A    between atoms: C_10  and  C_21
REMARK    5  A    between atoms: C_25  and  O_27
REMARK    6  A    between atoms: O_27  and  C_28
REMARK                            x       y       z     vdW  Elec       q    Type
REMARK                         _______ _______ _______ _____ _____    ______ ____
ROOT
ATOM      1  N   UNL     1       1.903  -2.374   0.006  0.00  0.00    -0.271 N 
ATOM      2  C   UNL     1       3.137  -1.651   0.311  0.00  0.00    +0.193 C 
ATOM      3  N   UNL     1       3.184  -0.387  -0.434  0.00  0.00    -0.321 N 
ATOM      4  C   UNL     1       2.038   0.399  -0.481  0.00  0.00    +0.041 A 
ATOM      5  C   UNL     1       2.098   1.777  -0.592  0.00  0.00    +0.024 A 
ATOM      6  C   UNL     1       0.928   2.511  -0.629  0.00  0.00    +0.002 A 
ATOM      7  C   UNL     1      -0.303   1.879  -0.556  0.00  0.00    +0.001 A 
ATOM      8  C   UNL     1      -0.381   0.506  -0.447  0.00  0.00    +0.015 A 
ATOM      9  C   UNL     1       0.790  -0.246  -0.409  0.00  0.00    +0.058 A 
ATOM     10  C   UNL     1       0.765  -1.716  -0.301  0.00  0.00    +0.250 C 
ATOM     11  O   UNL     1      -0.269  -2.329  -0.486  0.00  0.00    -0.270 OA
ATOM     12  H   UNL     1       3.997  -0.106  -0.883  0.00  0.00    +0.148 HD
ENDROOT
BRANCH   2  13
ATOM     13  C   UNL     1       3.195  -1.362   1.789  0.00  0.00    -0.002 A 
ATOM     14  C   UNL     1       2.145  -0.707   2.404  0.00  0.00    +0.056 A 
ATOM     15  C   UNL     1       2.191  -0.440   3.765  0.00  0.00    +0.166 A 
ATOM     16  C   UNL     1       3.296  -0.833   4.509  0.00  0.00    +0.204 A 
ATOM     17  C   UNL     1       4.351  -1.490   3.886  0.00  0.00    +0.166 A 
ATOM     18  C   UNL     1       4.294  -1.758   2.527  0.00  0.00    +0.056 A 
ATOM     19  O   UNL     1       3.360  -0.584   5.847  0.00  0.00    -0.482 OA
ATOM     20  C   UNL     1       2.459   0.402   6.362  0.00  0.00    +0.270 C 
ATOM     21  C   UNL     1       1.065   0.129   5.781  0.00  0.00    +0.270 C 
ATOM     22  O   UNL     1       1.150   0.209   4.354  0.00  0.00    -0.485 OA
BRANCH  17  23
ATOM     23  O   UNL     1       5.436  -1.875   4.610  0.00  0.00    -0.491 OA
ATOM     24  C   UNL     1       6.523  -2.460   3.890  0.00  0.00    +0.277 C 
ENDBRANCH  17  23
ENDBRANCH   2  13
BRANCH   1  25
ATOM     25  C   UNL     1       1.901  -3.838   0.035  0.00  0.00    +0.145 C 
BRANCH  25  30
ATOM     26  C   UNL     1       0.450  -5.660   5.324  0.00  0.00    +0.044 C 
ATOM     27  C   UNL     1       0.828  -5.184   3.945  0.00  0.00    -0.050 A 
ATOM     28  C   UNL     1      -0.157  -4.870   3.027  0.00  0.00    +0.003 A 
ATOM     29  C   UNL     1       0.190  -4.435   1.762  0.00  0.00    +0.005 A 
ATOM     30  C   UNL     1       1.522  -4.313   1.415  0.00  0.00    -0.030 A 
ATOM     31  C   UNL     1       2.508  -4.632   2.330  0.00  0.00    +0.005 A 
ATOM     32  C   UNL     1       2.161  -5.062   3.597  0.00  0.00    +0.003 A 
ENDBRANCH  25  30
ENDBRANCH   1  25
TORSDOF 4
