REMARK  Name = ZINC67281684
REMARK  9 active torsions:
REMARK  status: ('A' for Active; 'I' for Inactive)
REMARK    1  A    between atoms: C_1  and  C_2
REMARK    2  A    between atoms: C_2  and  C_4
REMARK    3  A    between atoms: C_2  and  N_11
REMARK    4  A    between atoms: N_6  and  C_7
REMARK    5  A    between atoms: C_7  and  C_8
REMARK    6  A    between atoms: C_7  and  C_9
REMARK    7  A    between atoms: C_7  and  C_10
REMARK    8  A    between atoms: C_12  and  C_14
REMARK    9  A    between atoms: C_17  and  C_19
REMARK                            x       y       z     vdW  Elec       q    Type
REMARK                         _______ _______ _______ _____ _____    ______ ____
ROOT
ATOM      1  C   UNL     1       0.764  -1.122   3.549  0.00  0.00    +0.147 A 
ATOM      2  C   UNL     1       0.223  -1.318   4.784  0.00  0.00    +0.051 A 
ATOM      3  N   UNL     1       1.215  -1.757   5.593  0.00  0.00    -0.327 N 
ATOM      4  C   UNL     1       2.350  -1.842   4.838  0.00  0.00    +0.142 A 
ATOM      5  N   UNL     1       2.070  -1.460   3.615  0.00  0.00    -0.223 NA
ATOM      6  C   UNL     1       1.093  -2.069   7.020  0.00  0.00    +0.123 C 
ATOM      7  C   UNL     1      -0.342  -2.503   7.327  0.00  0.00    +0.022 C 
ATOM      8  C   UNL     1      -1.188  -1.282   7.682  0.00  0.00    +0.002 C 
ATOM      9  C   UNL     1      -1.242  -0.311   6.506  0.00  0.00    +0.006 C 
ATOM     10  C   UNL     1      -1.210  -1.098   5.192  0.00  0.00    +0.056 C 
ENDROOT
BRANCH   4  11
ATOM     11  C   UNL     1       3.674  -2.295   5.318  0.00  0.00    +0.017 A 
ATOM     12  C   UNL     1       4.638  -2.730   4.408  0.00  0.00    +0.011 A 
ATOM     13  C   UNL     1       5.871  -3.151   4.863  0.00  0.00    +0.001 A 
ATOM     14  C   UNL     1       6.152  -3.142   6.217  0.00  0.00    +0.000 A 
ATOM     15  C   UNL     1       5.200  -2.713   7.125  0.00  0.00    +0.001 A 
ATOM     16  C   UNL     1       3.966  -2.284   6.683  0.00  0.00    +0.011 A 
ENDBRANCH   4  11
BRANCH   1  18
ATOM     17  N   UNL     1       0.710  -0.490   1.189  0.00  0.00    -0.299 N 
ATOM     18  C   UNL     1       0.051  -0.634   2.355  0.00  0.00    +0.265 C 
ATOM     19  O   UNL     1      -1.132  -0.361   2.423  0.00  0.00    -0.268 OA
ATOM     20  H   UNL     1       1.654  -0.708   1.135  0.00  0.00    +0.150 HD
BRANCH  17  22
ATOM     21  C   UNL     1      -0.019   1.524   0.009  0.00  0.00    +0.038 C 
ATOM     22  C   UNL     1       0.002  -0.005   0.002  0.00  0.00    +0.156 C 
BRANCH  22  23
ATOM     23  C   UNL     1       0.707  -0.492  -1.238  0.00  0.00    +0.233 C 
ATOM     24  O   UNL     1       1.703  -1.177  -1.140  0.00  0.00    -0.274 OA
ATOM     25  N   UNL     1       0.230  -0.167  -2.456  0.00  0.00    -0.309 N 
ATOM     26  H   UNL     1      -0.567   0.381  -2.535  0.00  0.00    +0.149 HD
BRANCH  25  27
ATOM     27  C   UNL     1       0.916  -0.640  -3.661  0.00  0.00    +0.026 C 
ATOM     28  C   UNL     1       0.936  -2.169  -3.669  0.00  0.00    +0.031 C 
ATOM     29  C   UNL     1       0.176  -0.133  -4.901  0.00  0.00    +0.031 C 
ATOM     30  C   UNL     1       2.351  -0.110  -3.673  0.00  0.00    +0.031 C 
ENDBRANCH  25  27
ENDBRANCH  22  23
ENDBRANCH  17  22
ENDBRANCH   1  18
TORSDOF 5
