REMARK  Name = ZINC60309086
REMARK  5 active torsions:
REMARK  status: ('A' for Active; 'I' for Inactive)
REMARK    1  A    between atoms: C_1  and  C_2
REMARK    2  A    between atoms: C_2  and  C_3
REMARK    3  A    between atoms: C_3  and  C_4
REMARK    4  A    between atoms: C_14  and  C_16
REMARK    5  A    between atoms: C_19  and  C_24
REMARK                            x       y       z     vdW  Elec       q    Type
REMARK                         _______ _______ _______ _____ _____    ______ ____
ROOT
ATOM      1  C   UNL     1       0.759  -2.037  -1.239  0.00  0.00    -0.006 C 
ATOM      2  C   UNL     1       1.562  -2.525  -2.447  0.00  0.00    +0.010 C 
ATOM      3  C   UNL     1       1.799  -4.034  -2.347  0.00  0.00    +0.056 C 
ATOM      4  C   UNL     1       0.461  -4.724  -2.124  0.00  0.00    +0.054 A 
ATOM      5  C   UNL     1      -0.613  -4.022  -1.680  0.00  0.00    +0.015 A 
ATOM      6  S   UNL     1      -1.876  -5.260  -1.596  0.00  0.00    -0.057 S 
ATOM      7  C   UNL     1      -0.945  -6.560  -2.129  0.00  0.00    +0.165 A 
ATOM      8  N   UNL     1       0.234  -6.017  -2.337  0.00  0.00    -0.229 NA
ATOM      9  N   UNL     1      -1.330  -7.883  -2.304  0.00  0.00    -0.261 N 
ATOM     10  C   UNL     1      -0.436  -8.792  -2.743  0.00  0.00    +0.255 C 
ATOM     11  O   UNL     1       0.680  -8.438  -3.075  0.00  0.00    -0.270 OA
ATOM     12  C   UNL     1      -0.679  -2.569  -1.347  0.00  0.00    +0.048 C 
ATOM     13  H   UNL     1      -2.241  -8.153  -2.112  0.00  0.00    +0.157 HD
ENDROOT
BRANCH  10  14
ATOM     14  C   UNL     1      -0.809 -10.209  -2.820  0.00  0.00    +0.101 A 
ATOM     15  C   UNL     1       0.146 -11.174  -3.157  0.00  0.00    +0.020 A 
ATOM     16  C   UNL     1      -0.232 -12.505  -3.223  0.00  0.00    +0.030 A 
ATOM     17  C   UNL     1      -1.547 -12.864  -2.956  0.00  0.00    +0.085 A 
ATOM     18  N   UNL     1      -2.478 -11.916  -2.627  0.00  0.00    -0.319 N 
ATOM     19  H   UNL     1      -3.391 -12.185  -2.444  0.00  0.00    +0.169 HD
ATOM     20  C   UNL     1      -2.139 -10.615  -2.549  0.00  0.00    +0.261 A 
ATOM     21  O   UNL     1      -2.980  -9.784  -2.249  0.00  0.00    -0.267 OA
BRANCH  17  22
ATOM     22  C   UNL     1      -1.942 -14.272  -3.027  0.00  0.00    +0.151 A 
ATOM     23  C   UNL     1      -3.195 -14.768  -2.796  0.00  0.00    +0.051 A 
ATOM     24  C   UNL     1      -3.118 -16.159  -2.975  0.00  0.00    +0.042 A 
ATOM     25  C   UNL     1      -1.839 -16.447  -3.303  0.00  0.00    +0.196 A 
ATOM     26  O   UNL     1      -1.135 -15.307  -3.338  0.00  0.00    -0.461 OA
ENDBRANCH  17  22
ENDBRANCH  10  14
BRANCH   1  27
ATOM     27  C   UNL     1       0.739  -0.507  -1.221  0.00  0.00    +0.003 C 
BRANCH  27  29
ATOM     28  C   UNL     1       0.017   1.509   0.067  0.00  0.00    +0.004 C 
ATOM     29  C   UNL     1       0.037  -0.021   0.049  0.00  0.00    -0.003 C 
ENDBRANCH  27  29
ENDBRANCH   1  27
TORSDOF 4
