REMARK  Name = ZINC44906039
REMARK  10 active torsions:
REMARK  status: ('A' for Active; 'I' for Inactive)
REMARK    1  A    between atoms: C_1  and  C_2
REMARK    2  A    between atoms: C_2  and  C_4
REMARK    3  A    between atoms: C_2  and  N_14
REMARK    4  A    between atoms: C_7  and  C_10
REMARK    5  A    between atoms: C_10  and  C_11
REMARK    6  A    between atoms: C_10  and  C_12
REMARK    7  A    between atoms: C_10  and  C_13
REMARK    8  A    between atoms: C_15  and  C_17
REMARK    9  A    between atoms: N_22  and  C_24
REMARK   10  A    between atoms: C_24  and  C_25
REMARK                            x       y       z     vdW  Elec       q    Type
REMARK                         _______ _______ _______ _____ _____    ______ ____
ROOT
ATOM      1  N   UNL     1       0.688  -0.476  -1.203  0.00  0.00    -0.309 N 
ATOM      2  C   UNL     1       0.006  -0.608  -2.358  0.00  0.00    +0.215 C 
ATOM      3  O   UNL     1      -1.175  -0.336  -2.400  0.00  0.00    -0.276 OA
ATOM      4  H   UNL     1       1.632  -0.695  -1.170  0.00  0.00    +0.149 HD
ENDROOT
BRANCH   2   5
ATOM      5  C   UNL     1       0.712  -1.094  -3.598  0.00  0.00    +0.058 C 
ATOM      6  C   UNL     1       1.849  -0.131  -3.950  0.00  0.00    +0.009 C 
ATOM      7  C   UNL     1       2.509  -0.590  -5.254  0.00  0.00    -0.018 C 
ATOM      8  C   UNL     1       1.450  -0.665  -6.356  0.00  0.00    -0.078 C 
ATOM      9  N   UNL     1       0.405  -1.621  -5.972  0.00  0.00    +0.383 N 
ATOM     10  C   UNL     1      -0.281  -1.151  -4.762  0.00  0.00    -0.066 C 
ATOM     11  H   UNL     1       0.823  -2.521  -5.791  0.00  0.00    -0.081 HD
BRANCH   9  12
ATOM     12  C   UNL     1      -0.568  -1.747  -7.066  0.00  0.00    -0.043 C 
BRANCH  12  13
ATOM     13  C   UNL     1       0.106  -2.354  -8.269  0.00  0.00    -0.063 A 
ATOM     14  C   UNL     1       0.714  -1.539  -9.206  0.00  0.00    +0.002 A 
ATOM     15  C   UNL     1       1.332  -2.096 -10.310  0.00  0.00    +0.001 A 
ATOM     16  C   UNL     1       1.343  -3.468 -10.478  0.00  0.00    +0.015 A 
ATOM     17  C   UNL     1       0.735  -4.284  -9.541  0.00  0.00    +0.018 A 
ATOM     18  C   UNL     1       0.121  -3.726  -8.433  0.00  0.00    +0.017 A 
ATOM     19 BR   UNL     1       0.748  -6.160  -9.771  0.00  0.00    -0.050 Br
ENDBRANCH  12  13
ENDBRANCH   9  12
ENDBRANCH   2   5
BRANCH   1  21
ATOM     20  C   UNL     1      -0.019   1.526   0.010  0.00  0.00    +0.033 C 
ATOM     21  C   UNL     1       0.002  -0.004   0.002  0.00  0.00    +0.100 C 
BRANCH  21  22
ATOM     22  C   UNL     1       0.731  -0.503   1.223  0.00  0.00    -0.027 A 
ATOM     23  C   UNL     1       2.113  -0.514   1.247  0.00  0.00    +0.006 A 
ATOM     24  C   UNL     1       2.782  -0.972   2.366  0.00  0.00    +0.004 A 
ATOM     25  C   UNL     1       2.068  -1.419   3.463  0.00  0.00    -0.042 A 
ATOM     26  C   UNL     1       0.686  -1.407   3.439  0.00  0.00    +0.004 A 
ATOM     27  C   UNL     1       0.017  -0.945   2.321  0.00  0.00    +0.006 A 
BRANCH  25  28
ATOM     28  C   UNL     1       2.797  -1.919   4.683  0.00  0.00    -0.013 C 
ATOM     29  C   UNL     1       3.677  -0.801   5.246  0.00  0.00    +0.015 C 
ATOM     30  C   UNL     1       1.781  -2.350   5.743  0.00  0.00    +0.015 C 
ATOM     31  C   UNL     1       3.673  -3.113   4.301  0.00  0.00    +0.015 C 
ENDBRANCH  25  28
ENDBRANCH  21  22
ENDBRANCH   1  21
TORSDOF 6
