REMARK  Name = ZINC02188808
REMARK  11 active torsions:
REMARK  status: ('A' for Active; 'I' for Inactive)
REMARK    1  A    between atoms: C_1  and  C_2
REMARK    2  A    between atoms: C_2  and  C_37
REMARK    3  A    between atoms: C_6  and  C_25
REMARK    4  A    between atoms: C_8  and  C_23
REMARK    5  A    between atoms: C_9  and  N_22
REMARK    6  A    between atoms: N_10  and  C_11
REMARK    7  A    between atoms: C_12  and  C_20
REMARK    8  A    between atoms: C_28  and  C_30
REMARK    9  A    between atoms: C_30  and  C_31
REMARK   10  A    between atoms: C_30  and  C_32
REMARK   11  A    between atoms: C_30  and  C_33
REMARK                            x       y       z     vdW  Elec       q    Type
REMARK                         _______ _______ _______ _____ _____    ______ ____
ROOT
ATOM      1  C   UNL     1      -0.481   6.622  -5.265  0.00  0.00    +0.011 C 
ATOM      2  C   UNL     1      -2.003   6.469  -5.311  0.00  0.00    -0.023 C 
ATOM      3  C   UNL     1      -2.527   6.130  -3.914  0.00  0.00    +0.058 C 
ATOM      4  C   UNL     1      -2.197   7.253  -2.962  0.00  0.00    +0.025 C 
ATOM      5  C   UNL     1      -2.123   8.528  -3.395  0.00  0.00    +0.026 C 
ATOM      6  C   UNL     1      -1.793   9.650  -2.443  0.00  0.00    +0.104 C 
ATOM      7  C   UNL     1      -2.002   9.233  -1.018  0.00  0.00    +0.077 C 
ATOM      8  C   UNL     1      -2.084   7.922  -0.674  0.00  0.00    +0.107 C 
ATOM      9  N   UNL     1      -1.984   6.947  -1.643  0.00  0.00    -0.253 N 
ATOM     10  C   UNL     1      -2.343   8.850  -4.746  0.00  0.00    +0.162 C 
ATOM     11  O   UNL     1      -2.279  10.010  -5.101  0.00  0.00    -0.292 OA
ATOM     12  C   UNL     1      -2.640   7.787  -5.762  0.00  0.00    +0.086 C 
ATOM     13  C   UNL     1      -2.377   5.351  -6.286  0.00  0.00    +0.011 C 
ENDROOT
BRANCH   9  14
ATOM     14  C   UNL     1      -1.660   5.647  -1.280  0.00  0.00    +0.095 A 
ATOM     15  C   UNL     1      -2.512   4.619  -0.905  0.00  0.00    +0.084 A 
ATOM     16  C   UNL     1      -1.914   3.339  -0.570  0.00  0.00    -0.018 A 
ATOM     17  C   UNL     1      -0.566   3.291  -0.663  0.00  0.00    -0.004 A 
ATOM     18  S   UNL     1      -0.092   4.915  -1.187  0.00  0.00    -0.076 S 
ATOM     19  C   UNL     1       0.318   2.116  -0.382  0.00  0.00    +0.043 C 
ATOM     20  C   UNL     1      -0.499   1.071   0.391  0.00  0.00    +0.005 C 
ATOM     21  C   UNL     1      -1.843   0.870  -0.315  0.00  0.00    +0.005 C 
ATOM     22  C   UNL     1      -2.714   2.115  -0.142  0.00  0.00    +0.037 C 
BRANCH  15  23
ATOM     23  C   UNL     1      -3.929   4.813  -0.849  0.00  0.00    +0.102 C 
ATOM     24  N   UNL     1      -5.054   4.967  -0.805  0.00  0.00    -0.191 NA
ENDBRANCH  15  23
ENDBRANCH   9  14
BRANCH   6  25
ATOM     25  C   UNL     1      -0.353  10.052  -2.634  0.00  0.00    +0.003 A 
ATOM     26  C   UNL     1       0.155  11.245  -3.028  0.00  0.00    +0.012 A 
ATOM     27  C   UNL     1       1.526  11.387  -3.134  0.00  0.00    +0.012 A 
ATOM     28  C   UNL     1       2.322  10.330  -2.841  0.00  0.00    -0.005 A 
ATOM     29  S   UNL     1       1.126   9.082  -2.392  0.00  0.00    -0.097 S 
BRANCH  28  30
ATOM     30  C   UNL     1       3.825  10.234  -2.879  0.00  0.00    -0.006 C 
ATOM     31  C   UNL     1       4.426  11.259  -1.915  0.00  0.00    +0.016 C 
ATOM     32  C   UNL     1       4.257   8.827  -2.461  0.00  0.00    +0.016 C 
ATOM     33  C   UNL     1       4.319  10.518  -4.299  0.00  0.00    +0.016 C 
ENDBRANCH  28  30
ENDBRANCH   6  25
BRANCH   8  34
ATOM     34  N   UNL     1      -2.268   7.567   0.641  0.00  0.00    -0.345 N 
ATOM     35  H   UNL     1      -2.240   6.633   0.899  0.00  0.00    +0.144 HD
ATOM     36  H   UNL     1      -2.425   8.251   1.310  0.00  0.00    +0.144 HD
ENDBRANCH   8  34
BRANCH   7  37
ATOM     37  C   UNL     1      -2.119  10.235  -0.001  0.00  0.00    +0.099 C 
ATOM     38  N   UNL     1      -2.211  11.030   0.805  0.00  0.00    -0.191 NA
ENDBRANCH   7  37
TORSDOF 6
