REMARK  Name = ZINC21810706
REMARK  9 active torsions:
REMARK  status: ('A' for Active; 'I' for Inactive)
REMARK    1  A    between atoms: C_1  and  C_2
REMARK    2  A    between atoms: C_2  and  C_26
REMARK    3  A    between atoms: N_14  and  C_15
REMARK    4  A    between atoms: C_15  and  C_16
REMARK    5  A    between atoms: C_16  and  C_17
REMARK    6  A    between atoms: C_17  and  N_18
REMARK    7  A    between atoms: N_18  and  C_19
REMARK    8  A    between atoms: N_18  and  C_20
REMARK    9  A    between atoms: N_28  and  C_29
REMARK                            x       y       z     vdW  Elec       q    Type
REMARK                         _______ _______ _______ _____ _____    ______ ____
ROOT
ATOM      1  C   UNL     1       6.980  -3.218  -3.144  0.00  0.00    +0.043 C 
ATOM      2  C   UNL     1       7.687  -2.617  -4.360  0.00  0.00    +0.128 C 
ATOM      3  C   UNL     1       7.455  -3.529  -5.569  0.00  0.00    +0.157 C 
ATOM      4  N   UNL     1       7.881  -2.829  -6.784  0.00  0.00    -0.331 N 
ATOM      5  C   UNL     1       8.370  -3.325  -7.955  0.00  0.00    +0.088 A 
ATOM      6  C   UNL     1       8.749  -4.486  -8.671  0.00  0.00    +0.067 A 
ATOM      7  C   UNL     1       9.166  -4.088  -9.885  0.00  0.00    +0.198 A 
ATOM      8  O   UNL     1       9.072  -2.751  -9.975  0.00  0.00    -0.461 OA
ATOM      9  C   UNL     1       8.594  -2.250  -8.815  0.00  0.00    +0.153 A 
ATOM     10  C   UNL     1       8.231  -1.078  -8.134  0.00  0.00    +0.079 A 
ATOM     11  C   UNL     1       7.815  -1.441  -6.888  0.00  0.00    +0.109 A 
ATOM     12  C   UNL     1       7.334  -0.628  -5.764  0.00  0.00    +0.264 C 
ATOM     13  O   UNL     1       7.085   0.556  -5.890  0.00  0.00    -0.268 OA
ATOM     14  N   UNL     1       7.183  -1.267  -4.580  0.00  0.00    -0.281 N 
ENDROOT
BRANCH   2  15
ATOM     15  C   UNL     1       9.165  -2.545  -4.075  0.00  0.00    +0.238 C 
ATOM     16  O   UNL     1       9.670  -3.320  -3.290  0.00  0.00    -0.273 OA
ATOM     17  N   UNL     1       9.926  -1.619  -4.692  0.00  0.00    -0.311 N 
ATOM     18  H   UNL     1       9.468  -0.916  -5.403  0.00  0.00    +0.149 HD
BRANCH  17  19
ATOM     19  C   UNL     1      11.363  -1.549  -4.414  0.00  0.00    +0.073 C 
ATOM     20  C   UNL     1      11.600  -0.698  -3.165  0.00  0.00    +0.022 C 
ATOM     21  C   UNL     1      13.100  -0.625  -2.875  0.00  0.00    +0.002 C 
ATOM     22  C   UNL     1      13.820   0.009  -4.067  0.00  0.00    +0.000 C 
ATOM     23  C   UNL     1      13.583  -0.842  -5.317  0.00  0.00    +0.002 C 
ATOM     24  C   UNL     1      12.082  -0.915  -5.607  0.00  0.00    +0.022 C 
ENDBRANCH  17  19
ENDBRANCH   2  15
BRANCH  14  25
ATOM     25  C   UNL     1       6.496  -0.578  -3.484  0.00  0.00    +0.107 C 
BRANCH  25  26
ATOM     26  C   UNL     1       4.997  -0.875  -3.554  0.00  0.00    +0.000 C 
BRANCH  26  27
ATOM     27  C   UNL     1       4.280  -0.156  -2.409  0.00  0.00    -0.077 C 
BRANCH  27  28
ATOM     28  N   UNL     1       2.841  -0.442  -2.476  0.00  0.00    +0.380 N 
ATOM     29  C   UNL     1       2.244   0.142  -3.685  0.00  0.00    -0.096 C 
ATOM     30  H   UNL     1       2.716  -1.533  -2.531  0.00  0.00    -0.082 HD
BRANCH  28  31
ATOM     31  C   UNL     1       2.154   0.032  -1.268  0.00  0.00    -0.069 C 
ATOM     32  C   UNL     1       0.718  -0.497  -1.257  0.00  0.00    -0.015 C 
ATOM     33  C   UNL     1       0.002  -0.004   0.002  0.00  0.00    -0.002 C 
ATOM     34  C   UNL     1      -0.019   1.526   0.010  0.00  0.00    -0.000 C 
ATOM     35  C   UNL     1       1.417   2.055  -0.000  0.00  0.00    -0.002 C 
ATOM     36  C   UNL     1       2.133   1.562  -1.259  0.00  0.00    -0.015 C 
ENDBRANCH  28  31
ENDBRANCH  27  28
ENDBRANCH  26  27
ENDBRANCH  25  26
ENDBRANCH  14  25
TORSDOF 7
