REMARK  Name = ZINC39578412
REMARK  8 active torsions:
REMARK  status: ('A' for Active; 'I' for Inactive)
REMARK    1  A    between atoms: C_1  and  O_2
REMARK    2  A    between atoms: O_2  and  C_3
REMARK    3  A    between atoms: C_8  and  C_9
REMARK    4  A    between atoms: C_11  and  C_14
REMARK    5  A    between atoms: C_14  and  S_15
REMARK    6  A    between atoms: S_15  and  C_16
REMARK    7  A    between atoms: C_19  and  C_22
REMARK    8  A    between atoms: N_20  and  N_21
REMARK                            x       y       z     vdW  Elec       q    Type
REMARK                         _______ _______ _______ _____ _____    ______ ____
ROOT
ATOM      1  S   UNL     1       1.539  -6.774  -1.773  0.00  0.00    -0.078 S 
ENDROOT
BRANCH   1   2
ATOM      2  C   UNL     1       1.714  -8.521  -1.623  0.00  0.00    +0.209 A 
ATOM      3  N   UNL     1       1.783  -9.205  -0.504  0.00  0.00    -0.121 NA
ATOM      4  N   UNL     1       1.907 -10.457  -0.766  0.00  0.00    -0.132 NA
ATOM      5  C   UNL     1       1.925 -10.645  -2.055  0.00  0.00    +0.154 A 
ATOM      6  N   UNL     1       1.797  -9.419  -2.647  0.00  0.00    -0.228 N 
BRANCH   5   7
ATOM      7  C   UNL     1       2.057 -11.970  -2.762  0.00  0.00    +0.059 C 
ATOM      8  C   UNL     1       0.892 -12.878  -2.365  0.00  0.00    +0.011 C 
ATOM      9  C   UNL     1       1.026 -14.223  -3.083  0.00  0.00    +0.001 C 
ATOM     10  C   UNL     1       2.347 -14.884  -2.686  0.00  0.00    +0.000 C 
ATOM     11  C   UNL     1       3.512 -13.975  -3.084  0.00  0.00    +0.001 C 
ATOM     12  C   UNL     1       3.378 -12.631  -2.365  0.00  0.00    +0.011 C 
ENDBRANCH   5   7
BRANCH   6  13
ATOM     13  N   UNL     1       1.762  -9.150  -3.986  0.00  0.00    -0.295 N 
ATOM     14  H   UNL     1       2.690  -8.986  -4.346  0.00  0.00    +0.163 HD
ATOM     15  H   UNL     1       1.303  -9.892  -4.492  0.00  0.00    +0.163 HD
ENDBRANCH   6  13
ENDBRANCH   1   2
BRANCH   1  16
ATOM     16  C   UNL     1       1.492  -6.188  -0.057  0.00  0.00    +0.133 C 
BRANCH  16  19
ATOM     17  C   UNL     1      -0.011  -2.830  -0.013  0.00  0.00    +0.112 A 
ATOM     18  N   UNL     1       0.147  -4.147  -0.027  0.00  0.00    -0.243 NA
ATOM     19  C   UNL     1       1.343  -4.689  -0.041  0.00  0.00    +0.059 A 
ATOM     20  C   UNL     1       2.446  -3.895  -0.042  0.00  0.00    +0.071 A 
ATOM     21  S   UNL     1       1.688  -2.276  -0.027  0.00  0.00    -0.075 S 
BRANCH  17  27
ATOM     22  C   UNL     1      -1.200  -0.637   0.010  0.00  0.00    +0.130 A 
ATOM     23  C   UNL     1      -2.373   0.099   0.019  0.00  0.00    +0.046 A 
ATOM     24  C   UNL     1      -3.595  -0.546   0.028  0.00  0.00    +0.004 A 
ATOM     25  C   UNL     1      -3.656  -1.929   0.027  0.00  0.00    +0.001 A 
ATOM     26  C   UNL     1      -2.497  -2.676   0.018  0.00  0.00    +0.014 A 
ATOM     27  C   UNL     1      -1.257  -2.036   0.003  0.00  0.00    +0.049 A 
BRANCH  22  29
ATOM     28  C   UNL     1      -0.017   1.425   0.010  0.00  0.00    +0.277 C 
ATOM     29  O   UNL     1       0.002  -0.004   0.002  0.00  0.00    -0.494 OA
ENDBRANCH  22  29
ENDBRANCH  17  27
ENDBRANCH  16  19
ENDBRANCH   1  16
TORSDOF 7
