REMARK  Name = ZINC01984228
REMARK  12 active torsions:
REMARK  status: ('A' for Active; 'I' for Inactive)
REMARK    1  A    between atoms: C_1  and  C_2
REMARK    2  A    between atoms: C_4  and  O_12
REMARK    3  A    between atoms: C_5  and  C_9
REMARK    4  A    between atoms: C_9  and  C_10
REMARK    5  A    between atoms: C_9  and  C_11
REMARK    6  A    between atoms: O_12  and  C_13
REMARK    7  A    between atoms: C_13  and  C_14
REMARK    8  A    between atoms: N_16  and  C_17
REMARK    9  A    between atoms: C_18  and  C_28
REMARK   10  A    between atoms: C_23  and  C_27
REMARK   11  A    between atoms: C_28  and  O_30
REMARK   12  A    between atoms: O_30  and  C_31
REMARK                            x       y       z     vdW  Elec       q    Type
REMARK                         _______ _______ _______ _____ _____    ______ ____
ROOT
ATOM      1  C   UNL     1      -2.375  -3.194  -2.897  0.00  0.00    +0.255 C 
ATOM      2  O   UNL     1      -2.150  -4.385  -2.859  0.00  0.00    -0.272 OA
ATOM      3  N   UNL     1      -1.503  -2.326  -2.347  0.00  0.00    -0.277 N 
ATOM      4  H   UNL     1      -1.707  -1.245  -2.381  0.00  0.00    +0.155 HD
ENDROOT
BRANCH   3   5
ATOM      5  C   UNL     1      -0.349  -2.794  -1.738  0.00  0.00    +0.086 A 
ATOM      6  C   UNL     1       0.659  -2.064  -1.123  0.00  0.00    +0.091 A 
ATOM      7  C   UNL     1       1.770  -2.805  -0.550  0.00  0.00    -0.021 A 
ATOM      8  C   UNL     1       1.699  -4.146  -0.688  0.00  0.00    -0.004 A 
ATOM      9  S   UNL     1       0.186  -4.432  -1.563  0.00  0.00    -0.077 S 
ATOM     10  C   UNL     1       2.691  -5.159  -0.202  0.00  0.00    +0.046 C 
ATOM     11  C   UNL     1       3.622  -4.476   0.809  0.00  0.00    -0.009 C 
ATOM     12  C   UNL     1       4.106  -3.149   0.217  0.00  0.00    +0.008 C 
ATOM     13  C   UNL     1       2.948  -2.151   0.162  0.00  0.00    +0.037 C 
ATOM     14  C   UNL     1       4.822  -5.381   1.094  0.00  0.00    +0.008 C 
BRANCH   6  15
ATOM     15  C   UNL     1       0.601  -0.603  -1.048  0.00  0.00    +0.342 C 
ATOM     16  O   UNL     1       1.094   0.071  -1.932  0.00  0.00    -0.245 OA
BRANCH  15  17
ATOM     17  O   UNL     1       0.002  -0.004   0.002  0.00  0.00    -0.464 OA
ATOM     18  C   UNL     1      -0.018   1.448   0.010  0.00  0.00    +0.280 C 
ENDBRANCH  15  17
ENDBRANCH   6  15
ENDBRANCH   3   5
BRANCH   1  19
ATOM     19  C   UNL     1      -3.630  -2.685  -3.559  0.00  0.00    +0.324 C 
BRANCH  19  20
ATOM     20  O   UNL     1      -4.385  -3.789  -4.061  0.00  0.00    -0.482 OA
BRANCH  20  24
ATOM     21  C   UNL     1      -7.602  -0.461  -5.609  0.00  0.00    +0.045 C 
ATOM     22  C   UNL     1      -7.154  -1.893  -5.465  0.00  0.00    -0.033 A 
ATOM     23  C   UNL     1      -5.965  -2.183  -4.824  0.00  0.00    +0.050 A 
ATOM     24  C   UNL     1      -5.554  -3.501  -4.691  0.00  0.00    +0.125 A 
ATOM     25  C   UNL     1      -6.335  -4.525  -5.208  0.00  0.00    -0.002 A 
ATOM     26  C   UNL     1      -7.526  -4.230  -5.844  0.00  0.00    +0.023 A 
ATOM     27  C   UNL     1      -7.934  -2.915  -5.975  0.00  0.00    +0.021 A 
ATOM     28 BR   UNL     1      -9.560  -2.514  -6.853  0.00  0.00    -0.050 Br
BRANCH  25  29
ATOM     29  C   UNL     1      -5.888  -5.957  -5.071  0.00  0.00    +0.016 C 
ATOM     30  C   UNL     1      -6.937  -6.746  -4.285  0.00  0.00    +0.012 C 
ATOM     31  C   UNL     1      -5.721  -6.575  -6.461  0.00  0.00    +0.012 C 
ENDBRANCH  25  29
ENDBRANCH  20  24
ENDBRANCH  19  20
ENDBRANCH   1  19
TORSDOF 7
