REMARK  Name = ZINC20918654
REMARK  12 active torsions:
REMARK  status: ('A' for Active; 'I' for Inactive)
REMARK    1  A    between atoms: C_1  and  C_2
REMARK    2  A    between atoms: C_5  and  C_40
REMARK    3  A    between atoms: N_8  and  C_10
REMARK    4  A    between atoms: C_10  and  C_11
REMARK    5  A    between atoms: C_11  and  C_12
REMARK    6  A    between atoms: C_12  and  N_13
REMARK    7  A    between atoms: C_14  and  C_16
REMARK    8  A    between atoms: C_16  and  C_39
REMARK    9  A    between atoms: N_29  and  C_30
REMARK   10  A    between atoms: C_30  and  C_31
REMARK   11  A    between atoms: C_34  and  O_37
REMARK   12  A    between atoms: O_37  and  C_38
REMARK                            x       y       z     vdW  Elec       q    Type
REMARK                         _______ _______ _______ _____ _____    ______ ____
ROOT
ATOM      1  C   UNL     1      -4.898   8.010   4.583  0.00  0.00    +0.129 C 
ATOM      2  C   UNL     1      -5.045   9.529   4.523  0.00  0.00    +0.157 C 
ATOM      3  N   UNL     1      -3.786  10.157   4.930  0.00  0.00    -0.334 N 
ATOM      4  C   UNL     1      -3.242  11.343   4.568  0.00  0.00    +0.050 A 
ATOM      5  C   UNL     1      -3.665  12.338   3.685  0.00  0.00    +0.026 A 
ATOM      6  C   UNL     1      -2.852  13.448   3.552  0.00  0.00    +0.002 A 
ATOM      7  C   UNL     1      -1.665  13.586   4.255  0.00  0.00    +0.001 A 
ATOM      8  C   UNL     1      -1.220  12.627   5.129  0.00  0.00    +0.010 A 
ATOM      9  C   UNL     1      -2.022  11.487   5.284  0.00  0.00    +0.001 A 
ATOM     10  C   UNL     1      -1.864  10.334   6.075  0.00  0.00    +0.041 A 
ATOM     11  C   UNL     1      -2.929   9.539   5.844  0.00  0.00    +0.106 A 
ATOM     12  C   UNL     1      -3.254   8.212   6.399  0.00  0.00    +0.264 C 
ATOM     13  O   UNL     1      -2.621   7.731   7.320  0.00  0.00    -0.268 OA
ATOM     14  N   UNL     1      -4.292   7.556   5.830  0.00  0.00    -0.276 N 
ATOM     15  C   UNL     1      -6.282   7.373   4.446  0.00  0.00    +0.043 C 
ENDROOT
BRANCH   1  17
ATOM     16  N   UNL     1      -2.696   7.569   3.547  0.00  0.00    -0.314 N 
ATOM     17  C   UNL     1      -4.038   7.557   3.431  0.00  0.00    +0.238 C 
ATOM     18  O   UNL     1      -4.555   7.182   2.400  0.00  0.00    -0.273 OA
ATOM     19  H   UNL     1      -2.229   7.836   4.507  0.00  0.00    +0.149 HD
BRANCH  16  20
ATOM     20  C   UNL     1      -1.858   7.226   2.395  0.00  0.00    +0.102 C 
BRANCH  20  21
ATOM     21  C   UNL     1      -0.390   7.196   2.824  0.00  0.00    +0.000 C 
BRANCH  21  22
ATOM     22  C   UNL     1       0.473   6.718   1.654  0.00  0.00    -0.077 C 
BRANCH  22  28
ATOM     23  C   UNL     1       3.985   4.710   2.817  0.00  0.00    +0.005 C 
ATOM     24  C   UNL     1       4.085   5.652   1.616  0.00  0.00    -0.031 C 
ATOM     25  C   UNL     1       4.723   6.974   2.053  0.00  0.00    +0.003 C 
ATOM     26  C   UNL     1       3.826   7.645   3.098  0.00  0.00    -0.031 C 
ATOM     27  C   UNL     1       2.432   7.859   2.503  0.00  0.00    -0.076 C 
ATOM     28  N   UNL     1       1.864   6.566   2.101  0.00  0.00    +0.380 N 
ATOM     29  C   UNL     1       2.683   5.926   1.064  0.00  0.00    -0.076 C 
ATOM     30  C   UNL     1       4.426   8.995   3.495  0.00  0.00    +0.005 C 
ATOM     31  H   UNL     1       1.867   5.910   2.984  0.00  0.00    -0.082 HD
ENDBRANCH  22  28
ENDBRANCH  21  22
ENDBRANCH  20  21
ENDBRANCH  16  20
ENDBRANCH   1  17
BRANCH  14  32
ATOM     32  C   UNL     1      -4.823   6.358   6.485  0.00  0.00    +0.144 C 
BRANCH  32  33
ATOM     33  C   UNL     1      -4.019   5.156   6.061  0.00  0.00    -0.030 A 
ATOM     34  C   UNL     1      -4.339   4.490   4.893  0.00  0.00    +0.009 A 
ATOM     35  C   UNL     1      -3.600   3.391   4.499  0.00  0.00    +0.046 A 
ATOM     36  C   UNL     1      -2.544   2.949   5.282  0.00  0.00    +0.120 A 
ATOM     37  C   UNL     1      -2.229   3.616   6.457  0.00  0.00    +0.046 A 
ATOM     38  C   UNL     1      -2.967   4.718   6.844  0.00  0.00    +0.009 A 
BRANCH  36  39
ATOM     39  O   UNL     1      -1.819   1.865   4.900  0.00  0.00    -0.495 OA
ATOM     40  C   UNL     1      -2.123   1.299   3.624  0.00  0.00    +0.277 C 
ENDBRANCH  36  39
ENDBRANCH  32  33
ENDBRANCH  14  32
TORSDOF 8
