REMARK  Name = ZINC21219783
REMARK  13 active torsions:
REMARK  status: ('A' for Active; 'I' for Inactive)
REMARK    1  A    between atoms: C_1  and  C_2
REMARK    2  A    between atoms: C_2  and  O_3
REMARK    3  A    between atoms: O_3  and  C_4
REMARK    4  A    between atoms: C_5  and  C_12
REMARK    5  A    between atoms: C_9  and  O_10
REMARK    6  A    between atoms: O_10  and  C_11
REMARK    7  A    between atoms: C_17  and  C_22
REMARK    8  A    between atoms: C_24  and  O_32
REMARK    9  A    between atoms: C_25  and  O_30
REMARK   10  A    between atoms: C_26  and  O_28
REMARK   11  A    between atoms: O_28  and  C_29
REMARK   12  A    between atoms: O_30  and  C_31
REMARK   13  A    between atoms: O_32  and  C_33
REMARK                            x       y       z     vdW  Elec       q    Type
REMARK                         _______ _______ _______ _____ _____    ______ ____
ROOT
ATOM      1  C   UNL     1       1.087   3.572   0.330  0.00  0.00    +0.140 C 
ATOM      2  C   UNL     1       1.472   3.908   1.751  0.00  0.00    +0.037 C 
ATOM      3  C   UNL     1       0.641   4.350   2.709  0.00  0.00    +0.017 C 
ATOM      4  C   UNL     1       1.159   4.625   4.111  0.00  0.00    +0.059 C 
ATOM      5  C   UNL     1       2.605   5.113   4.046  0.00  0.00    +0.032 C 
ATOM      6  C   UNL     1       3.439   4.015   3.375  0.00  0.00    +0.088 C 
ATOM      7  C   UNL     1       2.846   3.719   2.030  0.00  0.00    +0.163 C 
ATOM      8  O   UNL     1       3.572   3.303   1.149  0.00  0.00    -0.292 OA
ATOM      9  N   UNL     1      -0.685   4.584   2.540  0.00  0.00    -0.316 N 
ATOM     10  C   UNL     1      -1.570   3.714   1.913  0.00  0.00    +0.052 A 
ATOM     11  C   UNL     1      -2.614   3.107   2.588  0.00  0.00    +0.025 A 
ATOM     12  C   UNL     1      -3.486   2.286   1.893  0.00  0.00    +0.002 A 
ATOM     13  C   UNL     1      -3.316   2.079   0.536  0.00  0.00    +0.002 A 
ATOM     14  C   UNL     1      -2.262   2.672  -0.137  0.00  0.00    +0.025 A 
ATOM     15  C   UNL     1      -1.376   3.476   0.560  0.00  0.00    +0.049 A 
ATOM     16  N   UNL     1      -0.240   4.008  -0.050  0.00  0.00    -0.331 N 
ATOM     17  H   UNL     1      -1.131   5.518   2.913  0.00  0.00    +0.152 HD
ATOM     18  H   UNL     1      -0.365   4.770  -0.833  0.00  0.00    +0.147 HD
ENDROOT
BRANCH   1  20
ATOM     19  C   UNL     1       1.260   1.534  -1.119  0.00  0.00    +0.167 A 
ATOM     20  C   UNL     1       1.168   2.077   0.153  0.00  0.00    +0.023 A 
ATOM     21  C   UNL     1       1.151   1.248   1.259  0.00  0.00    +0.009 A 
ATOM     22  C   UNL     1       1.226  -0.123   1.100  0.00  0.00    +0.004 A 
ATOM     23  C   UNL     1       1.317  -0.671  -0.165  0.00  0.00    +0.049 A 
ATOM     24  C   UNL     1       1.334   0.154  -1.278  0.00  0.00    +0.162 A 
BRANCH  24  25
ATOM     25  O   UNL     1       1.423  -0.384  -2.524  0.00  0.00    -0.491 OA
ATOM     26  C   UNL     1       1.496  -1.808  -2.612  0.00  0.00    +0.277 C 
ENDBRANCH  24  25
BRANCH  19  27
ATOM     27  O   UNL     1       1.277   2.348  -2.208  0.00  0.00    -0.488 OA
BRANCH  27  29
ATOM     28  C   UNL     1       0.267   3.398  -4.136  0.00  0.00    +0.048 C 
ATOM     29  C   UNL     1       0.031   2.572  -2.870  0.00  0.00    +0.226 C 
ENDBRANCH  27  29
ENDBRANCH  19  27
ENDBRANCH   1  20
BRANCH   5  30
ATOM     30  C   UNL     1       3.122   5.368   5.438  0.00  0.00    -0.036 A 
ATOM     31  C   UNL     1       3.158   4.338   6.360  0.00  0.00    +0.053 A 
ATOM     32  C   UNL     1       3.638   4.568   7.640  0.00  0.00    +0.165 A 
ATOM     33  C   UNL     1       4.072   5.838   8.001  0.00  0.00    +0.204 A 
ATOM     34  C   UNL     1       4.028   6.872   7.073  0.00  0.00    +0.165 A 
ATOM     35  C   UNL     1       3.553   6.633   5.793  0.00  0.00    +0.053 A 
BRANCH  34  36
ATOM     36  O   UNL     1       4.452   8.117   7.421  0.00  0.00    -0.491 OA
ATOM     37  C   UNL     1       4.380   9.131   6.417  0.00  0.00    +0.277 C 
ENDBRANCH  34  36
BRANCH  33  38
ATOM     38  O   UNL     1       4.538   6.069   9.258  0.00  0.00    -0.488 OA
ATOM     39  C   UNL     1       3.582   6.473  10.241  0.00  0.00    +0.277 C 
ENDBRANCH  33  38
BRANCH  32  40
ATOM     40  O   UNL     1       3.678   3.553   8.544  0.00  0.00    -0.491 OA
ATOM     41  C   UNL     1       3.216   2.274   8.105  0.00  0.00    +0.277 C 
ENDBRANCH  32  40
ENDBRANCH   5  30
TORSDOF 8
