REMARK  Name = ZINC04783877
REMARK  8 active torsions:
REMARK  status: ('A' for Active; 'I' for Inactive)
REMARK    1  A    between atoms: C_1  and  C_2
REMARK    2  A    between atoms: C_2  and  C_3
REMARK    3  A    between atoms: C_2  and  C_4
REMARK    4  A    between atoms: C_2  and  C_5
REMARK    5  A    between atoms: C_14  and  O_30
REMARK    6  A    between atoms: C_16  and  C_19
REMARK    7  A    between atoms: C_20  and  C_21
REMARK    8  A    between atoms: C_24  and  N_27
REMARK                            x       y       z     vdW  Elec       q    Type
REMARK                         _______ _______ _______ _____ _____    ______ ____
ROOT
ATOM      1  C   UNL     1       0.718  -0.497  -1.257  0.00  0.00    -0.000 C 
ATOM      2  C   UNL     1       0.746  -2.029  -1.264  0.00  0.00    +0.009 C 
ATOM      3  C   UNL     1       1.234  -2.534  -2.624  0.00  0.00    +0.037 C 
ATOM      4  C   UNL     1       2.549  -1.844  -2.958  0.00  0.00    -0.023 A 
ATOM      5  C   UNL     1       2.922  -0.707  -2.327  0.00  0.00    -0.004 A 
ATOM      6  S   UNL     1       4.491  -0.289  -3.038  0.00  0.00    -0.078 S 
ATOM      7  C   UNL     1       4.651  -1.547  -4.106  0.00  0.00    +0.080 A 
ATOM      8  C   UNL     1       3.496  -2.321  -3.949  0.00  0.00    +0.068 A 
ATOM      9  C   UNL     1       3.358  -3.527  -4.806  0.00  0.00    +0.220 C 
ATOM     10  N   UNL     1       4.413  -3.930  -5.460  0.00  0.00    -0.223 NA
ATOM     11  C   UNL     1       5.731  -3.316  -5.360  0.00  0.00    +0.217 C 
ATOM     12  N   UNL     1       5.640  -1.889  -5.001  0.00  0.00    -0.313 N 
ATOM     13  C   UNL     1       2.161   0.028  -1.267  0.00  0.00    +0.046 C 
ATOM     14  H   UNL     1       6.244  -1.228  -5.374  0.00  0.00    +0.149 HD
ENDROOT
BRANCH   1  16
ATOM     15  C   UNL     1      -0.019   1.526   0.010  0.00  0.00    +0.011 C 
ATOM     16  C   UNL     1       0.002  -0.004   0.002  0.00  0.00    -0.035 C 
ATOM     17  C   UNL     1       0.742  -0.511   1.242  0.00  0.00    +0.011 C 
ATOM     18  C   UNL     1      -1.433  -0.534   0.013  0.00  0.00    +0.011 C 
ENDBRANCH   1  16
BRANCH  11  19
ATOM     19  C   UNL     1       6.530  -4.037  -4.305  0.00  0.00    +0.019 C 
ATOM     20  C   UNL     1       7.671  -4.631  -4.628  0.00  0.00    +0.007 C 
BRANCH  20  21
ATOM     21  C   UNL     1       8.455  -5.338  -3.594  0.00  0.00    -0.025 A 
ATOM     22  C   UNL     1       7.994  -5.387  -2.277  0.00  0.00    +0.010 A 
ATOM     23  C   UNL     1       8.731  -6.049  -1.317  0.00  0.00    +0.033 A 
ATOM     24  C   UNL     1       9.923  -6.663  -1.656  0.00  0.00    +0.126 A 
ATOM     25  C   UNL     1      10.386  -6.617  -2.959  0.00  0.00    +0.033 A 
ATOM     26  C   UNL     1       9.655  -5.964  -3.930  0.00  0.00    +0.010 A 
BRANCH  24  27
ATOM     27  N   UNL     1      10.708  -7.371  -0.620  0.00  0.00    +0.056 N 
ATOM     28  O   UNL     1      10.307  -7.412   0.520  0.00  0.00    -0.126 OA
ATOM     29  O   UNL     1      11.751  -7.908  -0.913  0.00  0.00    -0.126 OA
ENDBRANCH  24  27
ENDBRANCH  20  21
ENDBRANCH  11  19
BRANCH   9  30
ATOM     30  O   UNL     1       2.180  -4.186  -4.903  0.00  0.00    -0.492 OA
ATOM     31  H   UNL     1       2.207  -4.956  -5.488  0.00  0.00    +0.294 HD
ENDBRANCH   9  30
TORSDOF 5
