REMARK  Name = ZINC67500303
REMARK  7 active torsions:
REMARK  status: ('A' for Active; 'I' for Inactive)
REMARK    1  A    between atoms: C_3  and  S_16
REMARK    2  A    between atoms: C_6  and  C_7
REMARK    3  A    between atoms: C_7  and  N_8
REMARK    4  A    between atoms: N_8  and  C_9
REMARK    5  A    between atoms: S_16  and  N_19
REMARK    6  A    between atoms: N_19  and  C_20
REMARK    7  A    between atoms: C_20  and  C_21
REMARK                            x       y       z     vdW  Elec       q    Type
REMARK                         _______ _______ _______ _____ _____    ______ ____
ROOT
ATOM      1  C   UNL     1      -0.060   1.447  -0.060  0.00  0.00    +0.003 A 
ATOM      2  C   UNL     1       1.131   2.148  -0.060  0.00  0.00    +0.029 A 
ATOM      3  C   UNL     1       2.333   1.469   0.013  0.00  0.00    +0.105 A 
ATOM      4  C   UNL     1       2.344   0.089   0.085  0.00  0.00    +0.029 A 
ATOM      5  C   UNL     1       1.153  -0.613   0.085  0.00  0.00    +0.003 A 
ATOM      6  C   UNL     1      -0.049   0.066   0.011  0.00  0.00    -0.064 A 
ENDROOT
BRANCH   3   7
ATOM      7  S   UNL     1       3.852   2.364   0.012  0.00  0.00    +0.058 S 
ATOM      8  O   UNL     1       4.849   1.470  -0.462  0.00  0.00    -0.153 OA
ATOM      9  O   UNL     1       3.588   3.612  -0.613  0.00  0.00    -0.153 OA
BRANCH   7  10
ATOM     10  N   UNL     1       4.225   2.695   1.591  0.00  0.00    -0.187 NA
ATOM     11  H   UNL     1       4.244   3.613   1.903  0.00  0.00    +0.148 HD
BRANCH  10  12
ATOM     12  C   UNL     1       4.527   1.601   2.518  0.00  0.00    +0.137 C 
BRANCH  12  13
ATOM     13  C   UNL     1       5.190   2.166   3.775  0.00  0.00    +0.134 C 
ATOM     14  C   UNL     1       5.550   1.020   4.755  0.00  0.00    +0.035 C 
ATOM     15  C   UNL     1       6.710   1.670   5.556  0.00  0.00    +0.031 C 
ATOM     16  C   UNL     1       7.398   2.545   4.485  0.00  0.00    +0.160 C 
ATOM     17  O   UNL     1       6.443   2.784   3.442  0.00  0.00    -0.375 OA
ENDBRANCH  12  13
ENDBRANCH  10  12
ENDBRANCH   7  10
ENDBRANCH   3   7
BRANCH   6  18
ATOM     18  C   UNL     1      -1.347  -0.698   0.011  0.00  0.00    -0.046 C 
BRANCH  18  19
ATOM     19  N   UNL     1      -1.727  -1.018  -1.371  0.00  0.00    +0.384 N 
ATOM     20  H   UNL     1      -1.925  -0.165  -1.872  0.00  0.00    -0.085 HD
ATOM     21  H   UNL     1      -0.968  -1.506  -1.824  0.00  0.00    -0.085 HD
BRANCH  19  22
ATOM     22  C   UNL     1      -2.923  -1.871  -1.366  0.00  0.00    -0.071 C 
ATOM     23  C   UNL     1      -3.178  -2.384  -2.798  0.00  0.00    -0.016 C 
ATOM     24  C   UNL     1      -4.040  -3.614  -2.719  0.00  0.00    -0.002 C 
ATOM     25  C   UNL     1      -5.539  -3.294  -2.874  0.00  0.00    -0.000 C 
ATOM     26  C   UNL     1      -5.963  -2.029  -2.104  0.00  0.00    -0.000 C 
ATOM     27  C   UNL     1      -5.333  -1.948  -0.739  0.00  0.00    -0.002 C 
ATOM     28  C   UNL     1      -4.045  -1.106  -0.843  0.00  0.00    -0.016 C 
ENDBRANCH  19  22
ENDBRANCH  18  19
ENDBRANCH   6  18
TORSDOF 7
