REMARK  Name = ZINC21220724
REMARK  9 active torsions:
REMARK  status: ('A' for Active; 'I' for Inactive)
REMARK    1  A    between atoms: C_1  and  C_2
REMARK    2  A    between atoms: C_2  and  O_3
REMARK    3  A    between atoms: O_3  and  C_4
REMARK    4  A    between atoms: C_7  and  C_12
REMARK    5  A    between atoms: C_9  and  O_10
REMARK    6  A    between atoms: O_10  and  C_11
REMARK    7  A    between atoms: C_17  and  C_27
REMARK    8  A    between atoms: C_30  and  O_34
REMARK    9  A    between atoms: O_34  and  C_35
REMARK                            x       y       z     vdW  Elec       q    Type
REMARK                         _______ _______ _______ _____ _____    ______ ____
ROOT
ATOM      1  C   UNL     1       1.589  -0.459   0.540  0.00  0.00    +0.032 C 
ATOM      2  C   UNL     1       2.721   0.276  -0.177  0.00  0.00    +0.059 C 
ATOM      3  C   UNL     1       2.513   1.778  -0.067  0.00  0.00    +0.017 C 
ATOM      4  C   UNL     1       1.272   2.292  -0.036  0.00  0.00    +0.036 C 
ATOM      5  C   UNL     1       0.922   3.759   0.049  0.00  0.00    +0.136 C 
ATOM      6  N   UNL     1       2.040   4.623   0.365  0.00  0.00    -0.331 N 
ATOM      7  C   UNL     1       3.116   4.760  -0.510  0.00  0.00    +0.049 A 
ATOM      8  C   UNL     1       3.360   5.950  -1.175  0.00  0.00    +0.025 A 
ATOM      9  C   UNL     1       4.374   6.007  -2.116  0.00  0.00    +0.002 A 
ATOM     10  C   UNL     1       5.138   4.888  -2.390  0.00  0.00    +0.002 A 
ATOM     11  C   UNL     1       4.910   3.703  -1.712  0.00  0.00    +0.025 A 
ATOM     12  C   UNL     1       3.909   3.649  -0.758  0.00  0.00    +0.052 A 
ATOM     13  N   UNL     1       3.657   2.506  -0.008  0.00  0.00    -0.316 N 
ATOM     14  C   UNL     1       0.145   1.437  -0.080  0.00  0.00    +0.163 C 
ATOM     15  O   UNL     1      -0.965   1.931  -0.081  0.00  0.00    -0.292 OA
ATOM     16  C   UNL     1       0.272  -0.056  -0.133  0.00  0.00    +0.088 C 
ATOM     17  H   UNL     1       2.049   5.187   1.310  0.00  0.00    +0.147 HD
ATOM     18  H   UNL     1       4.468   2.203   0.670  0.00  0.00    +0.152 HD
ENDROOT
BRANCH   5  19
ATOM     19  C   UNL     1       0.344   4.189  -1.274  0.00  0.00    -0.021 A 
ATOM     20  C   UNL     1       1.134   4.179  -2.409  0.00  0.00    +0.009 A 
ATOM     21  C   UNL     1       0.606   4.573  -3.623  0.00  0.00    +0.047 A 
ATOM     22  C   UNL     1      -0.718   4.979  -3.704  0.00  0.00    +0.138 A 
ATOM     23  C   UNL     1      -1.509   4.989  -2.564  0.00  0.00    +0.083 A 
ATOM     24  C   UNL     1      -0.977   4.588  -1.352  0.00  0.00    +0.029 A 
ATOM     25 CL   UNL     1      -3.166   5.496  -2.661  0.00  0.00    -0.080 Cl
BRANCH  22  26
ATOM     26  O   UNL     1      -1.239   5.366  -4.898  0.00  0.00    -0.494 OA
ATOM     27  C   UNL     1      -0.366   5.330  -6.029  0.00  0.00    +0.277 C 
ENDBRANCH  22  26
ENDBRANCH   5  19
BRANCH   1  31
ATOM     28  C   UNL     1       2.159  -4.684   0.194  0.00  0.00    +0.162 A 
ATOM     29  C   UNL     1       2.048  -3.901  -0.944  0.00  0.00    +0.050 A 
ATOM     30  C   UNL     1       1.864  -2.536  -0.829  0.00  0.00    +0.008 A 
ATOM     31  C   UNL     1       1.790  -1.948   0.420  0.00  0.00    -0.040 A 
ATOM     32  C   UNL     1       1.904  -2.723   1.560  0.00  0.00    +0.053 A 
ATOM     33  C   UNL     1       2.083  -4.092   1.451  0.00  0.00    +0.162 A 
BRANCH  33  34
ATOM     34  O   UNL     1       2.191  -4.856   2.571  0.00  0.00    -0.491 OA
ATOM     35  C   UNL     1       2.104  -4.181   3.828  0.00  0.00    +0.277 C 
ENDBRANCH  33  34
BRANCH  28  36
ATOM     36  O   UNL     1       2.340  -6.027   0.082  0.00  0.00    -0.489 OA
BRANCH  36  38
ATOM     37  C   UNL     1       2.614  -8.079  -1.165  0.00  0.00    +0.048 C 
ATOM     38  C   UNL     1       2.409  -6.564  -1.240  0.00  0.00    +0.226 C 
ENDBRANCH  36  38
ENDBRANCH  28  36
ENDBRANCH   1  31
TORSDOF 6
