REMARK  Name = ZINC09273071
REMARK  5 active torsions:
REMARK  status: ('A' for Active; 'I' for Inactive)
REMARK    1  A    between atoms: C_1  and  C_2
REMARK    2  A    between atoms: C_5  and  C_8
REMARK    3  A    between atoms: C_13  and  C_33
REMARK    4  A    between atoms: C_23  and  C_25
REMARK    5  A    between atoms: C_26  and  C_27
REMARK                            x       y       z     vdW  Elec       q    Type
REMARK                         _______ _______ _______ _____ _____    ______ ____
ROOT
ATOM      1  C   UNL     1      -0.631  -2.596  -1.125  0.00  0.00    +0.032 C 
ATOM      2  C   UNL     1       0.450  -2.391  -0.066  0.00  0.00    +0.059 C 
ATOM      3  C   UNL     1       0.768  -0.911   0.071  0.00  0.00    +0.017 C 
ATOM      4  C   UNL     1      -0.189   0.011  -0.118  0.00  0.00    +0.037 C 
ATOM      5  C   UNL     1      -0.018   1.506   0.010  0.00  0.00    +0.148 C 
ATOM      6  N   UNL     1       1.358   1.945   0.107  0.00  0.00    -0.254 N 
ATOM      7  C   UNL     1       2.153   1.591   1.198  0.00  0.00    +0.059 A 
ATOM      8  C   UNL     1       2.580   2.535   2.118  0.00  0.00    +0.025 A 
ATOM      9  C   UNL     1       3.274   2.122   3.242  0.00  0.00    +0.002 A 
ATOM     10  C   UNL     1       3.542   0.781   3.447  0.00  0.00    +0.002 A 
ATOM     11  C   UNL     1       3.136  -0.162   2.518  0.00  0.00    +0.025 A 
ATOM     12  C   UNL     1       2.456   0.250   1.385  0.00  0.00    +0.053 A 
ATOM     13  N   UNL     1       2.058  -0.637   0.393  0.00  0.00    -0.316 N 
ATOM     14  C   UNL     1       1.880   2.709  -0.873  0.00  0.00    +0.245 C 
ATOM     15  O   UNL     1       1.196   3.023  -1.829  0.00  0.00    -0.270 OA
ATOM     16  C   UNL     1      -1.500  -0.385  -0.476  0.00  0.00    +0.163 C 
ATOM     17  O   UNL     1      -2.350   0.470  -0.626  0.00  0.00    -0.292 OA
ATOM     18  C   UNL     1      -1.877  -1.823  -0.676  0.00  0.00    +0.088 C 
ATOM     19  H   UNL     1       2.753  -1.095  -0.105  0.00  0.00    +0.152 HD
ENDROOT
BRANCH   1  24
ATOM     20  C   UNL     1      -1.879  -8.219  -1.595  0.00  0.00    +0.044 C 
ATOM     21  C   UNL     1      -1.553  -6.752  -1.473  0.00  0.00    -0.050 A 
ATOM     22  C   UNL     1      -1.110  -6.048  -2.576  0.00  0.00    +0.003 A 
ATOM     23  C   UNL     1      -0.811  -4.703  -2.464  0.00  0.00    +0.004 A 
ATOM     24  C   UNL     1      -0.956  -4.062  -1.248  0.00  0.00    -0.043 A 
ATOM     25  C   UNL     1      -1.395  -4.767  -0.143  0.00  0.00    +0.004 A 
ATOM     26  C   UNL     1      -1.698  -6.112  -0.256  0.00  0.00    +0.003 A 
ENDBRANCH   1  24
BRANCH   5  27
ATOM     27  C   UNL     1      -0.755   1.968   1.241  0.00  0.00    -0.004 A 
ATOM     28  C   UNL     1      -0.362   1.534   2.498  0.00  0.00    +0.009 A 
ATOM     29  C   UNL     1      -1.067   1.988   3.603  0.00  0.00    +0.020 A 
ATOM     30  C   UNL     1      -2.136   2.843   3.415  0.00  0.00    +0.111 A 
ATOM     31  N   UNL     1      -2.484   3.231   2.204  0.00  0.00    -0.263 NA
ATOM     32  C   UNL     1      -1.834   2.824   1.131  0.00  0.00    +0.116 A 
ENDBRANCH   5  27
BRANCH  14  33
ATOM     33  C   UNL     1       3.270   3.159  -0.787  0.00  0.00    +0.068 C 
ATOM     34  C   UNL     1       3.793   3.923  -1.768  0.00  0.00    +0.013 C 
BRANCH  34  35
ATOM     35  C   UNL     1       5.191   4.376  -1.682  0.00  0.00    -0.025 A 
ATOM     36  C   UNL     1       5.978   4.022  -0.582  0.00  0.00    +0.008 A 
ATOM     37  C   UNL     1       7.288   4.446  -0.511  0.00  0.00    +0.001 A 
ATOM     38  C   UNL     1       7.821   5.231  -1.520  0.00  0.00    +0.000 A 
ATOM     39  C   UNL     1       7.046   5.590  -2.609  0.00  0.00    +0.001 A 
ATOM     40  C   UNL     1       5.736   5.169  -2.697  0.00  0.00    +0.008 A 
ENDBRANCH  34  35
ENDBRANCH  14  33
TORSDOF 4
