REMARK  Name = ZINC39862127
REMARK  9 active torsions:
REMARK  status: ('A' for Active; 'I' for Inactive)
REMARK    1  A    between atoms: C_3  and  C_16
REMARK    2  A    between atoms: C_5  and  O_7
REMARK    3  A    between atoms: O_7  and  C_8
REMARK    4  A    between atoms: C_8  and  C_9
REMARK    5  A    between atoms: N_20  and  C_24
REMARK    6  A    between atoms: C_24  and  C_26
REMARK    7  A    between atoms: C_24  and  C_31
REMARK    8  A    between atoms: C_26  and  C_27
REMARK    9  A    between atoms: C_27  and  C_28
REMARK                            x       y       z     vdW  Elec       q    Type
REMARK                         _______ _______ _______ _____ _____    ______ ____
ROOT
ATOM      1  C   UNL     1       3.651   2.163  -0.022  0.00  0.00    +0.028 C 
ATOM      2  C   UNL     1       3.634   3.515  -0.117  0.00  0.00    +0.077 C 
ATOM      3  C   UNL     1       4.759   4.466  -0.250  0.00  0.00    +0.259 C 
ATOM      4  O   UNL     1       5.914   4.087  -0.289  0.00  0.00    -0.269 OA
ATOM      5  N   UNL     1       4.444   5.748  -0.324  0.00  0.00    -0.241 N 
ATOM      6  C   UNL     1       3.162   6.163  -0.280  0.00  0.00    +0.121 C 
ATOM      7  S   UNL     1       2.559   7.763  -0.361  0.00  0.00    -0.027 S 
ATOM      8  S   UNL     1       2.244   4.639  -0.125  0.00  0.00    -0.061 S 
ENDROOT
BRANCH   1  11
ATOM      9  C   UNL     1       1.220  -0.647   0.495  0.00  0.00    +0.004 A 
ATOM     10  C   UNL     1       2.384   0.035   0.206  0.00  0.00    +0.008 A 
ATOM     11  C   UNL     1       2.413   1.431   0.285  0.00  0.00    -0.020 A 
ATOM     12  C   UNL     1       1.260   2.129   0.658  0.00  0.00    +0.053 A 
ATOM     13  C   UNL     1       0.099   1.432   0.946  0.00  0.00    +0.122 A 
ATOM     14  C   UNL     1       0.081   0.045   0.864  0.00  0.00    +0.046 A 
BRANCH  13  15
ATOM     15  O   UNL     1      -1.024   2.105   1.309  0.00  0.00    -0.487 OA
BRANCH  15  16
ATOM     16  C   UNL     1      -2.186   1.323   1.592  0.00  0.00    +0.264 C 
BRANCH  16  17
ATOM     17  C   UNL     1      -3.324   2.234   1.974  0.00  0.00    -0.010 A 
ATOM     18  C   UNL     1      -3.515   2.584   3.297  0.00  0.00    +0.008 A 
ATOM     19  C   UNL     1      -4.558   3.420   3.648  0.00  0.00    +0.020 A 
ATOM     20  C   UNL     1      -5.412   3.906   2.675  0.00  0.00    +0.041 A 
ATOM     21  C   UNL     1      -5.221   3.555   1.350  0.00  0.00    +0.020 A 
ATOM     22  C   UNL     1      -4.174   2.724   1.000  0.00  0.00    +0.008 A 
ATOM     23 CL   UNL     1      -6.724   4.955   3.115  0.00  0.00    -0.084 Cl
ENDBRANCH  16  17
ENDBRANCH  15  16
ENDBRANCH  13  15
ENDBRANCH   1  11
BRANCH   5  24
ATOM     24  C   UNL     1       5.513   6.741  -0.456  0.00  0.00    +0.196 C 
BRANCH  24  25
ATOM     25  C   UNL     1       5.466   7.689   0.714  0.00  0.00    +0.376 C 
ATOM     26  O   UNL     1       4.618   7.548   1.579  0.00  0.00    -0.244 OA
ATOM     27  O   UNL     1       6.276   8.596   0.797  0.00  0.00    -0.244 OA
ENDBRANCH  24  25
BRANCH  24  28
ATOM     28  C   UNL     1       5.323   7.525  -1.756  0.00  0.00    +0.044 C 
BRANCH  28  29
ATOM     29  C   UNL     1       5.495   6.583  -2.950  0.00  0.00    +0.098 C 
BRANCH  29  30
ATOM     30  C   UNL     1       5.308   7.356  -4.230  0.00  0.00    +0.211 C 
ATOM     31  O   UNL     1       5.061   8.543  -4.191  0.00  0.00    -0.276 OA
ATOM     32  N   UNL     1       5.415   6.728  -5.418  0.00  0.00    -0.329 N 
ATOM     33  H   UNL     1       5.612   5.779  -5.448  0.00  0.00    +0.145 HD
ATOM     34  H   UNL     1       5.294   7.225  -6.242  0.00  0.00    +0.145 HD
ENDBRANCH  29  30
ENDBRANCH  28  29
ENDBRANCH  24  28
ENDBRANCH   5  24
TORSDOF 9
