REMARK  Name = ZINC39921269
REMARK  9 active torsions:
REMARK  status: ('A' for Active; 'I' for Inactive)
REMARK    1  A    between atoms: C_1  and  C_2
REMARK    2  A    between atoms: C_2  and  O_3
REMARK    3  A    between atoms: O_3  and  C_4
REMARK    4  A    between atoms: C_7  and  C_10
REMARK    5  A    between atoms: C_25  and  N_32
REMARK    6  A    between atoms: C_26  and  C_27
REMARK    7  A    between atoms: C_27  and  O_29
REMARK    8  A    between atoms: O_29  and  C_30
REMARK    9  A    between atoms: C_30  and  C_31
REMARK                            x       y       z     vdW  Elec       q    Type
REMARK                         _______ _______ _______ _____ _____    ______ ____
ROOT
ATOM      1  C   UNL     1      -1.980  -6.240   0.021  0.00  0.00    +0.080 C 
ATOM      2  C   UNL     1      -2.809  -6.644   1.244  0.00  0.00    +0.154 C 
ATOM      3  C   UNL     1      -4.208  -6.116   0.975  0.00  0.00    +0.129 C 
ATOM      4  C   UNL     1      -4.750  -5.214   1.878  0.00  0.00    +0.035 A 
ATOM      5  C   UNL     1      -6.050  -4.695   1.705  0.00  0.00    +0.013 A 
ATOM      6  C   UNL     1      -6.549  -3.816   2.616  0.00  0.00    +0.001 A 
ATOM      7  C   UNL     1      -5.802  -3.414   3.719  0.00  0.00    +0.002 A 
ATOM      8  C   UNL     1      -4.540  -3.877   3.938  0.00  0.00    +0.024 A 
ATOM      9  C   UNL     1      -3.959  -4.787   3.039  0.00  0.00    +0.044 A 
ATOM     10  N   UNL     1      -2.716  -5.236   3.250  0.00  0.00    -0.284 N 
ATOM     11  C   UNL     1      -2.091  -6.116   2.466  0.00  0.00    +0.229 C 
ATOM     12  O   UNL     1      -0.960  -6.489   2.717  0.00  0.00    -0.275 OA
ATOM     13  O   UNL     1      -4.847  -6.533  -0.121  0.00  0.00    -0.445 OA
ATOM     14  C   UNL     1      -4.109  -6.635  -1.250  0.00  0.00    +0.194 C 
ATOM     15  C   UNL     1      -2.761  -6.514  -1.234  0.00  0.00    +0.102 C 
ATOM     16  H   UNL     1      -2.238  -4.907   4.027  0.00  0.00    +0.155 HD
ENDROOT
BRANCH   1  20
ATOM     17  C   UNL     1      -1.061  -2.072   0.240  0.00  0.00    +0.121 A 
ATOM     18  C   UNL     1      -0.037  -3.008   0.207  0.00  0.00    +0.046 A 
ATOM     19  C   UNL     1      -0.337  -4.355   0.137  0.00  0.00    +0.008 A 
ATOM     20  C   UNL     1      -1.656  -4.770   0.098  0.00  0.00    -0.038 A 
ATOM     21  C   UNL     1      -2.677  -3.839   0.131  0.00  0.00    +0.008 A 
ATOM     22  C   UNL     1      -2.383  -2.491   0.208  0.00  0.00    +0.046 A 
BRANCH  17  23
ATOM     23  O   UNL     1      -0.768  -0.747   0.310  0.00  0.00    -0.492 OA
BRANCH  23  25
ATOM     24  C   UNL     1       0.745   1.134   0.419  0.00  0.00    +0.048 C 
ATOM     25  C   UNL     1       0.615  -0.388   0.340  0.00  0.00    +0.225 C 
ENDBRANCH  23  25
ENDBRANCH  17  23
ENDBRANCH   1  20
BRANCH  14  26
ATOM     26  N   UNL     1      -4.742  -6.868  -2.441  0.00  0.00    -0.329 N 
ATOM     27  H   UNL     1      -5.697  -7.039  -2.457  0.00  0.00    +0.145 HD
ATOM     28  H   UNL     1      -4.237  -6.862  -3.269  0.00  0.00    +0.145 HD
ENDBRANCH  14  26
BRANCH  15  29
ATOM     29  C   UNL     1      -2.062  -6.650  -2.445  0.00  0.00    +0.341 C 
ATOM     30  O   UNL     1      -1.497  -7.697  -2.707  0.00  0.00    -0.245 OA
BRANCH  29  31
ATOM     31  O   UNL     1      -2.017  -5.621  -3.318  0.00  0.00    -0.462 OA
BRANCH  31  32
ATOM     32  C   UNL     1      -1.287  -5.829  -4.529  0.00  0.00    +0.229 C 
ATOM     33  C   UNL     1      -1.348  -4.563  -5.385  0.00  0.00    +0.048 C 
ENDBRANCH  31  32
ENDBRANCH  29  31
ENDBRANCH  15  29
TORSDOF 7
