REMARK  Name = ZINC20611689
REMARK  6 active torsions:
REMARK  status: ('A' for Active; 'I' for Inactive)
REMARK    1  A    between atoms: C_1  and  C_2
REMARK    2  A    between atoms: C_2  and  C_3
REMARK    3  A    between atoms: C_2  and  C_4
REMARK    4  A    between atoms: C_4  and  C_5
REMARK    5  A    between atoms: N_13  and  C_16
REMARK    6  A    between atoms: C_16  and  C_17
REMARK                            x       y       z     vdW  Elec       q    Type
REMARK                         _______ _______ _______ _____ _____    ______ ____
ROOT
ATOM      1  C   UNL     1      -1.344  -2.074   0.001  0.00  0.00    +0.068 C 
ATOM      2  C   UNL     1      -2.782  -2.588  -0.226  0.00  0.00    +0.107 C 
ATOM      3  C   UNL     1      -2.904  -3.842   0.684  0.00  0.00    +0.122 C 
ATOM      4  C   UNL     1      -3.054  -4.976  -0.304  0.00  0.00    +0.229 C 
ATOM      5  O   UNL     1      -3.174  -6.147  -0.013  0.00  0.00    -0.275 OA
ATOM      6  N   UNL     1      -3.035  -4.487  -1.549  0.00  0.00    -0.237 N 
ATOM      7  C   UNL     1      -2.893  -3.144  -1.628  0.00  0.00    +0.227 C 
ATOM      8  O   UNL     1      -2.857  -2.487  -2.647  0.00  0.00    -0.275 OA
ATOM      9  C   UNL     1      -1.551  -3.934   1.400  0.00  0.00    +0.136 C 
ATOM     10  N   UNL     1      -0.960  -2.590   1.342  0.00  0.00    -0.295 NA
ATOM     11  C   UNL     1      -1.708  -4.422   2.813  0.00  0.00    +0.003 A 
ATOM     12  C   UNL     1      -2.403  -3.953   3.905  0.00  0.00    +0.008 A 
ATOM     13  C   UNL     1      -2.351  -4.639   5.106  0.00  0.00    +0.000 A 
ATOM     14  C   UNL     1      -1.601  -5.796   5.205  0.00  0.00    +0.002 A 
ATOM     15  C   UNL     1      -0.903  -6.270   4.113  0.00  0.00    +0.023 A 
ATOM     16  C   UNL     1      -0.950  -5.585   2.901  0.00  0.00    +0.039 A 
ATOM     17  N   UNL     1      -0.342  -5.859   1.673  0.00  0.00    -0.283 N 
ATOM     18  C   UNL     1      -0.645  -4.937   0.740  0.00  0.00    +0.243 C 
ATOM     19  O   UNL     1      -0.262  -4.919  -0.411  0.00  0.00    -0.273 OA
ATOM     20  H   UNL     1       0.044  -2.625   1.442  0.00  0.00    +0.123 HD
ATOM     21  H   UNL     1       0.233  -6.624   1.513  0.00  0.00    +0.155 HD
ENDROOT
BRANCH   1  22
ATOM     22  C   UNL     1      -1.318  -0.544  -0.007  0.00  0.00    +0.022 C 
BRANCH  22  24
ATOM     23  C   UNL     1       0.972  -0.466  -1.002  0.00  0.00    +0.007 C 
ATOM     24  C   UNL     1       0.117  -0.057   0.199  0.00  0.00    -0.016 C 
ATOM     25  C   UNL     1       0.124   1.467   0.335  0.00  0.00    +0.007 C 
ENDBRANCH  22  24
ENDBRANCH   1  22
BRANCH   6  26
ATOM     26  C   UNL     1      -3.164  -5.337  -2.736  0.00  0.00    +0.153 C 
BRANCH  26  27
ATOM     27  C   UNL     1      -4.622  -5.608  -3.003  0.00  0.00    -0.011 A 
ATOM     28  C   UNL     1      -5.208  -6.766  -2.526  0.00  0.00    +0.006 A 
ATOM     29  C   UNL     1      -6.545  -7.016  -2.771  0.00  0.00    +0.000 A 
ATOM     30  C   UNL     1      -7.297  -6.108  -3.493  0.00  0.00    +0.001 A 
ATOM     31  C   UNL     1      -6.713  -4.950  -3.970  0.00  0.00    +0.020 A 
ATOM     32  C   UNL     1      -5.375  -4.697  -3.720  0.00  0.00    +0.046 A 
ATOM     33 CL   UNL     1      -4.642  -3.240  -4.314  0.00  0.00    -0.083 Cl
ENDBRANCH  26  27
ENDBRANCH   6  26
TORSDOF 4
