REMARK  Name = ZINC63386501
REMARK  10 active torsions:
REMARK  status: ('A' for Active; 'I' for Inactive)
REMARK    1  A    between atoms: C_1  and  C_2
REMARK    2  A    between atoms: C_4  and  O_33
REMARK    3  A    between atoms: C_11  and  C_16
REMARK    4  A    between atoms: C_13  and  C_15
REMARK    5  A    between atoms: C_16  and  C_17
REMARK    6  A    between atoms: N_19  and  C_20
REMARK    7  A    between atoms: C_20  and  C_21
REMARK    8  A    between atoms: C_21  and  C_22
REMARK    9  A    between atoms: C_26  and  O_31
REMARK   10  A    between atoms: O_31  and  C_32
REMARK                            x       y       z     vdW  Elec       q    Type
REMARK                         _______ _______ _______ _____ _____    ______ ____
ROOT
ATOM      1  C   UNL     1       2.567  -5.320   2.633  0.00  0.00    +0.214 C 
ATOM      2  O   UNL     1       1.786  -5.846   3.396  0.00  0.00    -0.276 OA
ATOM      3  N   UNL     1       3.883  -5.297   2.925  0.00  0.00    -0.315 N 
ATOM      4  H   UNL     1       4.508  -4.876   2.315  0.00  0.00    +0.149 HD
ENDROOT
BRANCH   1   5
ATOM      5  C   UNL     1       2.068  -4.691   1.358  0.00  0.00    +0.111 C 
BRANCH   5  16
ATOM      6  C   UNL     1      -0.018   1.503   0.010  0.00  0.00    +0.044 C 
ATOM      7  C   UNL     1       0.002  -0.004   0.002  0.00  0.00    -0.044 A 
ATOM      8  C   UNL     1       0.006  -0.689  -1.198  0.00  0.00    +0.049 A 
ATOM      9  C   UNL     1       0.021  -2.075  -1.204  0.00  0.00    +0.124 A 
ATOM     10  C   UNL     1       0.035  -2.781  -0.006  0.00  0.00    +0.040 A 
ATOM     11  C   UNL     1       0.038  -2.092   1.193  0.00  0.00    +0.139 A 
ATOM     12  C   UNL     1       0.023  -0.701   1.193  0.00  0.00    +0.050 A 
ATOM     13  O   UNL     1       0.072  -2.738   2.391  0.00  0.00    -0.425 OA
ATOM     14  C   UNL     1      -0.117  -4.072   2.385  0.00  0.00    +0.317 C 
ATOM     15  O   UNL     1      -0.787  -4.620   3.228  0.00  0.00    -0.250 OA
ATOM     16  C   UNL     1       0.549  -4.854   1.270  0.00  0.00    +0.114 C 
ATOM     17  C   UNL     1       0.041  -4.287  -0.060  0.00  0.00    +0.037 C 
ATOM     18  C   UNL     1      -1.381  -4.792  -0.317  0.00  0.00    +0.013 C 
BRANCH   9  19
ATOM     19  O   UNL     1       0.022  -2.746  -2.386  0.00  0.00    -0.506 OA
ATOM     20  H   UNL     1       0.905  -2.931  -2.732  0.00  0.00    +0.292 HD
ENDBRANCH   9  19
ENDBRANCH   5  16
ENDBRANCH   1   5
BRANCH   3  21
ATOM     21  C   UNL     1       4.368  -5.909   4.165  0.00  0.00    +0.108 C 
BRANCH  21  22
ATOM     22  C   UNL     1       5.887  -5.746   4.253  0.00  0.00    +0.052 C 
BRANCH  22  23
ATOM     23  C   UNL     1       6.387  -6.375   5.528  0.00  0.00    -0.040 C 
ATOM     24  C   UNL     1       6.879  -7.625   5.678  0.00  0.00    -0.001 A 
ATOM     25  C   UNL     1       7.088  -8.730   4.733  0.00  0.00    +0.013 A 
ATOM     26  C   UNL     1       7.611  -9.890   5.185  0.00  0.00    +0.046 A 
ATOM     27  C   UNL     1       7.959 -10.066   6.538  0.00  0.00    +0.122 A 
ATOM     28  C   UNL     1       7.793  -9.089   7.466  0.00  0.00    +0.071 A 
ATOM     29  C   UNL     1       7.253  -7.833   7.096  0.00  0.00    +0.046 A 
ATOM     30  N   UNL     1       7.000  -6.750   7.795  0.00  0.00    -0.380 N 
ATOM     31  C   UNL     1       6.444  -5.733   6.896  0.00  0.00    +0.144 C 
ATOM     32  H   UNL     1       7.159  -6.640   8.746  0.00  0.00    +0.160 HD
BRANCH  27  33
ATOM     33  O   UNL     1       8.478 -11.255   6.928  0.00  0.00    -0.495 OA
ATOM     34  C   UNL     1       8.636 -12.257   5.921  0.00  0.00    +0.277 C 
ENDBRANCH  27  33
ENDBRANCH  22  23
ENDBRANCH  21  22
ENDBRANCH   3  21
TORSDOF 7
