REMARK  Name = ZINC32971925
REMARK  17 active torsions:
REMARK  status: ('A' for Active; 'I' for Inactive)
REMARK    1  A    between atoms: C_1  and  C_2
REMARK    2  A    between atoms: C_6  and  O_8
REMARK    3  A    between atoms: O_8  and  C_9
REMARK    4  A    between atoms: C_9  and  C_10
REMARK    5  A    between atoms: N_12  and  C_13
REMARK    6  A    between atoms: N_12  and  C_14
REMARK    7  A    between atoms: C_14  and  C_15
REMARK    8  A    between atoms: N_17  and  C_18
REMARK    9  A    between atoms: N_17  and  C_22
REMARK   10  A    between atoms: C_18  and  C_19
REMARK   11  A    between atoms: C_19  and  C_20
REMARK   12  A    between atoms: C_19  and  C_21
REMARK   13  A    between atoms: C_23  and  N_35
REMARK   14  A    between atoms: N_24  and  C_31
REMARK   15  A    between atoms: C_31  and  C_32
REMARK   16  A    between atoms: C_32  and  C_33
REMARK   17  A    between atoms: C_32  and  C_34
REMARK                            x       y       z     vdW  Elec       q    Type
REMARK                         _______ _______ _______ _____ _____    ______ ____
ROOT
ATOM      1  C   UNL     1      -0.241   3.305  -4.680  0.00  0.00    +0.237 C 
ATOM      2  O   UNL     1       0.826   3.880  -4.616  0.00  0.00    -0.274 OA
ATOM      3  N   UNL     1      -1.158   3.685  -5.594  0.00  0.00    -0.263 N 
ENDROOT
BRANCH   3   4
ATOM      4  C   UNL     1      -0.918   4.811  -6.409  0.00  0.00    +0.140 A 
ATOM      5  C   UNL     1      -0.743   6.059  -5.847  0.00  0.00    +0.127 A 
ATOM      6  N   UNL     1      -0.510   7.139  -6.667  0.00  0.00    -0.280 N 
ATOM      7  C   UNL     1      -0.453   6.980  -8.002  0.00  0.00    +0.331 A 
ATOM      8  O   UNL     1      -0.246   7.946  -8.710  0.00  0.00    -0.246 OA
ATOM      9  N   UNL     1      -0.621   5.771  -8.567  0.00  0.00    -0.273 N 
ATOM     10  H   UNL     1      -0.575   5.665  -9.661  0.00  0.00    +0.173 HD
ATOM     11  C   UNL     1      -0.846   4.681  -7.808  0.00  0.00    +0.277 A 
ATOM     12  O   UNL     1      -0.992   3.589  -8.331  0.00  0.00    -0.266 OA
BRANCH   5  13
ATOM     13  N   UNL     1      -0.801   6.222  -4.483  0.00  0.00    -0.343 N 
ATOM     14  H   UNL     1      -0.661   7.220  -4.042  0.00  0.00    +0.144 HD
ATOM     15  H   UNL     1      -0.989   5.354  -3.833  0.00  0.00    +0.144 HD
ENDBRANCH   5  13
BRANCH   6  16
ATOM     16  C   UNL     1      -0.322   8.469  -6.083  0.00  0.00    +0.131 C 
BRANCH  16  17
ATOM     17  C   UNL     1       1.163   8.694  -5.792  0.00  0.00    +0.003 C 
ATOM     18  C   UNL     1       1.944   8.715  -7.108  0.00  0.00    +0.009 C 
ATOM     19  C   UNL     1       1.345  10.030  -5.069  0.00  0.00    +0.009 C 
ENDBRANCH  16  17
ENDBRANCH   6  16
ENDBRANCH   3   4
BRANCH   1  20
ATOM     20  C   UNL     1      -0.542   2.169  -3.737  0.00  0.00    +0.203 C 
BRANCH  20  23
ATOM     21  C   UNL     1       0.679   2.610  -1.675  0.00  0.00    +0.253 C 
ATOM     22  O   UNL     1      -0.203   3.379  -1.353  0.00  0.00    -0.272 OA
ATOM     23  N   UNL     1       0.604   1.954  -2.850  0.00  0.00    -0.293 N 
ATOM     24  C   UNL     1       1.668   1.026  -3.239  0.00  0.00    +0.132 C 
BRANCH  21  25
ATOM     25  C   UNL     1       1.857   2.389  -0.762  0.00  0.00    +0.324 C 
BRANCH  25  26
ATOM     26  O   UNL     1       1.707   3.191   0.411  0.00  0.00    -0.481 OA
BRANCH  26  32
ATOM     27  C   UNL     1       5.960   1.283   1.859  0.00  0.00    +0.044 C 
ATOM     28  C   UNL     1       4.779   2.191   2.086  0.00  0.00    -0.047 A 
ATOM     29  C   UNL     1       4.697   2.940   3.245  0.00  0.00    +0.005 A 
ATOM     30  C   UNL     1       3.615   3.774   3.457  0.00  0.00    +0.024 A 
ATOM     31  C   UNL     1       2.611   3.860   2.509  0.00  0.00    +0.083 A 
ATOM     32  C   UNL     1       2.692   3.108   1.345  0.00  0.00    +0.140 A 
ATOM     33  C   UNL     1       3.777   2.269   1.138  0.00  0.00    +0.050 A 
ATOM     34 CL   UNL     1       1.252   4.907   2.775  0.00  0.00    -0.080 Cl
ENDBRANCH  26  32
ENDBRANCH  25  26
ENDBRANCH  21  25
ENDBRANCH  20  23
ENDBRANCH   1  20
BRANCH   3  35
ATOM     35  C   UNL     1      -2.402   2.926  -5.741  0.00  0.00    +0.117 C 
BRANCH  35  36
ATOM     36  C   UNL     1      -3.433   3.437  -4.732  0.00  0.00    +0.001 C 
ATOM     37  C   UNL     1      -3.819   4.876  -5.081  0.00  0.00    +0.009 C 
ATOM     38  C   UNL     1      -4.678   2.549  -4.780  0.00  0.00    +0.009 C 
ENDBRANCH  35  36
ENDBRANCH   3  35
TORSDOF 11
