REMARK  Name = ZINC13027701
REMARK  10 active torsions:
REMARK  status: ('A' for Active; 'I' for Inactive)
REMARK    1  A    between atoms: C_5  and  N_7
REMARK    2  A    between atoms: N_7  and  C_8
REMARK    3  A    between atoms: C_8  and  C_10
REMARK    4  A    between atoms: C_8  and  C_17
REMARK    5  A    between atoms: C_13  and  O_16
REMARK    6  A    between atoms: N_19  and  C_20
REMARK    7  A    between atoms: C_26  and  C_28
REMARK    8  A    between atoms: C_28  and  C_29
REMARK    9  A    between atoms: C_29  and  C_30
REMARK   10  A    between atoms: C_30  and  C_31
REMARK                            x       y       z     vdW  Elec       q    Type
REMARK                         _______ _______ _______ _____ _____    ______ ____
ROOT
ATOM      1  N   UNL     1       3.874  10.844  -0.025  0.00  0.00    -0.253 N 
ATOM      2  C   UNL     1       4.066   9.587   0.423  0.00  0.00    +0.221 C 
ATOM      3  O   UNL     1       5.059   9.317   1.066  0.00  0.00    -0.275 OA
ENDROOT
BRANCH   1   8
ATOM      4  C   UNL     1       0.380  11.635  -0.858  0.00  0.00    +0.002 A 
ATOM      5  C   UNL     1       0.462  11.773  -2.232  0.00  0.00    +0.003 A 
ATOM      6  C   UNL     1       1.673  11.603  -2.876  0.00  0.00    +0.040 A 
ATOM      7  C   UNL     1       2.809  11.299  -2.147  0.00  0.00    +0.145 A 
ATOM      8  C   UNL     1       2.728  11.155  -0.766  0.00  0.00    +0.073 A 
ATOM      9  C   UNL     1       1.509  11.327  -0.124  0.00  0.00    +0.026 A 
ATOM     10  F   UNL     1       3.994  11.138  -2.776  0.00  0.00    -0.204 F 
ENDBRANCH   1   8
BRANCH   1  11
ATOM     11  C   UNL     1       4.865  11.883   0.264  0.00  0.00    +0.197 C 
BRANCH  11  12
ATOM     12  C   UNL     1       4.943  12.104   1.752  0.00  0.00    -0.018 A 
ATOM     13  C   UNL     1       3.787  12.106   2.511  0.00  0.00    +0.009 A 
ATOM     14  C   UNL     1       3.856  12.302   3.877  0.00  0.00    +0.046 A 
ATOM     15  C   UNL     1       5.085  12.510   4.485  0.00  0.00    +0.117 A 
ATOM     16  C   UNL     1       6.243  12.513   3.721  0.00  0.00    +0.046 A 
ATOM     17  C   UNL     1       6.169  12.310   2.357  0.00  0.00    +0.009 A 
BRANCH  15  18
ATOM     18  O   UNL     1       5.155  12.710   5.828  0.00  0.00    -0.507 OA
ATOM     19  H   UNL     1       5.089  13.638   6.091  0.00  0.00    +0.292 HD
ENDBRANCH  15  18
ENDBRANCH  11  12
BRANCH  11  20
ATOM     20  C   UNL     1       4.459  13.167  -0.414  0.00  0.00    +0.239 C 
ATOM     21  O   UNL     1       3.293  13.503  -0.426  0.00  0.00    -0.273 OA
ATOM     22  N   UNL     1       5.390  13.940  -1.006  0.00  0.00    -0.311 N 
ATOM     23  H   UNL     1       6.322  13.671  -0.996  0.00  0.00    +0.149 HD
BRANCH  22  24
ATOM     24  C   UNL     1       4.995  15.188  -1.665  0.00  0.00    +0.073 C 
ATOM     25  C   UNL     1       4.544  14.888  -3.096  0.00  0.00    +0.022 C 
ATOM     26  C   UNL     1       4.131  16.191  -3.784  0.00  0.00    +0.002 C 
ATOM     27  C   UNL     1       5.322  17.151  -3.814  0.00  0.00    +0.000 C 
ATOM     28  C   UNL     1       5.773  17.451  -2.383  0.00  0.00    +0.002 C 
ATOM     29  C   UNL     1       6.185  16.148  -1.695  0.00  0.00    +0.022 C 
ENDBRANCH  22  24
ENDBRANCH  11  20
ENDBRANCH   1  11
BRANCH   2  30
ATOM     30  C   UNL     1       3.047   8.518   0.127  0.00  0.00    +0.097 C 
BRANCH  30  31
ATOM     31  C   UNL     1       3.502   7.194   0.744  0.00  0.00    +0.018 C 
BRANCH  31  32
ATOM     32  C   UNL     1       2.467   6.108   0.443  0.00  0.00    +0.096 C 
BRANCH  32  33
ATOM     33  C   UNL     1       2.916   4.804   1.051  0.00  0.00    +0.218 C 
ATOM     34  O   UNL     1       3.960   4.749   1.665  0.00  0.00    -0.275 OA
ATOM     35  N   UNL     1       2.156   3.699   0.912  0.00  0.00    -0.270 N 
ATOM     36  C   UNL     1       2.517   2.520   1.562  0.00  0.00    +0.125 A 
ATOM     37  C   UNL     1       1.662   1.423   1.523  0.00  0.00    +0.044 A 
ATOM     38  C   UNL     1       2.032   0.259   2.172  0.00  0.00    +0.005 A 
ATOM     39  C   UNL     1       3.249   0.231   2.841  0.00  0.00    +0.020 A 
ATOM     40  C   UNL     1       4.045   1.359   2.842  0.00  0.00    +0.113 A 
ATOM     41  N   UNL     1       3.668   2.454   2.211  0.00  0.00    -0.240 NA
ATOM     42  H   UNL     1       1.359   3.725   0.361  0.00  0.00    +0.156 HD
ENDBRANCH  32  33
ENDBRANCH  31  32
ENDBRANCH  30  31
ENDBRANCH   2  30
TORSDOF 10
