REMARK  Name = ZINC05531953
REMARK  5 active torsions:
REMARK  status: ('A' for Active; 'I' for Inactive)
REMARK    1  A    between atoms: C_8  and  C_11
REMARK    2  A    between atoms: C_11  and  O_13
REMARK    3  A    between atoms: O_13  and  C_14
REMARK    4  A    between atoms: C_14  and  C_15
REMARK    5  A    between atoms: N_17  and  C_18
REMARK                            x       y       z     vdW  Elec       q    Type
REMARK                         _______ _______ _______ _____ _____    ______ ____
ROOT
ATOM      1  O   UNL     1      -4.794   1.175  -0.280  0.00  0.00    -0.451 OA
ENDROOT
BRANCH   1   2
ATOM      2  C   UNL     1      -6.041   1.679  -0.380  0.00  0.00    +0.356 C 
ATOM      3  O   UNL     1      -6.210   2.883  -0.387  0.00  0.00    -0.243 OA
BRANCH   2  11
ATOM      4  C   UNL     1     -11.146  -1.506  -0.820  0.00  0.00    +0.001 A 
ATOM      5  C   UNL     1     -10.280  -2.591  -0.756  0.00  0.00    +0.002 A 
ATOM      6  C   UNL     1      -8.921  -2.400  -0.643  0.00  0.00    +0.026 A 
ATOM      7  C   UNL     1      -8.406  -1.107  -0.593  0.00  0.00    +0.047 A 
ATOM      8  C   UNL     1      -9.286  -0.009  -0.658  0.00  0.00    +0.000 A 
ATOM      9  C   UNL     1     -10.665  -0.230  -0.772  0.00  0.00    +0.010 A 
ATOM     10  C   UNL     1      -8.493   1.161  -0.580  0.00  0.00    +0.042 A 
ATOM     11  C   UNL     1      -7.194   0.774  -0.481  0.00  0.00    +0.125 A 
ATOM     12  N   UNL     1      -7.131  -0.606  -0.485  0.00  0.00    -0.349 N 
ATOM     13  H   UNL     1      -6.320  -1.135  -0.421  0.00  0.00    +0.166 HD
ENDBRANCH   2  11
ENDBRANCH   1   2
BRANCH   1  14
ATOM     14  C   UNL     1      -3.703   2.127  -0.184  0.00  0.00    +0.328 C 
BRANCH  14  15
ATOM     15  C   UNL     1      -2.396   1.385  -0.081  0.00  0.00    +0.255 C 
ATOM     16  O   UNL     1      -2.385   0.172  -0.088  0.00  0.00    -0.272 OA
ATOM     17  N   UNL     1      -1.238   2.069   0.019  0.00  0.00    -0.280 N 
ATOM     18  H   UNL     1      -1.252   3.035   0.105  0.00  0.00    +0.155 HD
BRANCH  17  19
ATOM     19  C   UNL     1      -0.016   1.385  -0.002  0.00  0.00    +0.069 A 
ATOM     20  C   UNL     1       0.075   0.144  -0.616  0.00  0.00    +0.027 A 
ATOM     21  C   UNL     1       1.283  -0.527  -0.641  0.00  0.00    +0.017 A 
ATOM     22  C   UNL     1       2.402   0.037  -0.053  0.00  0.00    +0.021 A 
ATOM     23  C   UNL     1       2.315   1.274   0.561  0.00  0.00    +0.055 A 
ATOM     24  C   UNL     1       1.109   1.950   0.589  0.00  0.00    +0.146 A 
ATOM     25  F   UNL     1       1.024   3.158   1.188  0.00  0.00    -0.204 F 
ATOM     26 BR   UNL     1       4.052  -0.884  -0.089  0.00  0.00    -0.050 Br
ENDBRANCH  17  19
ENDBRANCH  14  15
ENDBRANCH   1  14
TORSDOF 5
