REMARK  Name = ZINC31892754
REMARK  5 active torsions:
REMARK  status: ('A' for Active; 'I' for Inactive)
REMARK    1  A    between atoms: C_1  and  C_2
REMARK    2  A    between atoms: C_2  and  C_3
REMARK    3  A    between atoms: C_6  and  C_9
REMARK    4  A    between atoms: N_10  and  N_11
REMARK    5  A    between atoms: C_20  and  C_22
REMARK                            x       y       z     vdW  Elec       q    Type
REMARK                         _______ _______ _______ _____ _____    ______ ____
ROOT
ATOM      1  N   UNL     1       1.288  -2.905  -2.601  0.00  0.00    -0.205 N 
ATOM      2  C   UNL     1       0.165  -2.225  -2.162  0.00  0.00    +0.236 A 
ATOM      3  N   UNL     1      -0.481  -2.687  -1.108  0.00  0.00    -0.213 NA
ATOM      4  C   UNL     1      -1.572  -2.058  -0.652  0.00  0.00    +0.077 A 
ATOM      5  C   UNL     1      -2.283  -2.522   0.465  0.00  0.00    +0.030 A 
ATOM      6  C   UNL     1      -3.388  -1.846   0.888  0.00  0.00    +0.022 A 
ATOM      7  C   UNL     1      -3.825  -0.699   0.227  0.00  0.00    +0.042 A 
ATOM      8  C   UNL     1      -3.157  -0.221  -0.863  0.00  0.00    +0.032 A 
ATOM      9  C   UNL     1      -2.019  -0.892  -1.323  0.00  0.00    +0.028 A 
ATOM     10  C   UNL     1      -1.285  -0.443  -2.450  0.00  0.00    +0.084 A 
ATOM     11  N   UNL     1      -0.221  -1.139  -2.825  0.00  0.00    -0.213 NA
ATOM     12 CL   UNL     1      -5.237   0.133   0.799  0.00  0.00    -0.084 Cl
ATOM     13  H   UNL     1       1.844  -2.540  -3.478  0.00  0.00    +0.177 HD
ENDROOT
BRANCH  10  14
ATOM     14  C   UNL     1      -1.700   0.769  -3.192  0.00  0.00    +0.001 A 
ATOM     15  C   UNL     1      -1.682   0.776  -4.587  0.00  0.00    +0.010 A 
ATOM     16  C   UNL     1      -2.075   1.906  -5.274  0.00  0.00    +0.001 A 
ATOM     17  C   UNL     1      -2.477   3.035  -4.581  0.00  0.00    +0.000 A 
ATOM     18  C   UNL     1      -2.492   3.036  -3.198  0.00  0.00    +0.001 A 
ATOM     19  C   UNL     1      -2.106   1.910  -2.500  0.00  0.00    +0.010 A 
ENDBRANCH  10  14
BRANCH   1  21
ATOM     20  C   UNL     1       2.835  -4.625  -2.264  0.00  0.00    +0.138 C 
ATOM     21  N   UNL     1       1.718  -4.056  -1.928  0.00  0.00    -0.188 NA
BRANCH  20  25
ATOM     22  C   UNL     1       5.920  -2.341  -4.075  0.00  0.00    -0.048 A 
ATOM     23  C   UNL     1       4.865  -1.700  -3.450  0.00  0.00    +0.004 A 
ATOM     24  C   UNL     1       3.859  -2.436  -2.859  0.00  0.00    +0.010 A 
ATOM     25  C   UNL     1       3.907  -3.831  -2.893  0.00  0.00    -0.005 A 
ATOM     26  C   UNL     1       4.978  -4.472  -3.522  0.00  0.00    +0.010 A 
ATOM     27  C   UNL     1       5.974  -3.723  -4.113  0.00  0.00    +0.004 A 
BRANCH  22  29
ATOM     28  C   UNL     1       8.119  -1.260  -3.694  0.00  0.00    +0.009 C 
ATOM     29  C   UNL     1       7.015  -1.530  -4.719  0.00  0.00    +0.032 C 
ENDBRANCH  22  29
ENDBRANCH  20  25
ENDBRANCH   1  21
TORSDOF 4
