REMARK  Name = ZINC12275165
REMARK  14 active torsions:
REMARK  status: ('A' for Active; 'I' for Inactive)
REMARK    1  A    between atoms: C_1  and  O_2
REMARK    2  A    between atoms: O_2  and  C_3
REMARK    3  A    between atoms: C_6  and  C_11
REMARK    4  A    between atoms: C_8  and  O_9
REMARK    5  A    between atoms: O_9  and  C_10
REMARK    6  A    between atoms: C_11  and  O_36
REMARK    7  A    between atoms: C_15  and  C_34
REMARK    8  A    between atoms: C_16  and  C_22
REMARK    9  A    between atoms: C_24  and  O_32
REMARK   10  A    between atoms: C_25  and  O_30
REMARK   11  A    between atoms: C_26  and  O_28
REMARK   12  A    between atoms: O_28  and  C_29
REMARK   13  A    between atoms: O_30  and  C_31
REMARK   14  A    between atoms: O_32  and  C_33
REMARK                            x       y       z     vdW  Elec       q    Type
REMARK                         _______ _______ _______ _____ _____    ______ ____
ROOT
ATOM      1  C   UNL     1       2.489   1.046  -0.016  0.00  0.00    +0.175 C 
ATOM      2  C   UNL     1       2.885   0.721   1.435  0.00  0.00    +0.136 C 
ATOM      3  S   UNL     1       4.460   1.645   1.595  0.00  0.00    -0.104 S 
ATOM      4  C   UNL     1       4.544   2.349  -0.027  0.00  0.00    +0.087 C 
ATOM      5  C   UNL     1       5.473   3.202  -0.524  0.00  0.00    +0.065 C 
ATOM      6  C   UNL     1       5.287   3.723  -1.931  0.00  0.00    +0.071 C 
ATOM      7  C   UNL     1       4.567   2.686  -2.787  0.00  0.00    +0.110 C 
ATOM      8  C   UNL     1       3.369   2.121  -2.075  0.00  0.00    +0.224 C 
ATOM      9  O   UNL     1       2.338   1.907  -2.677  0.00  0.00    -0.275 OA
ATOM     10  N   UNL     1       3.460   1.850  -0.736  0.00  0.00    -0.231 N 
ENDROOT
BRANCH   1  14
ATOM     11  C   UNL     1      -1.237   3.144   0.029  0.00  0.00    +0.162 A 
ATOM     12  C   UNL     1      -0.043   3.847   0.022  0.00  0.00    +0.050 A 
ATOM     13  C   UNL     1       1.160   3.166   0.008  0.00  0.00    +0.012 A 
ATOM     14  C   UNL     1       1.175   1.783   0.000  0.00  0.00    +0.007 A 
ATOM     15  C   UNL     1      -0.013   1.076   0.008  0.00  0.00    +0.057 A 
ATOM     16  C   UNL     1      -1.222   1.752   0.017  0.00  0.00    +0.162 A 
BRANCH  11  18
ATOM     17  C   UNL     1      -2.361   5.240   0.050  0.00  0.00    +0.277 C 
ATOM     18  O   UNL     1      -2.421   3.812   0.043  0.00  0.00    -0.491 OA
ENDBRANCH  11  18
BRANCH  16  19
ATOM     19  O   UNL     1      -2.391   1.058   0.020  0.00  0.00    -0.491 OA
ATOM     20  C   UNL     1      -2.299  -0.368   0.012  0.00  0.00    +0.277 C 
ENDBRANCH  16  19
ENDBRANCH   1  14
BRANCH   6  21
ATOM     21  C   UNL     1       6.636   4.016  -2.537  0.00  0.00    -0.032 A 
ATOM     22  C   UNL     1       7.567   3.003  -2.668  0.00  0.00    +0.054 A 
ATOM     23  C   UNL     1       8.807   3.267  -3.231  0.00  0.00    +0.165 A 
ATOM     24  C   UNL     1       9.117   4.555  -3.652  0.00  0.00    +0.204 A 
ATOM     25  C   UNL     1       8.179   5.572  -3.513  0.00  0.00    +0.165 A 
ATOM     26  C   UNL     1       6.939   5.298  -2.955  0.00  0.00    +0.054 A 
BRANCH  25  27
ATOM     27  O   UNL     1       8.477   6.834  -3.924  0.00  0.00    -0.491 OA
ATOM     28  C   UNL     1       7.466   7.828  -3.751  0.00  0.00    +0.277 C 
ENDBRANCH  25  27
BRANCH  24  29
ATOM     29  O   UNL     1      10.334   4.820  -4.199  0.00  0.00    -0.488 OA
ATOM     30  C   UNL     1      11.376   5.213  -3.304  0.00  0.00    +0.277 C 
ENDBRANCH  24  29
BRANCH  23  31
ATOM     31  O   UNL     1       9.720   2.269  -3.365  0.00  0.00    -0.491 OA
ATOM     32  C   UNL     1       9.334   0.971  -2.910  0.00  0.00    +0.277 C 
ENDBRANCH  23  31
ENDBRANCH   6  21
BRANCH   5  33
ATOM     33  C   UNL     1       6.601   3.599   0.263  0.00  0.00    +0.098 C 
ATOM     34  N   UNL     1       7.497   3.914   0.887  0.00  0.00    -0.191 NA
ENDBRANCH   5  33
BRANCH   1  35
ATOM     35  O   UNL     1       2.309  -0.183  -0.723  0.00  0.00    -0.366 OA
ATOM     36  H   UNL     1       1.640  -0.764  -0.337  0.00  0.00    +0.212 HD
ENDBRANCH   1  35
TORSDOF 9
