REMARK  Name = ZINC03345624
REMARK  7 active torsions:
REMARK  status: ('A' for Active; 'I' for Inactive)
REMARK    1  A    between atoms: C_1  and  C_2
REMARK    2  A    between atoms: C_3  and  C_12
REMARK    3  A    between atoms: C_18  and  C_20
REMARK    4  A    between atoms: C_20  and  S_21
REMARK    5  A    between atoms: S_21  and  C_22
REMARK    6  A    between atoms: C_22  and  C_23
REMARK    7  A    between atoms: C_23  and  O_24
REMARK                            x       y       z     vdW  Elec       q    Type
REMARK                         _______ _______ _______ _____ _____    ______ ____
ROOT
ATOM      1  C   UNL     1       0.149  -0.161  -2.460  0.00  0.00    +0.082 A 
ATOM      2  C   UNL     1       0.309   1.177  -2.689  0.00  0.00    +0.077 A 
ATOM      3  S   UNL     1       0.324   1.210  -4.474  0.00  0.00    -0.060 S 
ATOM      4  C   UNL     1       0.131  -0.440  -4.743  0.00  0.00    +0.165 A 
ATOM      5  N   UNL     1       0.070  -0.942  -3.530  0.00  0.00    -0.225 NA
ATOM      6  N   UNL     1       0.059  -1.111  -5.957  0.00  0.00    -0.264 N 
ATOM      7  C   UNL     1       0.148  -0.424  -7.113  0.00  0.00    +0.228 C 
ATOM      8  O   UNL     1       0.290   0.781  -7.094  0.00  0.00    -0.275 OA
ATOM      9  H   UNL     1      -0.054  -2.074  -5.973  0.00  0.00    +0.157 HD
ENDROOT
BRANCH   1  12
ATOM     10  C   UNL     1       1.698  -2.642  -1.410  0.00  0.00    +0.064 C 
ATOM     11  C   UNL     1       0.743  -1.793  -0.611  0.00  0.00    +0.023 A 
ATOM     12  C   UNL     1       0.076  -0.714  -1.085  0.00  0.00    +0.029 A 
ATOM     13  C   UNL     1      -0.735  -0.195   0.028  0.00  0.00    +0.009 A 
ATOM     14  C   UNL     1      -1.619   0.875   0.164  0.00  0.00    +0.010 A 
ATOM     15  C   UNL     1      -2.233   1.099   1.364  0.00  0.00    +0.001 A 
ATOM     16  C   UNL     1      -1.984   0.270   2.449  0.00  0.00    +0.002 A 
ATOM     17  C   UNL     1      -1.114  -0.792   2.335  0.00  0.00    +0.026 A 
ATOM     18  C   UNL     1      -0.479  -1.038   1.122  0.00  0.00    +0.047 A 
ATOM     19  N   UNL     1       0.415  -1.998   0.702  0.00  0.00    -0.358 N 
ATOM     20  H   UNL     1       0.764  -2.714   1.256  0.00  0.00    +0.166 HD
ENDBRANCH   1  12
BRANCH   7  21
ATOM     21  C   UNL     1       0.070  -1.152  -8.431  0.00  0.00    +0.165 C 
BRANCH  21  22
ATOM     22  S   UNL     1       0.218   0.040  -9.790  0.00  0.00    -0.149 S 
BRANCH  22  23
ATOM     23  C   UNL     1       0.107  -0.982 -11.284  0.00  0.00    +0.097 C 
BRANCH  23  24
ATOM     24  C   UNL     1       0.220  -0.090 -12.522  0.00  0.00    +0.166 C 
BRANCH  24  25
ATOM     25  O   UNL     1       0.132  -0.896 -13.699  0.00  0.00    -0.394 OA
ATOM     26  H   UNL     1       0.196  -0.395 -14.524  0.00  0.00    +0.209 HD
ENDBRANCH  24  25
ENDBRANCH  23  24
ENDBRANCH  22  23
ENDBRANCH  21  22
ENDBRANCH   7  21
TORSDOF 6
