REMARK  Name = ZINC18125085
REMARK  6 active torsions:
REMARK  status: ('A' for Active; 'I' for Inactive)
REMARK    1  A    between atoms: C_1  and  C_2
REMARK    2  A    between atoms: C_7  and  N_8
REMARK    3  A    between atoms: C_9  and  C_11
REMARK    4  A    between atoms: C_12  and  C_29
REMARK    5  A    between atoms: C_16  and  C_18
REMARK    6  A    between atoms: C_21  and  C_23
REMARK                            x       y       z     vdW  Elec       q    Type
REMARK                         _______ _______ _______ _____ _____    ______ ____
ROOT
ATOM      1  C   UNL     1       0.112   0.173   4.708  0.00  0.00    +0.046 C 
ATOM      2  C   UNL     1       0.201  -0.434   5.903  0.00  0.00    +0.014 C 
ATOM      3  N   UNL     1       0.226   0.303   7.055  0.00  0.00    -0.321 N 
ATOM      4  C   UNL     1      -0.227   1.595   7.067  0.00  0.00    +0.015 C 
ATOM      5  C   UNL     1      -0.340   2.292   5.916  0.00  0.00    +0.027 C 
ATOM      6  C   UNL     1       0.050   1.669   4.597  0.00  0.00    +0.126 C 
ATOM      7  C   UNL     1      -0.818   3.613   5.912  0.00  0.00    +0.162 C 
ATOM      8  O   UNL     1      -0.900   4.215   4.860  0.00  0.00    -0.292 OA
ATOM      9  C   UNL     1      -1.231   4.296   7.188  0.00  0.00    +0.080 C 
ATOM     10  C   UNL     1      -1.712   3.239   8.187  0.00  0.00    +0.014 C 
ATOM     11  C   UNL     1      -0.591   2.218   8.391  0.00  0.00    +0.051 C 
ATOM     12  C   UNL     1       0.275  -1.937   5.974  0.00  0.00    +0.061 C 
ATOM     13  H   UNL     1       0.567  -0.094   7.872  0.00  0.00    +0.152 HD
ENDROOT
BRANCH   6  14
ATOM     14  C   UNL     1       1.401   2.190   4.178  0.00  0.00    +0.117 A 
ATOM     15  C   UNL     1       1.659   2.899   3.064  0.00  0.00    +0.046 A 
ATOM     16  C   UNL     1       3.045   3.178   3.069  0.00  0.00    +0.044 A 
ATOM     17  C   UNL     1       3.551   2.622   4.185  0.00  0.00    +0.102 A 
ATOM     18  O   UNL     1       2.549   2.030   4.856  0.00  0.00    -0.464 OA
ATOM     19  C   UNL     1       4.995   2.663   4.612  0.00  0.00    +0.086 C 
ENDBRANCH   6  14
BRANCH   1  21
ATOM     20  N   UNL     1       1.195  -1.248   3.115  0.00  0.00    -0.281 N 
ATOM     21  C   UNL     1       0.082  -0.612   3.530  0.00  0.00    +0.247 C 
ATOM     22  O   UNL     1      -0.951  -0.713   2.892  0.00  0.00    -0.270 OA
ATOM     23  H   UNL     1       2.002  -1.215   3.653  0.00  0.00    +0.155 HD
BRANCH  20  30
ATOM     24  C   UNL     1       3.575  -1.273   1.556  0.00  0.00    +0.045 C 
ATOM     25  C   UNL     1       2.327  -1.996   1.118  0.00  0.00    -0.029 A 
ATOM     26  C   UNL     1       2.318  -2.701  -0.070  0.00  0.00    +0.005 A 
ATOM     27  C   UNL     1       1.174  -3.364  -0.473  0.00  0.00    +0.000 A 
ATOM     28  C   UNL     1       0.035  -3.323   0.310  0.00  0.00    +0.002 A 
ATOM     29  C   UNL     1       0.037  -2.619   1.499  0.00  0.00    +0.023 A 
ATOM     30  C   UNL     1       1.187  -1.957   1.910  0.00  0.00    +0.037 A 
ENDBRANCH  20  30
ENDBRANCH   1  21
TORSDOF 3
