REMARK  Name = ZINC03335521
REMARK  5 active torsions:
REMARK  status: ('A' for Active; 'I' for Inactive)
REMARK    1  A    between atoms: C_1  and  C_2
REMARK    2  A    between atoms: C_7  and  C_13
REMARK    3  A    between atoms: C_13  and  S_14
REMARK    4  A    between atoms: S_14  and  C_15
REMARK    5  A    between atoms: C_21  and  C_26
REMARK                            x       y       z     vdW  Elec       q    Type
REMARK                         _______ _______ _______ _____ _____    ______ ____
ROOT
ATOM      1  C   UNL     1       2.363   0.046  -0.020  0.00  0.00    +0.170 A 
ATOM      2  N   UNL     1       1.185  -0.644  -0.013  0.00  0.00    -0.301 N 
ATOM      3  H   UNL     1       1.202  -1.614  -0.018  0.00  0.00    +0.171 HD
ATOM      4  C   UNL     1       0.002  -0.004   0.002  0.00  0.00    +0.261 A 
ATOM      5  O   UNL     1      -1.041  -0.635   0.008  0.00  0.00    -0.267 OA
ATOM      6  C   UNL     1      -0.017   1.424   0.010  0.00  0.00    +0.080 A 
ATOM      7  C   UNL     1      -1.163   2.330   0.020  0.00  0.00    +0.010 A 
ATOM      8  C   UNL     1      -0.935   3.667   0.031  0.00  0.00    +0.057 A 
ATOM      9  S   UNL     1       0.843   3.784   0.014  0.00  0.00    -0.076 S 
ATOM     10  C   UNL     1       1.239   2.054   0.001  0.00  0.00    +0.117 A 
ATOM     11  N   UNL     1       2.373   1.364  -0.012  0.00  0.00    -0.216 NA
ENDROOT
BRANCH   7  12
ATOM     12  C   UNL     1      -2.542   1.801   0.023  0.00  0.00    +0.021 A 
ATOM     13  C   UNL     1      -3.587   2.122   0.848  0.00  0.00    +0.016 A 
ATOM     14  C   UNL     1      -4.799   1.491   0.657  0.00  0.00    +0.008 A 
ATOM     15  C   UNL     1      -4.915   0.569  -0.332  0.00  0.00    +0.046 A 
ATOM     16  S   UNL     1      -3.278   0.572  -1.042  0.00  0.00    -0.097 S 
ENDBRANCH   7  12
BRANCH   1  17
ATOM     17  S   UNL     1       3.888  -0.836  -0.039  0.00  0.00    -0.082 S 
BRANCH  17  18
ATOM     18  C   UNL     1       5.052   0.550  -0.042  0.00  0.00    +0.133 C 
BRANCH  18  25
ATOM     19  C   UNL     1      12.206  -2.487   1.104  0.00  0.00    +0.045 C 
ATOM     20  C   UNL     1      10.797  -1.952   1.096  0.00  0.00    -0.034 A 
ATOM     21  C   UNL     1      10.025  -1.998   2.265  0.00  0.00    +0.008 A 
ATOM     22  C   UNL     1       8.752  -1.512   2.250  0.00  0.00    +0.047 A 
ATOM     23  C   UNL     1       8.232  -0.972   1.059  0.00  0.00    +0.141 A 
ATOM     24  N   UNL     1       6.988  -0.496   1.042  0.00  0.00    -0.233 NA
ATOM     25  C   UNL     1       6.463   0.021  -0.058  0.00  0.00    +0.059 A 
ATOM     26  C   UNL     1       7.206   0.069  -1.222  0.00  0.00    +0.094 A 
ATOM     27  C   UNL     1       8.515  -0.424  -1.210  0.00  0.00    +0.259 A 
ATOM     28  O   UNL     1       9.199  -0.391  -2.221  0.00  0.00    -0.267 OA
ATOM     29  N   UNL     1       9.009  -0.941  -0.065  0.00  0.00    -0.268 N 
ATOM     30  C   UNL     1      10.280  -1.429  -0.039  0.00  0.00    +0.099 A 
ENDBRANCH  18  25
ENDBRANCH  17  18
ENDBRANCH   1  17
TORSDOF 4
