REMARK  Name = ZINC39940733
REMARK  8 active torsions:
REMARK  status: ('A' for Active; 'I' for Inactive)
REMARK    1  A    between atoms: C_1  and  C_2
REMARK    2  A    between atoms: C_2  and  C_28
REMARK    3  A    between atoms: N_5  and  C_9
REMARK    4  A    between atoms: C_9  and  C_10
REMARK    5  A    between atoms: C_10  and  C_12
REMARK    6  A    between atoms: C_20  and  C_22
REMARK    7  A    between atoms: C_31  and  O_34
REMARK    8  A    between atoms: O_34  and  C_35
REMARK                            x       y       z     vdW  Elec       q    Type
REMARK                         _______ _______ _______ _____ _____    ______ ____
ROOT
ATOM      1  C   UNL     1       2.871  -1.896  -1.406  0.00  0.00    +0.197 C 
ENDROOT
BRANCH   1   6
ATOM      2  C   UNL     1      -0.019   1.526   0.010  0.00  0.00    +0.047 C 
ATOM      3  C   UNL     1       0.002  -0.004   0.002  0.00  0.00    +0.135 C 
ATOM      4  C   UNL     1       0.815  -0.520  -1.169  0.00  0.00    +0.251 C 
ATOM      5  O   UNL     1       0.595  -0.342  -2.348  0.00  0.00    -0.272 OA
ATOM      6  N   UNL     1       1.833  -1.217  -0.627  0.00  0.00    -0.216 N 
ATOM      7  C   UNL     1       1.777  -1.214   0.710  0.00  0.00    +0.310 C 
ATOM      8  O   UNL     1       2.586  -1.776   1.421  0.00  0.00    -0.252 OA
ATOM      9  N   UNL     1       0.724  -0.519   1.178  0.00  0.00    -0.281 N 
ATOM     10  H   UNL     1       0.487  -0.383   2.109  0.00  0.00    +0.152 HD
BRANCH   3  11
ATOM     11  C   UNL     1      -1.401  -0.551  -0.040  0.00  0.00    -0.015 A 
ATOM     12  C   UNL     1      -2.004  -0.814  -1.256  0.00  0.00    +0.010 A 
ATOM     13  C   UNL     1      -3.290  -1.316  -1.298  0.00  0.00    +0.046 A 
ATOM     14  C   UNL     1      -3.978  -1.556  -0.117  0.00  0.00    +0.120 A 
ATOM     15  C   UNL     1      -3.371  -1.292   1.102  0.00  0.00    +0.046 A 
ATOM     16  C   UNL     1      -2.082  -0.796   1.138  0.00  0.00    +0.010 A 
BRANCH  14  17
ATOM     17  O   UNL     1      -5.244  -2.049  -0.155  0.00  0.00    -0.495 OA
ATOM     18  C   UNL     1      -5.891  -2.272   1.099  0.00  0.00    +0.277 C 
ENDBRANCH  14  17
ENDBRANCH   3  11
ENDBRANCH   1   6
BRANCH   1  19
ATOM     19  C   UNL     1       4.020  -0.950  -1.644  0.00  0.00    +0.180 C 
ATOM     20  O   UNL     1       3.975   0.181  -1.205  0.00  0.00    -0.291 OA
BRANCH  19  21
ATOM     21  C   UNL     1       5.147  -1.379  -2.376  0.00  0.00    +0.032 C 
ATOM     22  C   UNL     1       5.352  -2.623  -2.944  0.00  0.00    +0.007 A 
ATOM     23  C   UNL     1       4.571  -3.802  -2.987  0.00  0.00    +0.010 A 
ATOM     24  C   UNL     1       5.028  -4.900  -3.628  0.00  0.00    +0.001 A 
ATOM     25  C   UNL     1       6.275  -4.931  -4.273  0.00  0.00    +0.002 A 
ATOM     26  C   UNL     1       7.098  -3.860  -4.291  0.00  0.00    +0.026 A 
ATOM     27  C   UNL     1       6.675  -2.622  -3.615  0.00  0.00    +0.044 A 
ATOM     28  N   UNL     1       7.256  -1.465  -3.478  0.00  0.00    -0.373 N 
ATOM     29  C   UNL     1       6.383  -0.572  -2.709  0.00  0.00    +0.144 C 
ATOM     30  H   UNL     1       8.127  -1.229  -3.832  0.00  0.00    +0.161 HD
BRANCH  29  31
ATOM     31  C   UNL     1       6.009   0.631  -3.535  0.00  0.00    -0.021 A 
ATOM     32  C   UNL     1       5.779   0.494  -4.892  0.00  0.00    +0.006 A 
ATOM     33  C   UNL     1       5.436   1.598  -5.650  0.00  0.00    +0.000 A 
ATOM     34  C   UNL     1       5.323   2.839  -5.052  0.00  0.00    +0.000 A 
ATOM     35  C   UNL     1       5.553   2.976  -3.696  0.00  0.00    +0.000 A 
ATOM     36  C   UNL     1       5.891   1.872  -2.937  0.00  0.00    +0.006 A 
ENDBRANCH  29  31
ENDBRANCH  19  21
ENDBRANCH   1  19
TORSDOF 6
