REMARK  Name = ZINC44786587
REMARK  8 active torsions:
REMARK  status: ('A' for Active; 'I' for Inactive)
REMARK    1  A    between atoms: C_4  and  C_8
REMARK    2  A    between atoms: C_8  and  S_9
REMARK    3  A    between atoms: S_9  and  C_10
REMARK    4  A    between atoms: C_10  and  C_11
REMARK    5  A    between atoms: C_11  and  N_12
REMARK    6  A    between atoms: C_13  and  C_15
REMARK    7  A    between atoms: N_20  and  C_22
REMARK    8  A    between atoms: C_22  and  C_23
REMARK                            x       y       z     vdW  Elec       q    Type
REMARK                         _______ _______ _______ _____ _____    ______ ____
ROOT
ATOM      1  N   UNL     1       7.681  -2.925   2.694  0.00  0.00    -0.314 N 
ATOM      2  C   UNL     1       8.375  -3.312   3.782  0.00  0.00    +0.214 C 
ATOM      3  O   UNL     1       7.947  -3.072   4.891  0.00  0.00    -0.276 OA
ATOM      4  H   UNL     1       8.024  -3.116   1.807  0.00  0.00    +0.149 HD
ENDROOT
BRANCH   2   5
ATOM      5  C   UNL     1       9.683  -4.043   3.621  0.00  0.00    +0.058 C 
ATOM      6  C   UNL     1       9.449  -5.346   2.852  0.00  0.00    +0.009 C 
ATOM      7  C   UNL     1      10.768  -6.119   2.761  0.00  0.00    -0.018 C 
ATOM      8  C   UNL     1      11.305  -6.367   4.173  0.00  0.00    -0.078 C 
ATOM      9  N   UNL     1      11.533  -5.083   4.847  0.00  0.00    +0.383 N 
ATOM     10  C   UNL     1      10.260  -4.368   5.001  0.00  0.00    -0.066 C 
ATOM     11  H   UNL     1      12.167  -4.524   4.297  0.00  0.00    -0.081 HD
BRANCH   9  12
ATOM     12  C   UNL     1      12.120  -5.325   6.171  0.00  0.00    -0.042 C 
BRANCH  12  13
ATOM     13  C   UNL     1      13.487  -5.939   6.010  0.00  0.00    -0.046 A 
ATOM     14  C   UNL     1      13.652  -7.304   6.155  0.00  0.00    +0.004 A 
ATOM     15  C   UNL     1      14.905  -7.869   6.007  0.00  0.00    +0.020 A 
ATOM     16  C   UNL     1      15.995  -7.068   5.714  0.00  0.00    +0.042 A 
ATOM     17  C   UNL     1      15.830  -5.702   5.569  0.00  0.00    +0.040 A 
ATOM     18  C   UNL     1      14.575  -5.138   5.712  0.00  0.00    +0.044 A 
ATOM     19 CL   UNL     1      14.366  -3.425   5.524  0.00  0.00    -0.083 Cl
ATOM     20 CL   UNL     1      17.569  -7.777   5.529  0.00  0.00    -0.083 Cl
ENDBRANCH  12  13
ENDBRANCH   9  12
ENDBRANCH   2   5
BRANCH   1  21
ATOM     21  C   UNL     1       6.410  -2.214   2.850  0.00  0.00    +0.115 C 
BRANCH  21  22
ATOM     22  C   UNL     1       5.833  -1.892   1.471  0.00  0.00    +0.088 C 
BRANCH  22  23
ATOM     23  S   UNL     1       4.258  -1.011   1.665  0.00  0.00    -0.154 S 
BRANCH  23  24
ATOM     24  C   UNL     1       3.713  -0.707  -0.038  0.00  0.00    +0.107 C 
BRANCH  24  28
ATOM     25  C   UNL     1      -0.017   1.378   0.010  0.00  0.00    +0.003 A 
ATOM     26  C   UNL     1       1.171   2.086   0.002  0.00  0.00    +0.020 A 
ATOM     27  C   UNL     1       2.378   1.411  -0.013  0.00  0.00    +0.046 A 
ATOM     28  C   UNL     1       2.398   0.028  -0.021  0.00  0.00    -0.001 A 
ATOM     29  C   UNL     1       1.209  -0.680  -0.013  0.00  0.00    +0.046 A 
ATOM     30  C   UNL     1       0.002  -0.004   0.002  0.00  0.00    +0.020 A 
ATOM     31 CL   UNL     1       1.233  -2.416  -0.023  0.00  0.00    -0.083 Cl
ATOM     32 CL   UNL     1       3.869   2.300  -0.024  0.00  0.00    -0.083 Cl
ENDBRANCH  24  28
ENDBRANCH  23  24
ENDBRANCH  22  23
ENDBRANCH  21  22
ENDBRANCH   1  21
TORSDOF 8
