REMARK  Name = ZINC09298291
REMARK  11 active torsions:
REMARK  status: ('A' for Active; 'I' for Inactive)
REMARK    1  A    between atoms: C_1  and  C_2
REMARK    2  A    between atoms: C_2  and  O_3
REMARK    3  A    between atoms: O_3  and  C_4
REMARK    4  A    between atoms: C_7  and  C_9
REMARK    5  A    between atoms: C_13  and  N_14
REMARK    6  A    between atoms: C_15  and  C_17
REMARK    7  A    between atoms: C_20  and  C_23
REMARK    8  A    between atoms: C_23  and  C_24
REMARK    9  A    between atoms: C_23  and  C_25
REMARK   10  A    between atoms: C_23  and  C_26
REMARK   11  A    between atoms: C_28  and  C_32
REMARK                            x       y       z     vdW  Elec       q    Type
REMARK                         _______ _______ _______ _____ _____    ______ ____
ROOT
ATOM      1  C   UNL     1      -0.017   1.385   0.010  0.00  0.00    +0.069 A 
ATOM      2  C   UNL     1       1.263   2.073   0.001  0.00  0.00    -0.023 A 
ATOM      3  C   UNL     1       2.349   1.270  -0.013  0.00  0.00    -0.004 A 
ATOM      4  S   UNL     1       1.694  -0.376  -0.016  0.00  0.00    -0.077 S 
ATOM      5  C   UNL     1       0.002  -0.004   0.002  0.00  0.00    +0.085 A 
ATOM      6  C   UNL     1       3.785   1.692  -0.024  0.00  0.00    +0.046 C 
ATOM      7  C   UNL     1       3.855   3.177   0.361  0.00  0.00    -0.009 C 
ATOM      8  C   UNL     1       2.821   3.950  -0.463  0.00  0.00    +0.008 C 
ATOM      9  C   UNL     1       1.410   3.590   0.006  0.00  0.00    +0.037 C 
ATOM     10  C   UNL     1       5.256   3.718   0.066  0.00  0.00    +0.008 C 
ENDROOT
BRANCH   1  14
ATOM     11  C   UNL     1      -3.027   3.159  -1.133  0.00  0.00    +0.407 C 
ATOM     12  O   UNL     1      -3.546   3.462  -0.077  0.00  0.00    -0.226 OA
ATOM     13  N   UNL     1      -1.866   2.475  -1.143  0.00  0.00    -0.217 N 
ATOM     14  C   UNL     1      -1.279   2.128   0.020  0.00  0.00    +0.255 C 
ATOM     15  O   UNL     1      -1.798   2.431   1.078  0.00  0.00    -0.270 OA
ATOM     16  H   UNL     1      -1.452   2.234  -1.986  0.00  0.00    +0.161 HD
BRANCH  11  17
ATOM     17  O   UNL     1      -3.613   3.506  -2.295  0.00  0.00    -0.450 OA
BRANCH  17  19
ATOM     18  C   UNL     1      -5.373   4.545  -3.618  0.00  0.00    +0.048 C 
ATOM     19  C   UNL     1      -4.862   4.241  -2.209  0.00  0.00    +0.230 C 
ENDBRANCH  17  19
ENDBRANCH  11  17
ENDBRANCH   1  14
BRANCH   5  20
ATOM     20  N   UNL     1      -1.071  -0.879   0.007  0.00  0.00    -0.275 N 
ATOM     21  C   UNL     1      -0.856  -2.210  -0.002  0.00  0.00    +0.249 C 
ATOM     22  O   UNL     1       0.281  -2.642  -0.015  0.00  0.00    -0.270 OA
ATOM     23  H   UNL     1      -1.978  -0.535   0.017  0.00  0.00    +0.156 HD
BRANCH  21  24
ATOM     24  C   UNL     1      -2.001  -3.144   0.003  0.00  0.00    +0.037 A 
ATOM     25  C   UNL     1      -3.307  -2.651   0.024  0.00  0.00    +0.013 A 
ATOM     26  C   UNL     1      -4.372  -3.529   0.024  0.00  0.00    +0.005 A 
ATOM     27  C   UNL     1      -4.147  -4.894   0.014  0.00  0.00    -0.042 A 
ATOM     28  C   UNL     1      -2.855  -5.389  -0.001  0.00  0.00    +0.005 A 
ATOM     29  C   UNL     1      -1.782  -4.522  -0.006  0.00  0.00    +0.013 A 
BRANCH  27  30
ATOM     30  C   UNL     1      -5.315  -5.846   0.019  0.00  0.00    -0.013 C 
ATOM     31  C   UNL     1      -5.243  -6.734   1.263  0.00  0.00    +0.015 C 
ATOM     32  C   UNL     1      -6.622  -5.051   0.035  0.00  0.00    +0.015 C 
ATOM     33  C   UNL     1      -5.266  -6.721  -1.235  0.00  0.00    +0.015 C 
ENDBRANCH  27  30
ENDBRANCH  21  24
ENDBRANCH   5  20
TORSDOF 6
