REMARK  Name = ZINC01431057
REMARK  9 active torsions:
REMARK  status: ('A' for Active; 'I' for Inactive)
REMARK    1  A    between atoms: C_1  and  C_2
REMARK    2  A    between atoms: C_2  and  O_3
REMARK    3  A    between atoms: O_3  and  C_4
REMARK    4  A    between atoms: C_6  and  C_15
REMARK    5  A    between atoms: C_9  and  O_10
REMARK    6  A    between atoms: O_10  and  C_11
REMARK    7  A    between atoms: C_11  and  C_13
REMARK    8  A    between atoms: C_20  and  C_22
REMARK    9  A    between atoms: C_27  and  N_28
REMARK                            x       y       z     vdW  Elec       q    Type
REMARK                         _______ _______ _______ _____ _____    ______ ____
ROOT
ATOM      1  C   UNL     1      -0.244  -4.819  -0.488  0.00  0.00    +0.043 C 
ATOM      2  C   UNL     1      -0.365  -4.438  -1.808  0.00  0.00    +0.152 C 
ATOM      3  C   UNL     1       0.190  -3.227  -2.442  0.00  0.00    +0.364 C 
ATOM      4  O   UNL     1       0.850  -2.353  -1.913  0.00  0.00    -0.243 OA
ATOM      5  O   UNL     1      -0.193  -3.297  -3.735  0.00  0.00    -0.402 OA
ATOM      6  C   UNL     1      -0.911  -4.423  -3.912  0.00  0.00    +0.234 C 
ATOM      7  N   UNL     1      -1.017  -5.103  -2.804  0.00  0.00    -0.205 NA
ENDROOT
BRANCH   1  10
ATOM      8  C   UNL     1       0.657  -1.661   1.317  0.00  0.00    +0.164 A 
ATOM      9  C   UNL     1       0.101  -2.522   0.392  0.00  0.00    +0.057 A 
ATOM     10  C   UNL     1       0.342  -3.900   0.490  0.00  0.00    -0.018 A 
ATOM     11  C   UNL     1       1.145  -4.394   1.527  0.00  0.00    +0.026 A 
ATOM     12  C   UNL     1       1.694  -3.527   2.445  0.00  0.00    +0.060 A 
ATOM     13  C   UNL     1       1.459  -2.161   2.343  0.00  0.00    +0.186 A 
ATOM     14  I   UNL     1       2.894  -4.268   3.995  0.00  0.00    -0.040 I 
BRANCH   8  15
ATOM     15  O   UNL     1       0.426  -0.324   1.226  0.00  0.00    -0.489 OA
BRANCH  15  17
ATOM     16  C   UNL     1      -0.550   1.640   0.211  0.00  0.00    +0.048 C 
ATOM     17  C   UNL     1      -0.406   0.118   0.151  0.00  0.00    +0.226 C 
ENDBRANCH  15  17
ENDBRANCH   8  15
BRANCH  13  18
ATOM     18  O   UNL     1       2.009  -1.310   3.248  0.00  0.00    -0.421 OA
BRANCH  18  19
ATOM     19  C   UNL     1       1.308  -1.033   4.359  0.00  0.00    +0.309 C 
ATOM     20  O   UNL     1       0.222  -1.535   4.529  0.00  0.00    -0.251 OA
ATOM     21  C   UNL     1       1.875  -0.095   5.393  0.00  0.00    +0.136 C 
ENDBRANCH  18  19
ENDBRANCH  13  18
ENDBRANCH   1  10
BRANCH   6  22
ATOM     22  C   UNL     1      -1.499  -4.838  -5.201  0.00  0.00    +0.067 A 
ATOM     23  C   UNL     1      -1.169  -6.077  -5.756  0.00  0.00    +0.015 A 
ATOM     24  C   UNL     1      -1.722  -6.458  -6.961  0.00  0.00    +0.001 A 
ATOM     25  C   UNL     1      -2.602  -5.617  -7.620  0.00  0.00    +0.002 A 
ATOM     26  C   UNL     1      -2.933  -4.389  -7.076  0.00  0.00    +0.033 A 
ATOM     27  C   UNL     1      -2.392  -3.997  -5.869  0.00  0.00    +0.138 A 
BRANCH  27  28
ATOM     28  N   UNL     1      -2.753  -2.686  -5.285  0.00  0.00    +0.057 N 
ATOM     29  O   UNL     1      -3.435  -1.911  -5.915  0.00  0.00    -0.126 OA
ATOM     30  O   UNL     1      -2.366  -2.389  -4.178  0.00  0.00    -0.126 OA
ENDBRANCH  27  28
ENDBRANCH   6  22
TORSDOF 7
