REMARK  Name = ZINC05297205
REMARK  5 active torsions:
REMARK  status: ('A' for Active; 'I' for Inactive)
REMARK    1  A    between atoms: C_9  and  S_11
REMARK    2  A    between atoms: S_11  and  C_12
REMARK    3  A    between atoms: C_12  and  C_13
REMARK    4  A    between atoms: N_15  and  N_16
REMARK    5  A    between atoms: C_17  and  C_19
REMARK                            x       y       z     vdW  Elec       q    Type
REMARK                         _______ _______ _______ _____ _____    ______ ____
ROOT
ATOM      1  C   UNL     1       7.965  -1.445   0.298  0.00  0.00    +0.239 C 
ATOM      2  O   UNL     1       8.304  -2.553  -0.062  0.00  0.00    -0.273 OA
ATOM      3  N   UNL     1       8.886  -0.575   0.758  0.00  0.00    -0.233 N 
ATOM      4  H   UNL     1       8.615   0.311   1.046  0.00  0.00    +0.173 HD
ENDROOT
BRANCH   3   5
ATOM      5  N   UNL     1      10.234  -0.950   0.820  0.00  0.00    -0.230 N 
ATOM      6  C   UNL     1      11.155  -0.080   1.280  0.00  0.00    +0.260 C 
ATOM      7  O   UNL     1      10.815   1.031   1.641  0.00  0.00    -0.269 OA
ATOM      8  H   UNL     1      10.505  -1.835   0.532  0.00  0.00    +0.173 HD
BRANCH   6   9
ATOM      9  C   UNL     1      12.577  -0.475   1.346  0.00  0.00    +0.038 A 
ATOM     10  C   UNL     1      12.971  -1.747   0.927  0.00  0.00    +0.014 A 
ATOM     11  C   UNL     1      14.300  -2.111   0.991  0.00  0.00    +0.021 A 
ATOM     12  C   UNL     1      15.243  -1.216   1.470  0.00  0.00    +0.041 A 
ATOM     13  C   UNL     1      14.858   0.047   1.887  0.00  0.00    +0.021 A 
ATOM     14  C   UNL     1      13.533   0.424   1.822  0.00  0.00    +0.014 A 
ATOM     15 CL   UNL     1      16.914  -1.681   1.548  0.00  0.00    -0.084 Cl
ENDBRANCH   6   9
ENDBRANCH   3   5
BRANCH   1  16
ATOM     16  C   UNL     1       6.514  -1.042   0.231  0.00  0.00    +0.173 C 
BRANCH  16  17
ATOM     17  S   UNL     1       5.534  -2.419  -0.426  0.00  0.00    -0.090 S 
BRANCH  17  26
ATOM     18  C   UNL     1      -0.017   1.377   0.010  0.00  0.00    +0.000 A 
ATOM     19  C   UNL     1       1.174   2.083   0.002  0.00  0.00    +0.002 A 
ATOM     20  C   UNL     1       2.374   1.412  -0.012  0.00  0.00    +0.028 A 
ATOM     21  C   UNL     1       2.406   0.006  -0.020  0.00  0.00    +0.070 A 
ATOM     22  C   UNL     1       1.203  -0.692  -0.014  0.00  0.00    -0.012 A 
ATOM     23  C   UNL     1       0.002  -0.004   0.002  0.00  0.00    +0.006 A 
ATOM     24  C   UNL     1       1.156  -2.201  -0.030  0.00  0.00    +0.113 C 
ATOM     25  S   UNL     1       2.556  -2.812  -1.016  0.00  0.00    -0.094 S 
ATOM     26  C   UNL     1       3.885  -1.798  -0.442  0.00  0.00    +0.132 C 
ATOM     27  N   UNL     1       3.632  -0.585  -0.030  0.00  0.00    -0.234 NA
ENDBRANCH  17  26
ENDBRANCH  16  17
ENDBRANCH   1  16
TORSDOF 5
