REMARK  Name = ZINC22205524
REMARK  9 active torsions:
REMARK  status: ('A' for Active; 'I' for Inactive)
REMARK    1  A    between atoms: C_1  and  C_2
REMARK    2  A    between atoms: C_2  and  C_3
REMARK    3  A    between atoms: C_6  and  C_9
REMARK    4  A    between atoms: C_9  and  C_37
REMARK    5  A    between atoms: N_10  and  N_11
REMARK    6  A    between atoms: C_12  and  C_14
REMARK    7  A    between atoms: C_14  and  C_16
REMARK    8  A    between atoms: C_14  and  N_28
REMARK    9  A    between atoms: C_29  and  C_31
REMARK                            x       y       z     vdW  Elec       q    Type
REMARK                         _______ _______ _______ _____ _____    ______ ____
ROOT
ATOM      1  C   UNL     1      -4.825   1.306   0.032  0.00  0.00    +0.212 C 
ENDROOT
BRANCH   1   2
ATOM      2  C   UNL     1      -4.899   0.445  -1.203  0.00  0.00    +0.099 A 
ATOM      3  C   UNL     1      -4.269  -0.875  -1.213  0.00  0.00    +0.013 A 
ATOM      4  C   UNL     1      -3.599  -1.380  -0.097  0.00  0.00    +0.010 A 
ATOM      5  C   UNL     1      -3.032  -2.623  -0.153  0.00  0.00    +0.001 A 
ATOM      6  C   UNL     1      -3.117  -3.394  -1.305  0.00  0.00    +0.001 A 
ATOM      7  C   UNL     1      -3.776  -2.924  -2.420  0.00  0.00    +0.014 A 
ATOM      8  C   UNL     1      -4.362  -1.659  -2.385  0.00  0.00    +0.050 A 
ATOM      9  C   UNL     1      -5.078  -1.101  -3.539  0.00  0.00    +0.272 A 
ATOM     10  O   UNL     1      -5.180  -1.738  -4.573  0.00  0.00    -0.266 OA
ATOM     11  N   UNL     1      -5.621   0.129  -3.433  0.00  0.00    -0.242 N 
ATOM     12  H   UNL     1      -6.162   0.567  -4.285  0.00  0.00    +0.192 HD
ATOM     13  N   UNL     1      -5.519   0.878  -2.260  0.00  0.00    -0.173 NA
ENDBRANCH   1   2
BRANCH   1  15
ATOM     14  N   UNL     1      -2.354   1.419   0.021  0.00  0.00    -0.205 N 
ATOM     15  C   UNL     1      -3.531   2.077   0.030  0.00  0.00    +0.259 C 
ATOM     16  O   UNL     1      -3.547   3.290   0.037  0.00  0.00    -0.272 OA
ATOM     17  H   UNL     1      -2.340   0.319   0.015  0.00  0.00    +0.177 HD
BRANCH  14  19
ATOM     18  C   UNL     1      -0.018   1.503   0.010  0.00  0.00    +0.063 C 
ATOM     19  N   UNL     1      -1.151   2.136   0.019  0.00  0.00    -0.185 NA
ATOM     20  C   UNL     1       0.002  -0.004   0.002  0.00  0.00    +0.068 C 
BRANCH  18  24
ATOM     21  C   UNL     1       3.628   3.675  -0.012  0.00  0.00    -0.048 A 
ATOM     22  C   UNL     1       2.422   4.354   0.003  0.00  0.00    +0.004 A 
ATOM     23  C   UNL     1       1.234   3.654   0.010  0.00  0.00    +0.010 A 
ATOM     24  C   UNL     1       1.249   2.257   0.002  0.00  0.00    -0.003 A 
ATOM     25  C   UNL     1       2.470   1.579  -0.007  0.00  0.00    +0.010 A 
ATOM     26  C   UNL     1       3.651   2.291  -0.020  0.00  0.00    +0.004 A 
BRANCH  21  28
ATOM     27  C   UNL     1       5.375   4.700   1.418  0.00  0.00    +0.009 C 
ATOM     28  C   UNL     1       4.923   4.446  -0.021  0.00  0.00    +0.032 C 
ENDBRANCH  21  28
ENDBRANCH  18  24
ENDBRANCH  14  19
ENDBRANCH   1  15
BRANCH   1  29
ATOM     29  N   UNL     1      -5.952   2.243   0.043  0.00  0.00    -0.295 N 
ATOM     30  C   UNL     1      -7.144   1.858   0.539  0.00  0.00    +0.245 C 
ATOM     31  O   UNL     1      -7.285   0.733   0.979  0.00  0.00    -0.270 OA
ATOM     32  H   UNL     1      -5.824   3.260  -0.355  0.00  0.00    +0.150 HD
BRANCH  30  33
ATOM     33  C   UNL     1      -8.281   2.803   0.550  0.00  0.00    +0.037 A 
ATOM     34  C   UNL     1      -8.121   4.097   0.051  0.00  0.00    +0.013 A 
ATOM     35  C   UNL     1      -9.187   4.973   0.059  0.00  0.00    +0.001 A 
ATOM     36  C   UNL     1     -10.409   4.574   0.570  0.00  0.00    +0.000 A 
ATOM     37  C   UNL     1     -10.573   3.295   1.071  0.00  0.00    +0.001 A 
ATOM     38  C   UNL     1      -9.517   2.408   1.064  0.00  0.00    +0.013 A 
ENDBRANCH  30  33
ENDBRANCH   1  29
TORSDOF 7
