REMARK  Name = ZINC16315649
REMARK  11 active torsions:
REMARK  status: ('A' for Active; 'I' for Inactive)
REMARK    1  A    between atoms: C_1  and  C_2
REMARK    2  A    between atoms: C_5  and  N_9
REMARK    3  A    between atoms: C_6  and  C_8
REMARK    4  A    between atoms: N_9  and  C_10
REMARK    5  A    between atoms: C_10  and  N_12
REMARK    6  A    between atoms: N_12  and  C_13
REMARK    7  A    between atoms: C_13  and  C_14
REMARK    8  A    between atoms: C_14  and  C_16
REMARK    9  A    between atoms: C_14  and  N_24
REMARK   10  A    between atoms: C_19  and  O_22
REMARK   11  A    between atoms: O_22  and  C_23
REMARK                            x       y       z     vdW  Elec       q    Type
REMARK                         _______ _______ _______ _____ _____    ______ ____
ROOT
ATOM      1  C   UNL     1       0.179  -6.898  -2.295  0.00  0.00    +0.092 C 
ENDROOT
BRANCH   1   2
ATOM      2  N   UNL     1       1.256  -6.554  -3.227  0.00  0.00    -0.328 N 
ATOM      3  H   UNL     1       1.924  -7.217  -3.461  0.00  0.00    +0.148 HD
BRANCH   2   4
ATOM      4  C   UNL     1       1.319  -5.317  -3.757  0.00  0.00    +0.134 C 
ATOM      5  S   UNL     1       0.139  -4.147  -3.343  0.00  0.00    -0.019 S 
BRANCH   4   6
ATOM      6  N   UNL     1       2.309  -5.001  -4.614  0.00  0.00    -0.297 N 
ATOM      7  H   UNL     1       2.937  -5.682  -4.902  0.00  0.00    +0.154 HD
BRANCH   6  12
ATOM      8  C   UNL     1       2.807   0.313  -6.538  0.00  0.00    +0.044 C 
ATOM      9  C   UNL     1       2.675  -1.099  -6.027  0.00  0.00    -0.050 A 
ATOM     10  C   UNL     1       1.440  -1.722  -6.034  0.00  0.00    +0.005 A 
ATOM     11  C   UNL     1       1.316  -3.016  -5.567  0.00  0.00    +0.024 A 
ATOM     12  C   UNL     1       2.432  -3.691  -5.089  0.00  0.00    +0.036 A 
ATOM     13  C   UNL     1       3.670  -3.062  -5.084  0.00  0.00    -0.029 A 
ATOM     14  C   UNL     1       3.789  -1.770  -5.558  0.00  0.00    +0.008 A 
ATOM     15  C   UNL     1       4.884  -3.790  -4.566  0.00  0.00    +0.045 C 
ENDBRANCH   6  12
ENDBRANCH   4   6
ENDBRANCH   2   4
ENDBRANCH   1   2
BRANCH   1  16
ATOM     16  C   UNL     1       0.400  -8.314  -1.760  0.00  0.00    -0.020 C 
BRANCH  16  17
ATOM     17  C   UNL     1       0.244  -9.306  -2.883  0.00  0.00    -0.059 A 
ATOM     18  C   UNL     1      -1.019  -9.690  -3.295  0.00  0.00    +0.005 A 
ATOM     19  C   UNL     1      -1.165 -10.599  -4.324  0.00  0.00    +0.046 A 
ATOM     20  C   UNL     1      -0.043 -11.127  -4.946  0.00  0.00    +0.120 A 
ATOM     21  C   UNL     1       1.223 -10.740  -4.532  0.00  0.00    +0.046 A 
ATOM     22  C   UNL     1       1.364  -9.826  -3.505  0.00  0.00    +0.005 A 
BRANCH  20  23
ATOM     23  O   UNL     1      -0.184 -12.022  -5.958  0.00  0.00    -0.495 OA
ATOM     24  C   UNL     1       1.015 -12.524  -6.552  0.00  0.00    +0.277 C 
ENDBRANCH  20  23
ENDBRANCH  16  17
BRANCH  16  25
ATOM     25  N   UNL     1      -0.589  -8.601  -0.712  0.00  0.00    +0.385 N 
ATOM     26  C   UNL     1      -0.328  -9.936  -0.114  0.00  0.00    -0.078 C 
ATOM     27  C   UNL     1      -1.027  -9.849   1.266  0.00  0.00    -0.020 C 
ATOM     28  C   UNL     1      -0.750  -8.392   1.702  0.00  0.00    -0.020 C 
ATOM     29  C   UNL     1      -0.454  -7.631   0.396  0.00  0.00    -0.078 C 
ATOM     30  H   UNL     1      -1.522  -8.566  -1.094  0.00  0.00    -0.081 HD
ENDBRANCH  16  25
ENDBRANCH   1  16
TORSDOF 8
