REMARK  Name = ZINC51397590
REMARK  2 active torsions:
REMARK  status: ('A' for Active; 'I' for Inactive)
REMARK    1  A    between atoms: C_6  and  C_7
REMARK    2  A    between atoms: C_7  and  N_8
REMARK                            x       y       z     vdW  Elec       q    Type
REMARK                         _______ _______ _______ _____ _____    ______ ____
ROOT
ATOM      1  C   UNL     1       1.236   1.413  -1.178  0.00  0.00    +0.021 A 
ATOM      2  C   UNL     1       1.206   2.053   0.055  0.00  0.00    +0.036 A 
ATOM      3  C   UNL     1       1.137   1.296   1.208  0.00  0.00    +0.128 A 
ATOM      4  N   UNL     1       1.098  -0.022   1.151  0.00  0.00    -0.239 NA
ATOM      5  C   UNL     1       1.125  -0.668  -0.004  0.00  0.00    +0.123 A 
ATOM      6  C   UNL     1       1.194   0.031  -1.205  0.00  0.00    -0.024 A 
ATOM      7  N   UNL     1       1.083  -2.058  -0.018  0.00  0.00    -0.307 N 
ATOM      8  C   UNL     1      -0.186  -2.820   0.038  0.00  0.00    +0.135 C 
ATOM      9  C   UNL     1      -0.108  -3.924   1.091  0.00  0.00    +0.179 C 
ATOM     10  O   UNL     1       1.131  -4.652   1.015  0.00  0.00    -0.373 OA
ATOM     11  C   UNL     1       2.238  -3.791   1.172  0.00  0.00    +0.139 C 
ATOM     12  C   UNL     1       2.283  -2.879  -0.093  0.00  0.00    +0.104 C 
ATOM     13  C   UNL     1       3.629  -2.178   0.035  0.00  0.00    +0.025 C 
ATOM     14  C   UNL     1       4.543  -3.184   0.782  0.00  0.00    +0.004 C 
ATOM     15  C   UNL     1       3.640  -4.399   1.164  0.00  0.00    +0.033 C 
ATOM     16 BR   UNL     1       1.261   3.940   0.154  0.00  0.00    -0.049 Br
ENDROOT
BRANCH   6  17
ATOM     17  C   UNL     1       1.223  -0.708  -2.518  0.00  0.00    -0.047 C 
BRANCH  17  18
ATOM     18  N   UNL     1      -0.141  -1.114  -2.882  0.00  0.00    +0.381 N 
ATOM     19  H   UNL     1      -0.112  -1.680  -3.717  0.00  0.00    -0.090 HD
ATOM     20  H   UNL     1      -0.546  -1.647  -2.128  0.00  0.00    -0.090 HD
ATOM     21  H   UNL     1      -0.702  -0.292  -3.053  0.00  0.00    -0.090 HD
ENDBRANCH  17  18
ENDBRANCH   6  17
TORSDOF 2
