REMARK  Name = ZINC22418346
REMARK  11 active torsions:
REMARK  status: ('A' for Active; 'I' for Inactive)
REMARK    1  A    between atoms: C_1  and  N_2
REMARK    2  A    between atoms: N_2  and  C_3
REMARK    3  A    between atoms: N_2  and  C_4
REMARK    4  A    between atoms: C_7  and  C_10
REMARK    5  A    between atoms: C_10  and  C_12
REMARK    6  A    between atoms: C_10  and  N_28
REMARK    7  A    between atoms: C_12  and  N_13
REMARK    8  A    between atoms: N_16  and  C_17
REMARK    9  A    between atoms: C_17  and  C_18
REMARK   10  A    between atoms: N_28  and  C_29
REMARK   11  A    between atoms: N_28  and  C_30
REMARK                            x       y       z     vdW  Elec       q    Type
REMARK                         _______ _______ _______ _____ _____    ______ ____
ROOT
ATOM      1  N   UNL     1      -0.716   9.718  -2.276  0.00  0.00    -0.301 N 
ATOM      2  C   UNL     1      -0.670   9.641  -0.931  0.00  0.00    +0.300 C 
ATOM      3  O   UNL     1      -1.564   9.084  -0.323  0.00  0.00    -0.253 OA
ATOM      4  N   UNL     1       0.367  10.180  -0.260  0.00  0.00    -0.295 N 
ATOM      5  H   UNL     1       0.093  10.222  -2.826  0.00  0.00    +0.150 HD
ATOM      6  H   UNL     1       1.176  10.684  -0.810  0.00  0.00    +0.151 HD
ENDROOT
BRANCH   1   7
ATOM      7  C   UNL     1      -1.843   9.132  -3.005  0.00  0.00    +0.095 C 
BRANCH   7   8
ATOM      8  C   UNL     1      -1.718   9.468  -4.493  0.00  0.00    -0.021 C 
BRANCH   8  12
ATOM      9  C   UNL     1      -2.002  13.699  -5.026  0.00  0.00    +0.029 A 
ATOM     10  C   UNL     1      -0.759  13.079  -5.026  0.00  0.00    +0.023 A 
ATOM     11  C   UNL     1      -0.671  11.712  -4.853  0.00  0.00    +0.004 A 
ATOM     12  C   UNL     1      -1.819  10.960  -4.681  0.00  0.00    -0.059 A 
ATOM     13  C   UNL     1      -3.058  11.572  -4.686  0.00  0.00    +0.004 A 
ATOM     14  C   UNL     1      -3.153  12.940  -4.853  0.00  0.00    +0.023 A 
BRANCH   9  16
ATOM     15  C   UNL     1      -0.879  15.895  -5.265  0.00  0.00    +0.129 C 
ATOM     16  N   UNL     1      -2.095  15.081  -5.201  0.00  0.00    -0.336 N 
ATOM     17  C   UNL     1      -3.409  15.718  -5.320  0.00  0.00    +0.129 C 
ENDBRANCH   9  16
ENDBRANCH   8  12
BRANCH   8  18
ATOM     18  N   UNL     1      -2.799   8.807  -5.236  0.00  0.00    +0.382 N 
ATOM     19  C   UNL     1      -2.652   9.023  -6.682  0.00  0.00    -0.096 C 
ATOM     20  C   UNL     1      -2.854   7.373  -4.921  0.00  0.00    -0.096 C 
ATOM     21  H   UNL     1      -3.751   9.259  -4.922  0.00  0.00    -0.082 HD
ENDBRANCH   8  18
ENDBRANCH   7   8
ENDBRANCH   1   7
BRANCH   4  22
ATOM     22  C   UNL     1       0.417  10.096   1.202  0.00  0.00    +0.141 C 
BRANCH  22  23
ATOM     23  C   UNL     1       1.669  10.771   1.701  0.00  0.00    -0.023 A 
ATOM     24  C   UNL     1       2.762  10.029   2.028  0.00  0.00    +0.006 A 
ATOM     25  C   UNL     1       3.928  10.636   2.492  0.00  0.00    +0.001 A 
ATOM     26  C   UNL     1       4.010  11.988   2.621  0.00  0.00    +0.008 A 
ATOM     27  C   UNL     1       2.905  12.788   2.283  0.00  0.00    -0.018 A 
ATOM     28  C   UNL     1       1.718  12.171   1.817  0.00  0.00    -0.013 A 
ATOM     29  C   UNL     1       0.615  12.971   1.473  0.00  0.00    +0.009 A 
ATOM     30  C   UNL     1       0.699  14.323   1.597  0.00  0.00    +0.001 A 
ATOM     31  C   UNL     1       1.865  14.930   2.061  0.00  0.00    +0.001 A 
ATOM     32  C   UNL     1       2.953  14.187   2.404  0.00  0.00    +0.008 A 
ENDBRANCH  22  23
ENDBRANCH   4  22
TORSDOF 7
