REMARK  Name = ZINC17124384
REMARK  5 active torsions:
REMARK  status: ('A' for Active; 'I' for Inactive)
REMARK    1  A    between atoms: C_1  and  C_2
REMARK    2  A    between atoms: C_2  and  C_3
REMARK    3  A    between atoms: C_15  and  C_17
REMARK    4  A    between atoms: C_25  and  C_28
REMARK    5  A    between atoms: C_32  and  N_34
REMARK                            x       y       z     vdW  Elec       q    Type
REMARK                         _______ _______ _______ _____ _____    ______ ____
ROOT
ATOM      1  C   UNL     1       1.721   5.827   1.977  0.00  0.00    +0.220 C 
ATOM      2  O   UNL     1       2.879   5.473   2.042  0.00  0.00    -0.275 OA
ATOM      3  N   UNL     1       0.930   5.365   0.988  0.00  0.00    -0.255 N 
ATOM      4  C   UNL     1      -0.402   5.779   0.924  0.00  0.00    +0.058 A 
ATOM      5  C   UNL     1      -1.325   5.397   1.884  0.00  0.00    +0.025 A 
ATOM      6  C   UNL     1      -2.656   5.740   1.723  0.00  0.00    +0.002 A 
ATOM      7  C   UNL     1      -3.064   6.460   0.614  0.00  0.00    +0.002 A 
ATOM      8  C   UNL     1      -2.140   6.862  -0.335  0.00  0.00    +0.025 A 
ATOM      9  C   UNL     1      -0.806   6.534  -0.166  0.00  0.00    +0.053 A 
ATOM     10  N   UNL     1       0.178   6.944  -1.057  0.00  0.00    -0.316 N 
ATOM     11  C   UNL     1       0.917   6.109  -1.832  0.00  0.00    +0.017 C 
ATOM     12  C   UNL     1       1.521   4.991  -1.398  0.00  0.00    +0.040 C 
ATOM     13  C   UNL     1       1.476   4.447   0.010  0.00  0.00    +0.182 C 
ATOM     14  C   UNL     1       2.289   4.204  -2.289  0.00  0.00    +0.163 C 
ATOM     15  O   UNL     1       2.813   3.189  -1.873  0.00  0.00    -0.292 OA
ATOM     16  C   UNL     1       2.482   4.579  -3.728  0.00  0.00    +0.088 C 
ATOM     17  C   UNL     1       2.380   6.104  -3.854  0.00  0.00    +0.032 C 
ATOM     18  C   UNL     1       1.025   6.527  -3.289  0.00  0.00    +0.059 C 
ATOM     19  H   UNL     1       0.405   8.014  -1.172  0.00  0.00    +0.152 HD
ENDROOT
BRANCH  17  20
ATOM     20  C   UNL     1       2.478   6.505  -5.303  0.00  0.00    -0.041 A 
ATOM     21  C   UNL     1       1.550   6.037  -6.215  0.00  0.00    +0.004 A 
ATOM     22  C   UNL     1       1.640   6.405  -7.544  0.00  0.00    +0.002 A 
ATOM     23  C   UNL     1       2.659   7.240  -7.962  0.00  0.00    +0.033 A 
ATOM     24  C   UNL     1       3.587   7.708  -7.051  0.00  0.00    +0.126 A 
ATOM     25  C   UNL     1       3.494   7.345  -5.720  0.00  0.00    +0.036 A 
BRANCH  24  26
ATOM     26  N   UNL     1       4.678   8.604  -7.498  0.00  0.00    +0.056 N 
ATOM     27  O   UNL     1       4.757   8.928  -8.670  0.00  0.00    -0.126 OA
ATOM     28  O   UNL     1       5.495   9.016  -6.695  0.00  0.00    -0.126 OA
ENDBRANCH  24  26
ENDBRANCH  17  20
BRANCH  13  29
ATOM     29  C   UNL     1       0.640   3.193   0.012  0.00  0.00    +0.130 A 
ATOM     30  C   UNL     1       1.111   1.934   0.002  0.00  0.00    +0.047 A 
ATOM     31  C   UNL     1      -0.013   1.076   0.008  0.00  0.00    +0.041 A 
ATOM     32  C   UNL     1      -1.103   1.863   0.017  0.00  0.00    +0.195 A 
ATOM     33  O   UNL     1      -0.702   3.144   0.024  0.00  0.00    -0.466 OA
ENDBRANCH  13  29
BRANCH   1  35
ATOM     34  C   UNL     1       2.262   7.148   4.004  0.00  0.00    +0.013 C 
ATOM     35  C   UNL     1       1.166   6.782   3.002  0.00  0.00    +0.093 C 
ENDBRANCH   1  35
TORSDOF 4
