REMARK  Name = ZINC41108211
REMARK  5 active torsions:
REMARK  status: ('A' for Active; 'I' for Inactive)
REMARK    1  A    between atoms: C_1  and  C_2
REMARK    2  A    between atoms: C_2  and  C_3
REMARK    3  A    between atoms: C_6  and  N_9
REMARK    4  A    between atoms: C_13  and  C_14
REMARK    5  A    between atoms: C_24  and  C_26
REMARK                            x       y       z     vdW  Elec       q    Type
REMARK                         _______ _______ _______ _____ _____    ______ ____
ROOT
ATOM      1  C   UNL     1       4.312  -0.060  -4.716  0.00  0.00    +0.042 C 
ATOM      2  C   UNL     1       3.880   0.486  -3.519  0.00  0.00    +0.082 C 
ATOM      3  C   UNL     1       4.407   1.783  -3.015  0.00  0.00    +0.153 C 
ATOM      4  N   UNL     1       4.763   2.768  -3.799  0.00  0.00    -0.283 NA
ATOM      5  N   UNL     1       4.484   1.848  -1.607  0.00  0.00    -0.152 N 
ATOM      6  C   UNL     1       3.659   1.010  -0.886  0.00  0.00    +0.181 C 
ATOM      7  N   UNL     1       2.868   0.077  -1.351  0.00  0.00    -0.152 NA
ATOM      8  C   UNL     1       2.865  -0.186  -2.676  0.00  0.00    +0.273 C 
ATOM      9  O   UNL     1       2.054  -0.957  -3.164  0.00  0.00    -0.268 OA
ATOM     10  S   UNL     1       3.979   1.514   0.784  0.00  0.00    -0.033 S 
ATOM     11  C   UNL     1       5.247   2.723   0.426  0.00  0.00    +0.130 C 
ATOM     12  N   UNL     1       5.305   2.686  -0.883  0.00  0.00    -0.164 NA
ATOM     13  H   UNL     1       5.101   3.593  -3.418  0.00  0.00    +0.188 HD
ENDROOT
BRANCH  11  14
ATOM     14  C   UNL     1       6.029   3.554   1.367  0.00  0.00    +0.009 A 
ATOM     15  C   UNL     1       6.980   4.453   0.883  0.00  0.00    +0.013 A 
ATOM     16  C   UNL     1       7.707   5.226   1.765  0.00  0.00    +0.039 A 
ATOM     17  C   UNL     1       7.494   5.110   3.129  0.00  0.00    +0.123 A 
ATOM     18  C   UNL     1       6.552   4.218   3.615  0.00  0.00    +0.039 A 
ATOM     19  C   UNL     1       5.816   3.445   2.742  0.00  0.00    +0.013 A 
ATOM     20  F   UNL     1       8.209   5.869   3.989  0.00  0.00    -0.205 F 
ENDBRANCH  11  14
BRANCH   1  25
ATOM     21  N   UNL     1       3.963  -2.491  -4.316  0.00  0.00    -0.316 N 
ATOM     22  C   UNL     1       3.457  -3.530  -5.030  0.00  0.00    +0.092 A 
ATOM     23  C   UNL     1       3.070  -3.080  -6.250  0.00  0.00    +0.020 A 
ATOM     24  C   UNL     1       3.338  -1.712  -6.312  0.00  0.00    +0.027 A 
ATOM     25  C   UNL     1       3.894  -1.350  -5.092  0.00  0.00    +0.047 A 
BRANCH  21  29
ATOM     26  C   UNL     1       5.458  -2.707  -0.432  0.00  0.00    -0.047 A 
ATOM     27  C   UNL     1       4.207  -3.221  -0.719  0.00  0.00    +0.005 A 
ATOM     28  C   UNL     1       3.709  -3.151  -2.006  0.00  0.00    +0.026 A 
ATOM     29  C   UNL     1       4.465  -2.563  -3.011  0.00  0.00    +0.047 A 
ATOM     30  C   UNL     1       5.721  -2.047  -2.719  0.00  0.00    +0.026 A 
ATOM     31  C   UNL     1       6.212  -2.116  -1.429  0.00  0.00    +0.005 A 
BRANCH  26  33
ATOM     32  C   UNL     1       5.581  -1.535   1.750  0.00  0.00    +0.009 C 
ATOM     33  C   UNL     1       5.998  -2.785   0.973  0.00  0.00    +0.032 C 
ENDBRANCH  26  33
ENDBRANCH  21  29
ENDBRANCH   1  25
TORSDOF 4
