REMARK  Name = ZINC27550724
REMARK  8 active torsions:
REMARK  status: ('A' for Active; 'I' for Inactive)
REMARK    1  A    between atoms: C_1  and  C_2
REMARK    2  A    between atoms: C_4  and  C_8
REMARK    3  A    between atoms: C_5  and  C_7
REMARK    4  A    between atoms: C_10  and  C_37
REMARK    5  A    between atoms: C_11  and  N_36
REMARK    6  A    between atoms: N_12  and  C_27
REMARK    7  A    between atoms: C_18  and  C_21
REMARK    8  A    between atoms: C_30  and  N_33
REMARK                            x       y       z     vdW  Elec       q    Type
REMARK                         _______ _______ _______ _____ _____    ______ ____
ROOT
ATOM      1  C   UNL     1      -2.103   3.234  -2.801  0.00  0.00    +0.098 C 
ATOM      2  C   UNL     1      -1.121   2.663  -3.781  0.00  0.00    +0.077 C 
ATOM      3  C   UNL     1      -0.469   1.500  -3.523  0.00  0.00    +0.107 C 
ATOM      4  N   UNL     1      -0.696   0.827  -2.344  0.00  0.00    -0.260 N 
ATOM      5  C   UNL     1      -1.241   1.476  -1.267  0.00  0.00    +0.025 C 
ATOM      6  C   UNL     1      -1.921   2.630  -1.431  0.00  0.00    +0.025 C 
ATOM      7  C   UNL     1      -2.485   3.302  -0.332  0.00  0.00    +0.162 C 
ATOM      8  O   UNL     1      -3.075   4.348  -0.512  0.00  0.00    -0.292 OA
ATOM      9  C   UNL     1      -2.369   2.749   1.062  0.00  0.00    +0.088 C 
ATOM     10  C   UNL     1      -2.256   1.223   0.985  0.00  0.00    +0.032 C 
ATOM     11  C   UNL     1      -1.057   0.870   0.103  0.00  0.00    +0.060 C 
ENDROOT
BRANCH   1  15
ATOM     12  C   UNL     1      -5.894   0.121  -4.171  0.00  0.00    +0.051 C 
ATOM     13  C   UNL     1      -5.198   1.430  -3.900  0.00  0.00    -0.013 A 
ATOM     14  C   UNL     1      -3.933   1.650  -3.465  0.00  0.00    +0.015 A 
ATOM     15  C   UNL     1      -3.503   2.951  -3.283  0.00  0.00    -0.025 A 
ATOM     16  C   UNL     1      -4.361   3.968  -3.540  0.00  0.00    -0.009 A 
ATOM     17  S   UNL     1      -5.825   3.093  -4.066  0.00  0.00    -0.098 S 
ATOM     18  C   UNL     1      -4.136   5.453  -3.415  0.00  0.00    +0.052 C 
ENDBRANCH   1  15
BRANCH  10  19
ATOM     19  C   UNL     1      -2.050   0.661   2.368  0.00  0.00    -0.044 A 
ATOM     20  C   UNL     1      -0.955   1.050   3.117  0.00  0.00    +0.004 A 
ATOM     21  C   UNL     1      -0.769   0.538   4.387  0.00  0.00    +0.000 A 
ATOM     22  C   UNL     1      -1.672  -0.372   4.905  0.00  0.00    +0.000 A 
ATOM     23  C   UNL     1      -2.764  -0.765   4.154  0.00  0.00    +0.000 A 
ATOM     24  C   UNL     1      -2.953  -0.249   2.886  0.00  0.00    +0.004 A 
ENDBRANCH  10  19
BRANCH   4  25
ATOM     25  C   UNL     1      -0.370  -0.531  -2.245  0.00  0.00    +0.040 A 
ATOM     26  C   UNL     1       0.900  -0.913  -1.833  0.00  0.00    +0.026 A 
ATOM     27  C   UNL     1       1.218  -2.253  -1.731  0.00  0.00    +0.034 A 
ATOM     28  C   UNL     1       0.276  -3.214  -2.049  0.00  0.00    +0.126 A 
ATOM     29  C   UNL     1      -0.988  -2.837  -2.465  0.00  0.00    +0.034 A 
ATOM     30  C   UNL     1      -1.313  -1.499  -2.564  0.00  0.00    +0.026 A 
BRANCH  28  31
ATOM     31  N   UNL     1       0.622  -4.650  -1.944  0.00  0.00    +0.056 N 
ATOM     32  O   UNL     1      -0.207  -5.498  -2.225  0.00  0.00    -0.126 OA
ATOM     33  O   UNL     1       1.734  -4.983  -1.578  0.00  0.00    -0.126 OA
ENDBRANCH  28  31
ENDBRANCH   4  25
BRANCH   3  34
ATOM     34  N   UNL     1       0.420   0.994  -4.442  0.00  0.00    -0.345 N 
ATOM     35  H   UNL     1       0.949   0.052  -4.234  0.00  0.00    +0.144 HD
ATOM     36  H   UNL     1       0.602   1.530  -5.384  0.00  0.00    +0.144 HD
ENDBRANCH   3  34
BRANCH   2  37
ATOM     37  C   UNL     1      -0.867   3.355  -5.008  0.00  0.00    +0.099 C 
ATOM     38  N   UNL     1      -0.666   3.905  -5.981  0.00  0.00    -0.191 NA
ENDBRANCH   2  37
TORSDOF 6
