REMARK  Name = ZINC63848212
REMARK  3 active torsions:
REMARK  status: ('A' for Active; 'I' for Inactive)
REMARK    1  A    between atoms: C_4  and  N_7
REMARK    2  A    between atoms: C_9  and  C_12
REMARK    3  A    between atoms: N_14  and  C_15
REMARK                            x       y       z     vdW  Elec       q    Type
REMARK                         _______ _______ _______ _____ _____    ______ ____
ROOT
ATOM      1  C   UNL     1       6.030  -3.502  -0.083  0.00  0.00    +0.247 C 
ATOM      2  O   UNL     1       7.247  -3.502  -0.091  0.00  0.00    -0.270 OA
ATOM      3  N   UNL     1       5.357  -4.670  -0.088  0.00  0.00    -0.283 N 
ATOM      4  H   UNL     1       4.390  -4.673  -0.008  0.00  0.00    +0.155 HD
ENDROOT
BRANCH   3   5
ATOM      5  C   UNL     1       6.032  -5.844  -0.207  0.00  0.00    +0.039 C 
ATOM      6  C   UNL     1       5.490  -7.113  -0.327  0.00  0.00    +0.017 A 
ATOM      7  C   UNL     1       4.155  -7.581  -0.362  0.00  0.00    +0.011 A 
ATOM      8  C   UNL     1       3.912  -8.909  -0.489  0.00  0.00    +0.001 A 
ATOM      9  C   UNL     1       4.951  -9.838  -0.588  0.00  0.00    +0.002 A 
ATOM     10  C   UNL     1       6.253  -9.462  -0.561  0.00  0.00    +0.026 A 
ATOM     11  C   UNL     1       6.588  -8.089  -0.431  0.00  0.00    +0.044 A 
ATOM     12  N   UNL     1       7.754  -7.477  -0.380  0.00  0.00    -0.379 N 
ATOM     13  C   UNL     1       7.533  -6.034  -0.244  0.00  0.00    +0.164 C 
ATOM     14  H   UNL     1       8.620  -7.911  -0.430  0.00  0.00    +0.160 HD
ENDBRANCH   3   5
BRANCH   1  17
ATOM     15  N   UNL     1       3.619  -0.649  -0.041  0.00  0.00    -0.249 N 
ATOM     16  C   UNL     1       3.819  -2.108  -0.055  0.00  0.00    +0.169 C 
ATOM     17  C   UNL     1       5.323  -2.280  -0.067  0.00  0.00    +0.048 C 
ATOM     18  C   UNL     1       5.858  -1.043  -0.060  0.00  0.00    +0.098 C 
ATOM     19  N   UNL     1       4.900  -0.081  -0.051  0.00  0.00    -0.270 N 
ATOM     20  H   UNL     1       5.078   0.872  -0.049  0.00  0.00    +0.169 HD
BRANCH  15  24
ATOM     21  C   UNL     1      -0.017   1.379   0.001  0.00  0.00    +0.000 A 
ATOM     22  C   UNL     1       1.169   2.089  -0.007  0.00  0.00    +0.002 A 
ATOM     23  C   UNL     1       2.377   1.420  -0.020  0.00  0.00    +0.025 A 
ATOM     24  C   UNL     1       2.400   0.031  -0.027  0.00  0.00    +0.048 A 
ATOM     25  C   UNL     1       1.206  -0.680  -0.019  0.00  0.00    +0.025 A 
ATOM     26  C   UNL     1       0.002  -0.004  -0.006  0.00  0.00    +0.002 A 
ENDBRANCH  15  24
ENDBRANCH   1  17
TORSDOF 3
