REMARK  Name = ZINC38651685
REMARK  10 active torsions:
REMARK  status: ('A' for Active; 'I' for Inactive)
REMARK    1  A    between atoms: C_1  and  C_2
REMARK    2  A    between atoms: C_2  and  C_3
REMARK    3  A    between atoms: C_2  and  O_4
REMARK    4  A    between atoms: O_4  and  C_5
REMARK    5  A    between atoms: C_8  and  C_11
REMARK    6  A    between atoms: C_11  and  O_13
REMARK    7  A    between atoms: O_13  and  C_14
REMARK    8  A    between atoms: C_21  and  N_34
REMARK    9  A    between atoms: C_22  and  C_32
REMARK   10  A    between atoms: C_23  and  C_25
REMARK                            x       y       z     vdW  Elec       q    Type
REMARK                         _______ _______ _______ _____ _____    ______ ____
ROOT
ATOM      1  C   UNL     1       8.161  -1.846  -1.216  0.00  0.00    +0.135 A 
ATOM      2  C   UNL     1       8.776  -1.589   0.002  0.00  0.00    +0.047 A 
ATOM      3  C   UNL     1      10.140  -1.756   0.135  0.00  0.00    +0.012 A 
ATOM      4  C   UNL     1      10.899  -2.180  -0.942  0.00  0.00    +0.008 A 
ATOM      5  C   UNL     1      10.290  -2.438  -2.160  0.00  0.00    +0.138 A 
ATOM      6  C   UNL     1       8.918  -2.275  -2.294  0.00  0.00    +0.093 A 
ATOM      7  O   UNL     1      11.017  -2.854  -3.226  0.00  0.00    -0.441 OA
ATOM      8  C   UNL     1      12.236  -3.387  -3.040  0.00  0.00    +0.199 C 
ATOM      9  C   UNL     1      12.938  -3.188  -1.899  0.00  0.00    +0.098 C 
ATOM     10  C   UNL     1      12.385  -2.357  -0.776  0.00  0.00    +0.098 C 
ENDROOT
BRANCH  10  11
ATOM     11  C   UNL     1      13.052  -1.005  -0.781  0.00  0.00    -0.035 A 
ATOM     12  C   UNL     1      12.928  -0.178  -1.881  0.00  0.00    +0.005 A 
ATOM     13  C   UNL     1      13.539   1.062  -1.887  0.00  0.00    +0.015 A 
ATOM     14  C   UNL     1      14.275   1.475  -0.790  0.00  0.00    +0.018 A 
ATOM     15  C   UNL     1      14.399   0.646   0.310  0.00  0.00    +0.015 A 
ATOM     16  C   UNL     1      13.783  -0.591   0.317  0.00  0.00    +0.005 A 
ATOM     17 BR   UNL     1      15.111   3.171  -0.797  0.00  0.00    -0.050 Br
ENDBRANCH  10  11
BRANCH   8  18
ATOM     18  N   UNL     1      12.787  -4.155  -4.035  0.00  0.00    -0.328 N 
ATOM     19  H   UNL     1      12.297  -4.306  -4.859  0.00  0.00    +0.145 HD
ATOM     20  H   UNL     1      13.667  -4.546  -3.916  0.00  0.00    +0.145 HD
ENDBRANCH   8  18
BRANCH   9  21
ATOM     21  C   UNL     1      14.233  -3.783  -1.760  0.00  0.00    +0.101 C 
ATOM     22  N   UNL     1      15.261  -4.255  -1.649  0.00  0.00    -0.191 NA
ENDBRANCH   9  21
BRANCH   1  23
ATOM     23  O   UNL     1       6.819  -1.682  -1.349  0.00  0.00    -0.422 OA
BRANCH  23  24
ATOM     24  C   UNL     1       6.064  -2.780  -1.546  0.00  0.00    +0.344 C 
ATOM     25  O   UNL     1       6.572  -3.883  -1.503  0.00  0.00    -0.245 OA
BRANCH  24  29
ATOM     26  C   UNL     1       1.907  -2.389  -2.317  0.00  0.00    +0.121 A 
ATOM     27  C   UNL     1       2.487  -3.651  -2.269  0.00  0.00    +0.046 A 
ATOM     28  C   UNL     1       3.835  -3.783  -2.019  0.00  0.00    +0.018 A 
ATOM     29  C   UNL     1       4.620  -2.644  -1.814  0.00  0.00    +0.060 A 
ATOM     30  C   UNL     1       4.032  -1.377  -1.863  0.00  0.00    +0.018 A 
ATOM     31  C   UNL     1       2.685  -1.254  -2.119  0.00  0.00    +0.046 A 
BRANCH  26  32
ATOM     32  O   UNL     1       0.579  -2.264  -2.563  0.00  0.00    -0.489 OA
BRANCH  32  34
ATOM     33  C   UNL     1      -0.552  -3.972  -1.280  0.00  0.00    +0.051 C 
ATOM     34  C   UNL     1      -0.177  -3.471  -2.677  0.00  0.00    +0.167 C 
ATOM     35  C   UNL     1      -1.450  -3.203  -3.482  0.00  0.00    +0.051 C 
ENDBRANCH  32  34
ENDBRANCH  26  32
ENDBRANCH  24  29
ENDBRANCH  23  24
ENDBRANCH   1  23
TORSDOF 8
