REMARK  Name = ZINC11852019
REMARK  13 active torsions:
REMARK  status: ('A' for Active; 'I' for Inactive)
REMARK    1  A    between atoms: C_1  and  N_51
REMARK    2  A    between atoms: C_2  and  N_51
REMARK    3  A    between atoms: C_3  and  C_4
REMARK    4  A    between atoms: C_3  and  N_51
REMARK    5  A    between atoms: C_4  and  O_5
REMARK    6  A    between atoms: O_5  and  C_6
REMARK    7  A    between atoms: C_8  and  O_24
REMARK    8  A    between atoms: C_11  and  C_12
REMARK    9  A    between atoms: C_12  and  N_13
REMARK   10  A    between atoms: N_13  and  S_14
REMARK   11  A    between atoms: S_14  and  C_17
REMARK   12  A    between atoms: C_20  and  N_23
REMARK   13  A    between atoms: O_24  and  C_25
REMARK                            x       y       z     vdW  Elec       q    Type
REMARK                         _______ _______ _______ _____ _____    ______ ____
ROOT
ATOM      1  C   UNL     1       1.302   4.563   4.645  0.00  0.00    +0.128 A 
ATOM      2  C   UNL     1       1.323   5.292   5.824  0.00  0.00    +0.091 A 
ATOM      3  C   UNL     1       2.057   6.464   5.899  0.00  0.00    +0.124 A 
ATOM      4  C   UNL     1       2.775   6.904   4.795  0.00  0.00    +0.046 A 
ATOM      5  C   UNL     1       2.757   6.174   3.623  0.00  0.00    +0.012 A 
ATOM      6  C   UNL     1       2.025   5.004   3.546  0.00  0.00    +0.010 A 
ENDROOT
BRANCH   3   7
ATOM      7  O   UNL     1       2.075   7.184   7.052  0.00  0.00    -0.495 OA
ATOM      8  C   UNL     1       2.853   8.382   7.057  0.00  0.00    +0.277 C 
ENDBRANCH   3   7
BRANCH   1   9
ATOM      9  O   UNL     1       0.578   3.416   4.567  0.00  0.00    -0.493 OA
BRANCH   9  10
ATOM     10  C   UNL     1      -0.142   3.022   5.737  0.00  0.00    +0.210 C 
BRANCH  10  11
ATOM     11  C   UNL     1      -0.891   1.717   5.460  0.00  0.00    -0.038 C 
BRANCH  11  14
ATOM     12  C   UNL     1       0.686   0.188   6.479  0.00  0.00    -0.096 C 
ATOM     13  C   UNL     1      -0.550  -0.484   4.508  0.00  0.00    -0.096 C 
ATOM     14  N   UNL     1       0.098   0.649   5.203  0.00  0.00    +0.378 N 
ATOM     15  H   UNL     1       0.845   1.022   4.607  0.00  0.00    -0.082 HD
ENDBRANCH  11  14
ENDBRANCH  10  11
ENDBRANCH   9  10
ENDBRANCH   1   9
BRANCH   6  16
ATOM     16  C   UNL     1       2.007   4.210   2.265  0.00  0.00    +0.144 C 
BRANCH  16  17
ATOM     17  N   UNL     1       0.773   4.496   1.530  0.00  0.00    -0.186 NA
ATOM     18  H   UNL     1       0.034   4.937   1.976  0.00  0.00    +0.148 HD
BRANCH  17  19
ATOM     19  S   UNL     1       0.641   4.068  -0.065  0.00  0.00    +0.059 S 
ATOM     20  O   UNL     1       1.815   4.539  -0.711  0.00  0.00    -0.153 OA
ATOM     21  O   UNL     1      -0.663   4.450  -0.481  0.00  0.00    -0.153 OA
BRANCH  19  22
ATOM     22  C   UNL     1       0.697   2.308  -0.137  0.00  0.00    +0.105 A 
ATOM     23  C   UNL     1      -0.473   1.576  -0.055  0.00  0.00    +0.030 A 
ATOM     24  C   UNL     1      -0.432   0.197  -0.112  0.00  0.00    +0.024 A 
ATOM     25  C   UNL     1       0.786  -0.455  -0.253  0.00  0.00    +0.025 A 
ATOM     26  C   UNL     1       1.960   0.283  -0.335  0.00  0.00    +0.024 A 
ATOM     27  C   UNL     1       1.912   1.662  -0.277  0.00  0.00    +0.030 A 
BRANCH  25  28
ATOM     28  N   UNL     1       0.831  -1.850  -0.310  0.00  0.00    -0.358 N 
ATOM     29  H   UNL     1       0.011  -2.364  -0.252  0.00  0.00    +0.142 HD
ATOM     30  H   UNL     1       1.683  -2.304  -0.408  0.00  0.00    +0.142 HD
ENDBRANCH  25  28
ENDBRANCH  19  22
ENDBRANCH  17  19
ENDBRANCH  16  17
ENDBRANCH   6  16
TORSDOF 10
