REMARK  Name = ZINC20727720
REMARK  10 active torsions:
REMARK  status: ('A' for Active; 'I' for Inactive)
REMARK    1  A    between atoms: C_1  and  C_2
REMARK    2  A    between atoms: C_2  and  C_3
REMARK    3  A    between atoms: C_2  and  C_4
REMARK    4  A    between atoms: C_2  and  C_5
REMARK    5  A    between atoms: N_11  and  C_24
REMARK    6  A    between atoms: C_15  and  C_16
REMARK    7  A    between atoms: C_24  and  C_25
REMARK    8  A    between atoms: N_27  and  C_28
REMARK    9  A    between atoms: C_28  and  C_29
REMARK   10  A    between atoms: C_29  and  N_30
REMARK                            x       y       z     vdW  Elec       q    Type
REMARK                         _______ _______ _______ _____ _____    ______ ____
ROOT
ATOM      1  C   UNL     1       4.906   7.802   1.835  0.00  0.00    -0.040 A 
ATOM      2  C   UNL     1       6.081   7.128   1.555  0.00  0.00    +0.008 A 
ATOM      3  C   UNL     1       6.048   5.930   0.864  0.00  0.00    +0.048 A 
ATOM      4  C   UNL     1       4.835   5.404   0.452  0.00  0.00    +0.150 A 
ATOM      5  C   UNL     1       3.650   6.081   0.734  0.00  0.00    +0.080 A 
ATOM      6  C   UNL     1       3.692   7.283   1.427  0.00  0.00    +0.031 A 
ATOM      7  N   UNL     1       2.421   5.552   0.321  0.00  0.00    -0.253 N 
ATOM      8  C   UNL     1       2.372   4.266  -0.110  0.00  0.00    +0.287 C 
ATOM      9  O   UNL     1       1.328   3.758  -0.473  0.00  0.00    -0.266 OA
ATOM     10  C   UNL     1       3.639   3.505  -0.117  0.00  0.00    +0.191 C 
ATOM     11  C   UNL     1       3.652   2.156  -0.022  0.00  0.00    +0.059 C 
ATOM     12  O   UNL     1       4.797   4.224  -0.229  0.00  0.00    -0.449 OA
ENDROOT
BRANCH  11  13
ATOM     13  C   UNL     1       2.412   1.429   0.288  0.00  0.00    -0.021 A 
ATOM     14  C   UNL     1       2.149   0.197  -0.322  0.00  0.00    +0.009 A 
ATOM     15  C   UNL     1       0.985  -0.479  -0.027  0.00  0.00    +0.020 A 
ATOM     16  C   UNL     1       0.076   0.057   0.871  0.00  0.00    +0.041 A 
ATOM     17  C   UNL     1       0.330   1.276   1.478  0.00  0.00    +0.020 A 
ATOM     18  C   UNL     1       1.490   1.964   1.192  0.00  0.00    +0.009 A 
ATOM     19 CL   UNL     1      -1.388  -0.802   1.236  0.00  0.00    -0.084 Cl
ENDBRANCH  11  13
BRANCH   1  21
ATOM     20  C   UNL     1       4.148   8.976   3.883  0.00  0.00    +0.015 C 
ATOM     21  C   UNL     1       4.950   9.107   2.587  0.00  0.00    -0.013 C 
ATOM     22  C   UNL     1       6.402   9.455   2.919  0.00  0.00    +0.015 C 
ATOM     23  C   UNL     1       4.345  10.214   1.722  0.00  0.00    +0.015 C 
ENDBRANCH   1  21
BRANCH   7  24
ATOM     24  C   UNL     1       1.208   6.374   0.348  0.00  0.00    +0.209 C 
BRANCH  24  25
ATOM     25  C   UNL     1       1.054   7.086  -0.971  0.00  0.00    +0.231 C 
ATOM     26  O   UNL     1       1.876   6.923  -1.848  0.00  0.00    -0.274 OA
ATOM     27  N   UNL     1       0.003   7.904  -1.177  0.00  0.00    -0.316 N 
ATOM     28  H   UNL     1      -0.743   8.052  -0.382  0.00  0.00    +0.149 HD
BRANCH  27  29
ATOM     29  C   UNL     1      -0.147   8.596  -2.460  0.00  0.00    +0.086 C 
BRANCH  29  30
ATOM     30  C   UNL     1      -1.413   9.454  -2.431  0.00  0.00    -0.060 C 
BRANCH  30  31
ATOM     31  N   UNL     1      -1.563  10.148  -3.717  0.00  0.00    +0.381 N 
ATOM     32  C   UNL     1      -1.493   9.190  -4.850  0.00  0.00    -0.079 C 
ATOM     33  C   UNL     1      -2.175   9.960  -6.009  0.00  0.00    -0.020 C 
ATOM     34  C   UNL     1      -3.319  10.716  -5.295  0.00  0.00    -0.020 C 
ATOM     35  C   UNL     1      -2.889  10.796  -3.818  0.00  0.00    -0.079 C 
ATOM     36  H   UNL     1      -0.749  10.887  -3.756  0.00  0.00    -0.082 HD
ENDBRANCH  30  31
ENDBRANCH  29  30
ENDBRANCH  27  29
ENDBRANCH  24  25
ENDBRANCH   7  24
TORSDOF 7
