REMARK  Name = ZINC11932836
REMARK  6 active torsions:
REMARK  status: ('A' for Active; 'I' for Inactive)
REMARK    1  A    between atoms: C_1  and  O_2
REMARK    2  A    between atoms: O_2  and  C_3
REMARK    3  A    between atoms: C_3  and  C_4
REMARK    4  A    between atoms: C_7  and  C_9
REMARK    5  A    between atoms: C_9  and  N_51
REMARK    6  A    between atoms: C_22  and  C_24
REMARK                            x       y       z     vdW  Elec       q    Type
REMARK                         _______ _______ _______ _____ _____    ______ ____
ROOT
ATOM      1  C   UNL     1       2.989   2.980   2.057  0.00  0.00    -0.072 C 
ATOM      2  C   UNL     1       2.886   3.188   3.574  0.00  0.00    +0.019 C 
ATOM      3  C   UNL     1       2.724   4.665   3.832  0.00  0.00    -0.022 A 
ATOM      4  C   UNL     1       2.886   5.403   5.064  0.00  0.00    +0.003 A 
ATOM      5  C   UNL     1       3.228   5.021   6.365  0.00  0.00    +0.010 A 
ATOM      6  C   UNL     1       3.290   6.015   7.310  0.00  0.00    +0.001 A 
ATOM      7  C   UNL     1       3.026   7.340   7.003  0.00  0.00    +0.002 A 
ATOM      8  C   UNL     1       2.685   7.747   5.725  0.00  0.00    +0.026 A 
ATOM      9  C   UNL     1       2.615   6.760   4.745  0.00  0.00    +0.047 A 
ATOM     10  N   UNL     1       2.314   6.812   3.413  0.00  0.00    -0.359 N 
ATOM     11  H   UNL     1       2.087   7.618   2.924  0.00  0.00    +0.166 HD
ATOM     12  C   UNL     1       2.379   5.556   2.875  0.00  0.00    +0.012 A 
ATOM     13  C   UNL     1       2.115   5.162   1.440  0.00  0.00    +0.030 C 
ATOM     14  N   UNL     1       1.873   3.700   1.402  0.00  0.00    +0.394 N 
ATOM     15  H   UNL     1       1.003   3.494   1.907  0.00  0.00    -0.080 HD
ENDROOT
BRANCH  13  16
ATOM     16  C   UNL     1       0.885   5.874   0.938  0.00  0.00    +0.033 A 
ATOM     17  C   UNL     1       0.999   7.148   0.414  0.00  0.00    +0.022 A 
ATOM     18  C   UNL     1      -0.137   7.791  -0.051  0.00  0.00    +0.003 A 
ATOM     19  C   UNL     1      -1.353   7.130   0.040  0.00  0.00    +0.020 A 
ATOM     20  C   UNL     1      -1.391   5.860   0.581  0.00  0.00    +0.111 A 
ATOM     21  N   UNL     1      -0.288   5.276   1.008  0.00  0.00    -0.261 NA
ENDBRANCH  13  16
BRANCH  14  22
ATOM     22  C   UNL     1       1.735   3.249   0.003  0.00  0.00    -0.002 C 
BRANCH  22  26
ATOM     23  C   UNL     1       1.295  -0.376  -0.012  0.00  0.00    +0.131 A 
ATOM     24  C   UNL     1       0.002  -0.004   0.002  0.00  0.00    +0.047 A 
ATOM     25  C   UNL     1      -0.017   1.410   0.010  0.00  0.00    +0.043 A 
ATOM     26  C   UNL     1       1.265   1.817  -0.000  0.00  0.00    +0.089 A 
ATOM     27  O   UNL     1       2.055   0.731  -0.014  0.00  0.00    -0.464 OA
BRANCH  23  28
ATOM     28  C   UNL     1       1.803  -1.795  -0.025  0.00  0.00    +0.233 C 
BRANCH  28  30
ATOM     29  C   UNL     1       2.431  -3.576  -1.502  0.00  0.00    +0.194 C 
ATOM     30  O   UNL     1       1.951  -2.235  -1.377  0.00  0.00    -0.375 OA
ENDBRANCH  28  30
ENDBRANCH  23  28
ENDBRANCH  22  26
ENDBRANCH  14  22
TORSDOF 5
