REMARK  Name = ZINC36019788
REMARK  14 active torsions:
REMARK  status: ('A' for Active; 'I' for Inactive)
REMARK    1  A    between atoms: C_1  and  C_2
REMARK    2  A    between atoms: C_2  and  O_3
REMARK    3  A    between atoms: O_3  and  C_4
REMARK    4  A    between atoms: C_4  and  C_6
REMARK    5  A    between atoms: C_7  and  C_24
REMARK    6  A    between atoms: N_8  and  C_21
REMARK    7  A    between atoms: C_12  and  C_14
REMARK    8  A    between atoms: C_21  and  C_22
REMARK    9  A    between atoms: C_24  and  N_25
REMARK   10  A    between atoms: C_29  and  C_32
REMARK   11  A    between atoms: N_35  and  C_36
REMARK   12  A    between atoms: C_36  and  C_37
REMARK   13  A    between atoms: C_36  and  C_38
REMARK   14  A    between atoms: C_36  and  C_39
REMARK                            x       y       z     vdW  Elec       q    Type
REMARK                         _______ _______ _______ _____ _____    ______ ____
ROOT
ATOM      1  C   UNL     1      -3.059  -2.984  -0.804  0.00  0.00    +0.080 C 
ATOM      2  C   UNL     1      -3.184  -4.327  -0.727  0.00  0.00    +0.041 C 
ATOM      3  N   UNL     1      -4.414  -4.919  -0.689  0.00  0.00    -0.254 N 
ATOM      4  C   UNL     1      -5.567  -4.239  -0.725  0.00  0.00    +0.307 C 
ATOM      5  O   UNL     1      -6.614  -4.856  -0.686  0.00  0.00    -0.252 OA
ATOM      6  N   UNL     1      -5.604  -2.894  -0.801  0.00  0.00    -0.288 N 
ATOM      7  C   UNL     1      -4.329  -2.159  -0.841  0.00  0.00    +0.144 C 
ATOM      8  H   UNL     1      -6.451  -2.422  -0.826  0.00  0.00    +0.151 HD
ENDROOT
BRANCH   7   9
ATOM      9  C   UNL     1      -4.299  -1.208   0.328  0.00  0.00    -0.021 A 
ATOM     10  C   UNL     1      -4.638  -1.655   1.591  0.00  0.00    +0.006 A 
ATOM     11  C   UNL     1      -4.610  -0.783   2.664  0.00  0.00    +0.002 A 
ATOM     12  C   UNL     1      -4.244   0.536   2.473  0.00  0.00    +0.020 A 
ATOM     13  C   UNL     1      -3.905   0.984   1.209  0.00  0.00    +0.041 A 
ATOM     14  C   UNL     1      -3.927   0.110   0.137  0.00  0.00    +0.025 A 
ATOM     15 CL   UNL     1      -3.446   2.641   0.969  0.00  0.00    -0.084 Cl
ENDBRANCH   7   9
BRANCH   1  16
ATOM     16  C   UNL     1      -1.786  -2.369  -0.843  0.00  0.00    +0.339 C 
ATOM     17  O   UNL     1      -1.343  -1.823   0.150  0.00  0.00    -0.245 OA
BRANCH  16  18
ATOM     18  O   UNL     1      -1.061  -2.389  -1.982  0.00  0.00    -0.462 OA
BRANCH  18  20
ATOM     19  C   UNL     1       0.884  -1.873  -3.320  0.00  0.00    +0.048 C 
ATOM     20  C   UNL     1       0.216  -1.749  -1.949  0.00  0.00    +0.229 C 
ENDBRANCH  18  20
ENDBRANCH  16  18
ENDBRANCH   1  16
BRANCH   3  21
ATOM     21  C   UNL     1      -4.475  -6.381  -0.606  0.00  0.00    +0.141 C 
BRANCH  21  22
ATOM     22  C   UNL     1      -4.491  -6.801   0.841  0.00  0.00    -0.015 C 
ATOM     23  C   UNL     1      -5.453  -7.569   1.290  0.00  0.00    +0.005 C 
ENDBRANCH  21  22
ENDBRANCH   3  21
BRANCH   2  24
ATOM     24  C   UNL     1      -1.946  -5.185  -0.683  0.00  0.00    +0.136 C 
BRANCH  24  25
ATOM     25  N   UNL     1      -1.851  -5.841   0.628  0.00  0.00    -0.294 NA
ATOM     26  C   UNL     1      -1.640  -4.855   1.696  0.00  0.00    +0.104 C 
ATOM     27  C   UNL     1      -1.728  -5.554   3.057  0.00  0.00    +0.125 C 
ATOM     28  N   UNL     1      -0.790  -6.687   3.062  0.00  0.00    -0.280 N 
ATOM     29  C   UNL     1      -0.850  -7.645   1.947  0.00  0.00    +0.088 C 
ATOM     30  C   UNL     1      -0.797  -6.864   0.630  0.00  0.00    +0.107 C 
ATOM     31  C   UNL     1       0.339  -8.604   2.029  0.00  0.00    +0.029 C 
ATOM     32  C   UNL     1       0.101  -6.843   4.061  0.00  0.00    +0.303 C 
ATOM     33  O   UNL     1       0.929  -7.732   4.004  0.00  0.00    -0.253 OA
ATOM     34  N   UNL     1       0.074  -6.015   5.123  0.00  0.00    -0.294 N 
ATOM     35  H   UNL     1      -0.632  -5.354   5.206  0.00  0.00    +0.151 HD
BRANCH  34  36
ATOM     36  C   UNL     1       1.111  -6.111   6.154  0.00  0.00    +0.028 C 
ATOM     37  C   UNL     1       2.482  -5.860   5.524  0.00  0.00    +0.031 C 
ATOM     38  C   UNL     1       0.849  -5.066   7.240  0.00  0.00    +0.031 C 
ATOM     39  C   UNL     1       1.083  -7.509   6.775  0.00  0.00    +0.031 C 
ENDBRANCH  34  36
ENDBRANCH  24  25
ENDBRANCH   2  24
TORSDOF 9
