REMARK  Name = ZINC63204850
REMARK  5 active torsions:
REMARK  status: ('A' for Active; 'I' for Inactive)
REMARK    1  A    between atoms: C_4  and  N_7
REMARK    2  A    between atoms: C_12  and  N_16
REMARK    3  A    between atoms: C_22  and  C_24
REMARK    4  A    between atoms: C_24  and  C_25
REMARK    5  A    between atoms: C_25  and  C_26
REMARK                            x       y       z     vdW  Elec       q    Type
REMARK                         _______ _______ _______ _____ _____    ______ ____
ROOT
ATOM      1  N   UNL     1       5.519  -1.815  -2.286  0.00  0.00    -0.290 NA
ATOM      2  C   UNL     1       5.279  -3.173  -2.794  0.00  0.00    +0.104 C 
ATOM      3  C   UNL     1       4.689  -3.090  -4.206  0.00  0.00    +0.123 C 
ATOM      4  N   UNL     1       5.578  -2.264  -5.036  0.00  0.00    -0.299 N 
ATOM      5  C   UNL     1       5.975  -0.941  -4.528  0.00  0.00    +0.123 C 
ATOM      6  C   UNL     1       6.514  -1.109  -3.104  0.00  0.00    +0.104 C 
ATOM      7  C   UNL     1       6.018  -2.706  -6.231  0.00  0.00    +0.216 C 
ATOM      8  O   UNL     1       5.680  -3.799  -6.635  0.00  0.00    -0.276 OA
ENDROOT
BRANCH   1  13
ATOM      9  N   UNL     1       8.012  -0.014  -1.069  0.00  0.00    -0.160 N 
ATOM     10  C   UNL     1       6.788   0.472  -0.784  0.00  0.00    +0.259 C 
ATOM     11  O   UNL     1       6.544   1.648  -0.948  0.00  0.00    -0.272 OA
ATOM     12  C   UNL     1       5.723  -0.459  -0.258  0.00  0.00    +0.191 C 
ATOM     13  C   UNL     1       5.922  -1.845  -0.874  0.00  0.00    +0.126 C 
ATOM     14  C   UNL     1       7.372  -2.238  -0.776  0.00  0.00    +0.124 C 
ATOM     15  N   UNL     1       8.298  -1.369  -0.877  0.00  0.00    -0.183 NA
ATOM     16 CL   UNL     1       4.095   0.174  -0.706  0.00  0.00    -0.110 Cl
BRANCH   9  20
ATOM     17  C   UNL     1      10.958   2.535  -2.550  0.00  0.00    +0.000 A 
ATOM     18  C   UNL     1       9.697   2.534  -3.117  0.00  0.00    +0.002 A 
ATOM     19  C   UNL     1       8.718   1.691  -2.629  0.00  0.00    +0.025 A 
ATOM     20  C   UNL     1       9.002   0.842  -1.567  0.00  0.00    +0.060 A 
ATOM     21  C   UNL     1      10.270   0.845  -0.999  0.00  0.00    +0.025 A 
ATOM     22  C   UNL     1      11.243   1.691  -1.492  0.00  0.00    +0.002 A 
ENDBRANCH   9  20
ENDBRANCH   1  13
BRANCH   7  23
ATOM     23  C   UNL     1       6.929  -1.843  -7.065  0.00  0.00    +0.100 C 
BRANCH  23  24
ATOM     24  C   UNL     1       7.277  -2.574  -8.363  0.00  0.00    +0.042 C 
BRANCH  24  25
ATOM     25  C   UNL     1       8.188  -1.711  -9.198  0.00  0.00    -0.041 C 
ATOM     26  C   UNL     1       9.539  -1.757  -9.239  0.00  0.00    -0.001 A 
ATOM     27  C   UNL     1      10.527  -2.592  -8.546  0.00  0.00    +0.010 A 
ATOM     28  C   UNL     1      11.841  -2.400  -8.800  0.00  0.00    +0.001 A 
ATOM     29  C   UNL     1      12.283  -1.426  -9.706  0.00  0.00    +0.002 A 
ATOM     30  C   UNL     1      11.435  -0.621 -10.380  0.00  0.00    +0.026 A 
ATOM     31  C   UNL     1      10.030  -0.736 -10.191  0.00  0.00    +0.043 A 
ATOM     32  N   UNL     1       9.022  -0.083 -10.718  0.00  0.00    -0.380 N 
ATOM     33  C   UNL     1       7.776  -0.622 -10.163  0.00  0.00    +0.144 C 
ATOM     34  H   UNL     1       9.090   0.633 -11.368  0.00  0.00    +0.160 HD
ENDBRANCH  24  25
ENDBRANCH  23  24
ENDBRANCH   7  23
TORSDOF 5
