REMARK  Name = ZINC63426814
REMARK  11 active torsions:
REMARK  status: ('A' for Active; 'I' for Inactive)
REMARK    1  A    between atoms: C_1  and  C_2
REMARK    2  A    between atoms: C_2  and  C_3
REMARK    3  A    between atoms: C_3  and  N_20
REMARK    4  A    between atoms: N_10  and  C_13
REMARK    5  A    between atoms: C_18  and  C_19
REMARK    6  A    between atoms: N_20  and  C_21
REMARK    7  A    between atoms: C_21  and  C_23
REMARK    8  A    between atoms: C_21  and  C_33
REMARK    9  A    between atoms: C_23  and  C_24
REMARK   10  A    between atoms: C_33  and  O_35
REMARK   11  A    between atoms: O_35  and  C_36
REMARK                            x       y       z     vdW  Elec       q    Type
REMARK                         _______ _______ _______ _____ _____    ______ ____
ROOT
ATOM      1  C   UNL     1       0.707  -0.490  -1.238  0.00  0.00    +0.022 C 
ATOM      2  C   UNL     1       2.078  -0.673  -1.206  0.00  0.00    +0.116 C 
ATOM      3  C   UNL     1       2.837  -1.016  -2.421  0.00  0.00    +0.258 C 
ATOM      4  O   UNL     1       2.274  -1.149  -3.492  0.00  0.00    -0.270 OA
ATOM      5  N   UNL     1       4.171  -1.179  -2.315  0.00  0.00    -0.235 N 
ATOM      6  C   UNL     1       4.803  -1.035  -1.141  0.00  0.00    +0.320 C 
ATOM      7  O   UNL     1       6.008  -1.195  -1.113  0.00  0.00    -0.251 OA
ATOM      8  N   UNL     1       4.177  -0.724   0.002  0.00  0.00    -0.189 N 
ATOM      9  C   UNL     1       2.844  -0.526   0.045  0.00  0.00    +0.265 C 
ATOM     10  O   UNL     1       2.288  -0.239   1.088  0.00  0.00    -0.269 OA
ATOM     11  H   UNL     1       4.686  -1.406  -3.105  0.00  0.00    +0.159 HD
ENDROOT
BRANCH   8  12
ATOM     12  C   UNL     1       4.926  -0.596   1.180  0.00  0.00    +0.049 A 
ATOM     13  C   UNL     1       5.455   0.637   1.538  0.00  0.00    +0.024 A 
ATOM     14  C   UNL     1       6.192   0.760   2.699  0.00  0.00    +0.002 A 
ATOM     15  C   UNL     1       6.404  -0.343   3.505  0.00  0.00    +0.000 A 
ATOM     16  C   UNL     1       5.880  -1.573   3.151  0.00  0.00    +0.005 A 
ATOM     17  C   UNL     1       5.137  -1.701   1.994  0.00  0.00    -0.029 A 
ATOM     18  C   UNL     1       4.561  -3.040   1.612  0.00  0.00    +0.045 C 
ENDBRANCH   8  12
BRANCH   1  20
ATOM     19  C   UNL     1      -0.439  -1.163   0.856  0.00  0.00    +0.010 C 
ATOM     20  C   UNL     1      -0.014   0.020  -0.017  0.00  0.00    +0.048 C 
ENDBRANCH   1  20
BRANCH   1  21
ATOM     21  N   UNL     1       0.017  -0.768  -2.362  0.00  0.00    -0.334 N 
ATOM     22  H   UNL     1       0.467  -1.173  -3.120  0.00  0.00    +0.147 HD
BRANCH  21  23
ATOM     23  C   UNL     1      -1.413  -0.458  -2.438  0.00  0.00    +0.184 C 
BRANCH  23  24
ATOM     24  C   UNL     1      -1.594   0.979  -2.854  0.00  0.00    +0.328 C 
ATOM     25  O   UNL     1      -0.628   1.673  -3.066  0.00  0.00    -0.249 OA
BRANCH  24  26
ATOM     26  O   UNL     1      -2.829   1.488  -2.991  0.00  0.00    -0.467 OA
ATOM     27  C   UNL     1      -2.926   2.857  -3.388  0.00  0.00    +0.280 C 
ENDBRANCH  24  26
ENDBRANCH  23  24
BRANCH  23  28
ATOM     28  C   UNL     1      -2.079  -1.375  -3.466  0.00  0.00    +0.066 C 
BRANCH  28  29
ATOM     29  C   UNL     1      -2.006  -2.802  -2.989  0.00  0.00    -0.039 C 
ATOM     30  C   UNL     1      -2.957  -3.483  -2.309  0.00  0.00    -0.001 A 
ATOM     31  C   UNL     1      -4.293  -3.111  -1.828  0.00  0.00    +0.010 A 
ATOM     32  C   UNL     1      -5.029  -4.029  -1.161  0.00  0.00    +0.001 A 
ATOM     33  C   UNL     1      -4.548  -5.323  -0.918  0.00  0.00    +0.002 A 
ATOM     34  C   UNL     1      -3.331  -5.738  -1.328  0.00  0.00    +0.026 A 
ATOM     35  C   UNL     1      -2.473  -4.855  -2.039  0.00  0.00    +0.043 A 
ATOM     36  N   UNL     1      -1.269  -5.018  -2.534  0.00  0.00    -0.380 N 
ATOM     37  C   UNL     1      -0.856  -3.766  -3.178  0.00  0.00    +0.144 C 
ATOM     38  H   UNL     1      -0.742  -5.830  -2.485  0.00  0.00    +0.160 HD
ENDBRANCH  28  29
ENDBRANCH  23  28
ENDBRANCH  21  23
ENDBRANCH   1  21
TORSDOF 8
