REMARK  Name = ZINC57034490
REMARK  4 active torsions:
REMARK  status: ('A' for Active; 'I' for Inactive)
REMARK    1  A    between atoms: C_4  and  N_13
REMARK    2  A    between atoms: C_5  and  C_7
REMARK    3  A    between atoms: C_7  and  N_8
REMARK    4  A    between atoms: C_14  and  C_16
REMARK                            x       y       z     vdW  Elec       q    Type
REMARK                         _______ _______ _______ _____ _____    ______ ____
ROOT
ATOM      1  N   UNL     1       3.621  -0.650  -0.036  0.00  0.00    -0.280 N 
ATOM      2  C   UNL     1       4.668  -0.140  -0.714  0.00  0.00    +0.266 C 
ATOM      3  O   UNL     1       4.580   0.956  -1.235  0.00  0.00    -0.268 OA
ATOM      4  H   UNL     1       3.712  -1.494   0.434  0.00  0.00    +0.155 HD
ENDROOT
BRANCH   2   5
ATOM      5  C   UNL     1       5.916  -0.906  -0.822  0.00  0.00    +0.122 A 
ATOM      6  C   UNL     1       7.040  -0.497  -1.472  0.00  0.00    +0.078 A 
ATOM      7  C   UNL     1       8.010  -1.522  -1.341  0.00  0.00    +0.020 A 
ATOM      8  C   UNL     1       9.329  -1.659  -1.793  0.00  0.00    +0.031 A 
ATOM      9  C   UNL     1      10.031  -2.793  -1.502  0.00  0.00    +0.042 A 
ATOM     10  C   UNL     1       9.449  -3.815  -0.760  0.00  0.00    +0.022 A 
ATOM     11  C   UNL     1       8.155  -3.703  -0.306  0.00  0.00    +0.028 A 
ATOM     12  C   UNL     1       7.419  -2.555  -0.589  0.00  0.00    +0.049 A 
ATOM     13  N   UNL     1       6.140  -2.157  -0.276  0.00  0.00    -0.349 N 
ATOM     14  H   UNL     1       5.499  -2.671   0.240  0.00  0.00    +0.166 HD
ATOM     15 CL   UNL     1      11.665  -2.961  -2.063  0.00  0.00    -0.084 Cl
ATOM     16 CL   UNL     1       7.247   1.009  -2.310  0.00  0.00    -0.081 Cl
ENDBRANCH   2   5
BRANCH   1  20
ATOM     17  C   UNL     1      -0.007   1.394   0.036  0.00  0.00    +0.000 A 
ATOM     18  C   UNL     1       1.182   2.100   0.023  0.00  0.00    +0.002 A 
ATOM     19  C   UNL     1       2.387   1.425  -0.001  0.00  0.00    +0.023 A 
ATOM     20  C   UNL     1       2.403   0.036  -0.012  0.00  0.00    +0.039 A 
ATOM     21  C   UNL     1       1.207  -0.669   0.001  0.00  0.00    -0.005 A 
ATOM     22  C   UNL     1       0.005   0.012   0.025  0.00  0.00    +0.007 A 
BRANCH  21  23
ATOM     23  C   UNL     1       1.219  -2.176  -0.011  0.00  0.00    +0.180 C 
BRANCH  23  24
ATOM     24  N   UNL     1       1.366  -2.675   1.359  0.00  0.00    -0.267 N 
ATOM     25  C   UNL     1       0.542  -3.546   1.979  0.00  0.00    +0.108 A 
ATOM     26  C   UNL     1       1.022  -3.749   3.228  0.00  0.00    +0.041 A 
ATOM     27  C   UNL     1       2.178  -2.975   3.376  0.00  0.00    +0.134 A 
ATOM     28  N   UNL     1       2.388  -2.336   2.254  0.00  0.00    -0.179 NA
ENDBRANCH  23  24
ENDBRANCH  21  23
ENDBRANCH   1  20
TORSDOF 4
