REMARK  Name = ZINC14053528
REMARK  13 active torsions:
REMARK  status: ('A' for Active; 'I' for Inactive)
REMARK    1  A    between atoms: C_1  and  C_2
REMARK    2  A    between atoms: C_2  and  C_3
REMARK    3  A    between atoms: C_3  and  C_4
REMARK    4  A    between atoms: C_4  and  N_5
REMARK    5  A    between atoms: N_5  and  C_6
REMARK    6  A    between atoms: C_7  and  N_19
REMARK    7  A    between atoms: N_8  and  C_15
REMARK    8  A    between atoms: C_15  and  C_16
REMARK    9  A    between atoms: C_16  and  C_17
REMARK   10  A    between atoms: C_16  and  C_18
REMARK   11  A    between atoms: C_20  and  C_22
REMARK   12  A    between atoms: C_22  and  C_23
REMARK   13  A    between atoms: C_26  and  C_28
REMARK                            x       y       z     vdW  Elec       q    Type
REMARK                         _______ _______ _______ _____ _____    ______ ____
ROOT
ATOM      1  N   UNL     1      -0.680   1.568   1.122  0.00  0.00    -0.264 N 
ATOM      2  C   UNL     1      -1.507   0.798   1.860  0.00  0.00    +0.226 C 
ATOM      3  O   UNL     1      -1.859   1.168   2.961  0.00  0.00    -0.275 OA
ENDROOT
BRANCH   1   4
ATOM      4  C   UNL     1      -0.138   2.749   1.671  0.00  0.00    +0.140 A 
ATOM      5  C   UNL     1      -0.958   3.807   2.010  0.00  0.00    +0.127 A 
ATOM      6  N   UNL     1      -0.401   4.943   2.549  0.00  0.00    -0.280 N 
ATOM      7  C   UNL     1       0.929   5.027   2.734  0.00  0.00    +0.331 A 
ATOM      8  O   UNL     1       1.403   6.042   3.208  0.00  0.00    -0.246 OA
ATOM      9  N   UNL     1       1.744   4.009   2.405  0.00  0.00    -0.273 N 
ATOM     10  H   UNL     1       2.729   4.096   2.553  0.00  0.00    +0.173 HD
ATOM     11  C   UNL     1       1.248   2.872   1.879  0.00  0.00    +0.277 A 
ATOM     12  O   UNL     1       1.996   1.954   1.585  0.00  0.00    -0.266 OA
BRANCH   5  13
ATOM     13  N   UNL     1      -2.316   3.723   1.815  0.00  0.00    -0.343 N 
ATOM     14  H   UNL     1      -2.699   2.934   1.401  0.00  0.00    +0.144 HD
ATOM     15  H   UNL     1      -2.891   4.454   2.092  0.00  0.00    +0.144 HD
ENDBRANCH   5  13
BRANCH   6  16
ATOM     16  C   UNL     1      -1.260   6.071   2.917  0.00  0.00    +0.131 C 
BRANCH  16  17
ATOM     17  C   UNL     1      -1.409   7.011   1.719  0.00  0.00    +0.003 C 
ATOM     18  C   UNL     1      -2.404   8.121   2.063  0.00  0.00    +0.009 C 
ATOM     19  C   UNL     1      -0.050   7.630   1.385  0.00  0.00    +0.009 C 
ENDBRANCH  16  17
ENDBRANCH   6  16
ENDBRANCH   1   4
BRANCH   1  20
ATOM     20  C   UNL     1      -0.345   1.178  -0.250  0.00  0.00    +0.114 C 
BRANCH  20  21
ATOM     21  C   UNL     1      -1.377   1.766  -1.214  0.00  0.00    +0.019 C 
BRANCH  21  23
ATOM     22  C   UNL     1      -2.059   1.946  -3.611  0.00  0.00    +0.004 C 
ATOM     23  C   UNL     1      -1.027   1.358  -2.647  0.00  0.00    -0.002 C 
ENDBRANCH  21  23
ENDBRANCH  20  21
ENDBRANCH   1  20
BRANCH   2  24
ATOM     24  C   UNL     1      -1.994  -0.520   1.316  0.00  0.00    +0.152 C 
BRANCH  24  25
ATOM     25  C   UNL     1      -2.897  -1.178   2.328  0.00  0.00    +0.058 A 
ATOM     26  C   UNL     1      -4.155  -1.554   1.975  0.00  0.00    +0.071 A 
ATOM     27  S   UNL     1      -4.736  -2.250   3.517  0.00  0.00    -0.075 S 
ATOM     28  C   UNL     1      -3.244  -1.964   4.460  0.00  0.00    +0.109 A 
ATOM     29  N   UNL     1      -2.469  -1.393   3.550  0.00  0.00    -0.243 NA
BRANCH  28  30
ATOM     30  C   UNL     1      -2.952  -2.284   5.874  0.00  0.00    +0.007 A 
ATOM     31  C   UNL     1      -1.705  -1.976   6.419  0.00  0.00    +0.010 A 
ATOM     32  C   UNL     1      -1.440  -2.273   7.740  0.00  0.00    +0.001 A 
ATOM     33  C   UNL     1      -2.404  -2.885   8.521  0.00  0.00    +0.000 A 
ATOM     34  C   UNL     1      -3.641  -3.197   7.986  0.00  0.00    +0.001 A 
ATOM     35  C   UNL     1      -3.920  -2.901   6.667  0.00  0.00    +0.010 A 
ENDBRANCH  28  30
ENDBRANCH  24  25
ENDBRANCH   2  24
TORSDOF 10
