REMARK  Name = ZINC39609071
REMARK  9 active torsions:
REMARK  status: ('A' for Active; 'I' for Inactive)
REMARK    1  A    between atoms: C_1  and  S_2
REMARK    2  A    between atoms: S_2  and  C_3
REMARK    3  A    between atoms: C_3  and  C_4
REMARK    4  A    between atoms: C_4  and  C_5
REMARK    5  A    between atoms: C_9  and  C_18
REMARK    6  A    between atoms: N_20  and  C_21
REMARK    7  A    between atoms: C_26  and  O_28
REMARK    8  A    between atoms: O_28  and  C_29
REMARK    9  A    between atoms: C_29  and  C_30
REMARK                            x       y       z     vdW  Elec       q    Type
REMARK                         _______ _______ _______ _____ _____    ______ ____
ROOT
ATOM      1  C   UNL     1       1.501  -2.388   2.697  0.00  0.00    +0.216 C 
ATOM      2  O   UNL     1       1.848  -1.449   3.381  0.00  0.00    -0.276 OA
ATOM      3  N   UNL     1       1.795  -3.646   3.080  0.00  0.00    -0.300 N 
ATOM      4  C   UNL     1       1.464  -4.909   2.380  0.00  0.00    +0.121 C 
ATOM      5  C   UNL     1       2.716  -5.796   2.563  0.00  0.00    +0.100 C 
ATOM      6  C   UNL     1       3.405  -5.248   3.824  0.00  0.00    -0.004 C 
ATOM      7  C   UNL     1       2.528  -4.078   4.295  0.00  0.00    +0.115 C 
ATOM      8  C   UNL     1       3.472  -6.326   4.901  0.00  0.00    -0.010 C 
ATOM      9  C   UNL     1       4.213  -5.775   6.123  0.00  0.00    -0.082 C 
ATOM     10  N   UNL     1       5.565  -5.360   5.732  0.00  0.00    +0.379 N 
ATOM     11  C   UNL     1       5.492  -4.259   4.764  0.00  0.00    -0.082 C 
ATOM     12  C   UNL     1       4.805  -4.746   3.485  0.00  0.00    -0.010 C 
ATOM     13  H   UNL     1       6.072  -5.054   6.549  0.00  0.00    -0.086 HD
ATOM     14  H   UNL     1       6.048  -6.142   5.314  0.00  0.00    -0.086 HD
ENDROOT
BRANCH   5  15
ATOM     15  C   UNL     1       3.626  -5.672   1.369  0.00  0.00    +0.218 C 
ATOM     16  O   UNL     1       3.661  -4.636   0.738  0.00  0.00    -0.275 OA
ATOM     17  N   UNL     1       4.402  -6.711   1.001  0.00  0.00    -0.310 N 
ATOM     18  H   UNL     1       4.374  -7.539   1.505  0.00  0.00    +0.149 HD
BRANCH  17  19
ATOM     19  C   UNL     1       5.287  -6.590  -0.160  0.00  0.00    +0.102 C 
ATOM     20  C   UNL     1       4.525  -6.963  -1.444  0.00  0.00    +0.025 C 
ATOM     21  C   UNL     1       5.261  -8.173  -2.057  0.00  0.00    +0.004 C 
ATOM     22  C   UNL     1       6.698  -8.071  -1.489  0.00  0.00    +0.033 C 
ATOM     23  C   UNL     1       6.459  -7.585  -0.037  0.00  0.00    +0.139 C 
BRANCH  23  24
ATOM     24  O   UNL     1       7.622  -6.927   0.469  0.00  0.00    -0.370 OA
BRANCH  24  25
ATOM     25  C   UNL     1       8.484  -7.775   1.232  0.00  0.00    +0.195 C 
BRANCH  25  26
ATOM     26  C   UNL     1       9.671  -6.981   1.713  0.00  0.00    -0.022 A 
ATOM     27  C   UNL     1      10.811  -6.902   0.935  0.00  0.00    +0.006 A 
ATOM     28  C   UNL     1      11.900  -6.174   1.377  0.00  0.00    +0.000 A 
ATOM     29  C   UNL     1      11.849  -5.526   2.597  0.00  0.00    +0.000 A 
ATOM     30  C   UNL     1      10.709  -5.604   3.374  0.00  0.00    +0.000 A 
ATOM     31  C   UNL     1       9.618  -6.329   2.931  0.00  0.00    +0.006 A 
ENDBRANCH  25  26
ENDBRANCH  24  25
ENDBRANCH  23  24
ENDBRANCH  17  19
ENDBRANCH   5  15
BRANCH   1  32
ATOM     32  C   UNL     1       0.741  -2.148   1.418  0.00  0.00    +0.106 C 
BRANCH  32  33
ATOM     33  C   UNL     1       0.540  -0.644   1.218  0.00  0.00    +0.078 C 
BRANCH  33  35
ATOM     34  C   UNL     1      -0.526   1.450  -0.409  0.00  0.00    +0.084 C 
ATOM     35  S   UNL     1      -0.374  -0.355  -0.321  0.00  0.00    -0.164 S 
ENDBRANCH  33  35
ENDBRANCH  32  33
ENDBRANCH   1  32
TORSDOF 8
