REMARK  Name = ZINC46076013
REMARK  6 active torsions:
REMARK  status: ('A' for Active; 'I' for Inactive)
REMARK    1  A    between atoms: C_1  and  C_2
REMARK    2  A    between atoms: C_2  and  O_3
REMARK    3  A    between atoms: O_3  and  C_4
REMARK    4  A    between atoms: C_7  and  C_10
REMARK    5  A    between atoms: C_20  and  C_21
REMARK    6  A    between atoms: C_24  and  C_27
REMARK                            x       y       z     vdW  Elec       q    Type
REMARK                         _______ _______ _______ _____ _____    ______ ____
ROOT
ATOM      1  C   UNL     1       1.109  -6.040  -1.847  0.00  0.00    +0.066 C 
ATOM      2  C   UNL     1       2.589  -6.437  -1.925  0.00  0.00    +0.109 C 
ATOM      3  C   UNL     1       3.153  -6.116  -3.280  0.00  0.00    +0.218 C 
ATOM      4  O   UNL     1       4.289  -5.697  -3.350  0.00  0.00    -0.275 OA
ATOM      5  N   UNL     1       2.455  -6.270  -4.419  0.00  0.00    -0.284 N 
ATOM      6  C   UNL     1       1.063  -6.554  -4.337  0.00  0.00    +0.052 A 
ATOM      7  C   UNL     1       0.448  -6.447  -3.124  0.00  0.00    +0.019 A 
ATOM      8  S   UNL     1      -1.234  -6.886  -3.442  0.00  0.00    -0.098 S 
ATOM      9  C   UNL     1      -1.106  -7.176  -5.200  0.00  0.00    +0.055 A 
ATOM     10  C   UNL     1       0.218  -6.932  -5.446  0.00  0.00    +0.011 A 
ATOM     11  H   UNL     1       2.893  -6.190  -5.281  0.00  0.00    +0.155 HD
ENDROOT
BRANCH  10  12
ATOM     12  C   UNL     1       0.772  -7.054  -6.816  0.00  0.00    -0.016 A 
ATOM     13  C   UNL     1       1.546  -6.026  -7.352  0.00  0.00    +0.009 A 
ATOM     14  C   UNL     1       2.059  -6.146  -8.627  0.00  0.00    +0.004 A 
ATOM     15  C   UNL     1       1.806  -7.282  -9.374  0.00  0.00    -0.050 A 
ATOM     16  C   UNL     1       1.039  -8.306  -8.847  0.00  0.00    +0.004 A 
ATOM     17  C   UNL     1       0.525  -8.200  -7.571  0.00  0.00    +0.009 A 
ATOM     18  C   UNL     1       2.369  -7.406 -10.766  0.00  0.00    +0.044 C 
ENDBRANCH  10  12
BRANCH   1  22
ATOM     19  C   UNL     1       0.777  -1.810  -1.336  0.00  0.00    +0.121 A 
ATOM     20  C   UNL     1       0.243  -2.669  -0.386  0.00  0.00    +0.046 A 
ATOM     21  C   UNL     1       0.351  -4.036  -0.554  0.00  0.00    +0.008 A 
ATOM     22  C   UNL     1       0.992  -4.548  -1.667  0.00  0.00    -0.039 A 
ATOM     23  C   UNL     1       1.525  -3.694  -2.615  0.00  0.00    +0.008 A 
ATOM     24  C   UNL     1       1.414  -2.327  -2.455  0.00  0.00    +0.046 A 
BRANCH  19  25
ATOM     25  O   UNL     1       0.671  -0.465  -1.174  0.00  0.00    -0.492 OA
BRANCH  25  27
ATOM     26  C   UNL     1      -0.019   1.526   0.010  0.00  0.00    +0.048 C 
ATOM     27  C   UNL     1       0.002  -0.004   0.002  0.00  0.00    +0.225 C 
ENDBRANCH  25  27
ENDBRANCH  19  25
ENDBRANCH   1  22
TORSDOF 4
