REMARK  Name = ZINC36697820
REMARK  11 active torsions:
REMARK  status: ('A' for Active; 'I' for Inactive)
REMARK    1  A    between atoms: C_1  and  C_2
REMARK    2  A    between atoms: C_2  and  C_4
REMARK    3  A    between atoms: C_2  and  N_26
REMARK    4  A    between atoms: N_6  and  C_7
REMARK    5  A    between atoms: C_7  and  C_8
REMARK    6  A    between atoms: C_8  and  C_10
REMARK    7  A    between atoms: C_8  and  C_16
REMARK    8  A    between atoms: C_27  and  C_29
REMARK    9  A    between atoms: C_30  and  C_31
REMARK   10  A    between atoms: C_34  and  O_37
REMARK   11  A    between atoms: O_37  and  C_38
REMARK                            x       y       z     vdW  Elec       q    Type
REMARK                         _______ _______ _______ _____ _____    ______ ____
ROOT
ATOM      1  C   UNL     1      -1.412  -0.526   0.013  0.00  0.00    +0.233 C 
ATOM      2  O   UNL     1      -1.790  -1.233   0.922  0.00  0.00    -0.274 OA
ATOM      3  N   UNL     1      -2.256  -0.206  -0.988  0.00  0.00    -0.313 N 
ATOM      4  H   UNL     1      -1.953   0.360  -1.716  0.00  0.00    +0.149 HD
ENDROOT
BRANCH   1   6
ATOM      5  C   UNL     1      -0.019   1.526   0.010  0.00  0.00    +0.038 C 
ATOM      6  C   UNL     1       0.002  -0.004   0.002  0.00  0.00    +0.156 C 
BRANCH   6   7
ATOM      7  N   UNL     1       0.711  -0.489   1.189  0.00  0.00    -0.301 N 
ATOM      8  C   UNL     1       2.054  -0.600   1.174  0.00  0.00    +0.237 C 
ATOM      9  O   UNL     1       2.678  -0.296   0.174  0.00  0.00    -0.271 OA
ATOM     10  H   UNL     1       0.213  -0.731   1.986  0.00  0.00    +0.150 HD
BRANCH   8  11
ATOM     11  C   UNL     1       2.761  -1.084   2.359  0.00  0.00    +0.068 C 
ATOM     12  C   UNL     1       4.106  -1.195   2.343  0.00  0.00    +0.013 C 
BRANCH  12  13
ATOM     13  C   UNL     1       4.817  -1.682   3.534  0.00  0.00    -0.025 A 
ATOM     14  C   UNL     1       4.101  -2.037   4.683  0.00  0.00    +0.011 A 
ATOM     15  C   UNL     1       4.772  -2.492   5.796  0.00  0.00    +0.046 A 
ATOM     16  C   UNL     1       6.158  -2.600   5.780  0.00  0.00    +0.120 A 
ATOM     17  C   UNL     1       6.874  -2.248   4.641  0.00  0.00    +0.046 A 
ATOM     18  C   UNL     1       6.212  -1.798   3.521  0.00  0.00    +0.011 A 
BRANCH  16  19
ATOM     19  O   UNL     1       6.814  -3.050   6.879  0.00  0.00    -0.495 OA
ATOM     20  C   UNL     1       8.238  -3.136   6.795  0.00  0.00    +0.277 C 
ENDBRANCH  16  19
ENDBRANCH  12  13
ENDBRANCH   8  11
ENDBRANCH   6   7
ENDBRANCH   1   6
BRANCH   3  21
ATOM     21  C   UNL     1      -3.630  -0.713  -0.978  0.00  0.00    +0.117 C 
BRANCH  21  22
ATOM     22  C   UNL     1      -4.370  -0.206  -2.217  0.00  0.00    +0.068 C 
BRANCH  22  23
ATOM     23  C   UNL     1      -5.743  -0.826  -2.271  0.00  0.00    -0.013 A 
ATOM     24  C   UNL     1      -6.711  -0.702  -1.349  0.00  0.00    +0.088 A 
ATOM     25  N   UNL     1      -7.819  -1.405  -1.740  0.00  0.00    -0.360 N 
ATOM     26  H   UNL     1      -8.646  -1.465  -1.236  0.00  0.00    +0.165 HD
ATOM     27  C   UNL     1      -7.585  -2.012  -2.953  0.00  0.00    +0.047 A 
ATOM     28  C   UNL     1      -6.276  -1.671  -3.342  0.00  0.00    +0.003 A 
ATOM     29  C   UNL     1      -5.762  -2.147  -4.550  0.00  0.00    +0.010 A 
ATOM     30  C   UNL     1      -6.535  -2.939  -5.351  0.00  0.00    +0.001 A 
ATOM     31  C   UNL     1      -7.828  -3.275  -4.973  0.00  0.00    +0.002 A 
ATOM     32  C   UNL     1      -8.352  -2.825  -3.781  0.00  0.00    +0.026 A 
ENDBRANCH  22  23
BRANCH  22  33
ATOM     33  C   UNL     1      -4.498   1.294  -2.148  0.00  0.00    -0.038 A 
ATOM     34  C   UNL     1      -5.166   1.882  -1.090  0.00  0.00    +0.004 A 
ATOM     35  C   UNL     1      -5.283   3.258  -1.026  0.00  0.00    +0.000 A 
ATOM     36  C   UNL     1      -4.732   4.045  -2.020  0.00  0.00    +0.000 A 
ATOM     37  C   UNL     1      -4.063   3.457  -3.077  0.00  0.00    +0.000 A 
ATOM     38  C   UNL     1      -3.942   2.082  -3.139  0.00  0.00    +0.004 A 
ENDBRANCH  22  33
ENDBRANCH  21  22
ENDBRANCH   3  21
TORSDOF 9
