REMARK  Name = ZINC21332218
REMARK  10 active torsions:
REMARK  status: ('A' for Active; 'I' for Inactive)
REMARK    1  A    between atoms: C_1  and  S_2
REMARK    2  A    between atoms: S_2  and  C_3
REMARK    3  A    between atoms: C_6  and  C_9
REMARK    4  A    between atoms: C_9  and  S_10
REMARK    5  A    between atoms: S_10  and  C_11
REMARK    6  A    between atoms: N_21  and  C_22
REMARK    7  A    between atoms: C_22  and  C_23
REMARK    8  A    between atoms: C_23  and  C_24
REMARK    9  A    between atoms: C_27  and  S_30
REMARK   10  A    between atoms: S_30  and  N_33
REMARK                            x       y       z     vdW  Elec       q    Type
REMARK                         _______ _______ _______ _____ _____    ______ ____
ROOT
ATOM      1  C   UNL     1      -4.027   2.204   7.900  0.00  0.00    +0.172 A 
ATOM      2  N   UNL     1      -4.738   2.497   8.961  0.00  0.00    -0.223 NA
ATOM      3  C   UNL     1      -4.617   3.684   9.587  0.00  0.00    +0.079 A 
ATOM      4  C   UNL     1      -5.375   3.997  10.719  0.00  0.00    +0.028 A 
ATOM      5  C   UNL     1      -5.221   5.213  11.322  0.00  0.00    +0.002 A 
ATOM      6  C   UNL     1      -4.319   6.146  10.828  0.00  0.00    +0.001 A 
ATOM      7  C   UNL     1      -3.562   5.870   9.723  0.00  0.00    +0.015 A 
ATOM      8  C   UNL     1      -3.700   4.637   9.087  0.00  0.00    +0.065 A 
ATOM      9  C   UNL     1      -2.910   4.283   7.900  0.00  0.00    +0.262 A 
ATOM     10  O   UNL     1      -2.101   5.059   7.425  0.00  0.00    -0.267 OA
ATOM     11  N   UNL     1      -3.119   3.064   7.351  0.00  0.00    -0.287 N 
ENDROOT
BRANCH   1  12
ATOM     12  S   UNL     1      -4.252   0.627   7.147  0.00  0.00    -0.083 S 
BRANCH  12  13
ATOM     13  C   UNL     1      -5.516  -0.067   8.242  0.00  0.00    +0.112 C 
BRANCH  13  17
ATOM     14  C   UNL     1      -6.537  -4.003   6.926  0.00  0.00    +0.008 A 
ATOM     15  C   UNL     1      -5.510  -3.820   7.843  0.00  0.00    +0.015 A 
ATOM     16  C   UNL     1      -5.183  -2.547   8.266  0.00  0.00    +0.005 A 
ATOM     17  C   UNL     1      -5.876  -1.454   7.777  0.00  0.00    -0.037 A 
ATOM     18  C   UNL     1      -6.902  -1.633   6.868  0.00  0.00    +0.005 A 
ATOM     19  C   UNL     1      -7.231  -2.903   6.437  0.00  0.00    +0.015 A 
BRANCH  14  21
ATOM     20  C   UNL     1      -8.322  -5.359   5.218  0.00  0.00    +0.090 C 
ATOM     21  S   UNL     1      -6.957  -5.625   6.382  0.00  0.00    -0.129 S 
ENDBRANCH  14  21
ENDBRANCH  13  17
ENDBRANCH  12  13
ENDBRANCH   1  12
BRANCH  11  22
ATOM     22  C   UNL     1      -2.363   2.662   6.162  0.00  0.00    +0.132 C 
BRANCH  22  23
ATOM     23  C   UNL     1      -3.132   3.072   4.905  0.00  0.00    +0.057 C 
BRANCH  23  24
ATOM     24  C   UNL     1      -2.354   2.659   3.683  0.00  0.00    -0.046 A 
ATOM     25  C   UNL     1      -2.559   1.412   3.121  0.00  0.00    +0.005 A 
ATOM     26  C   UNL     1      -1.846   1.033   2.000  0.00  0.00    +0.029 A 
ATOM     27  C   UNL     1      -0.927   1.900   1.439  0.00  0.00    +0.105 A 
ATOM     28  C   UNL     1      -0.717   3.145   2.004  0.00  0.00    +0.029 A 
ATOM     29  C   UNL     1      -1.434   3.525   3.123  0.00  0.00    +0.005 A 
BRANCH  27  30
ATOM     30  S   UNL     1      -0.017   1.417   0.010  0.00  0.00    +0.056 S 
ATOM     31  O   UNL     1       0.002  -0.004   0.002  0.00  0.00    -0.153 OA
ATOM     32  O   UNL     1       1.172   2.195   0.003  0.00  0.00    -0.153 OA
BRANCH  30  33
ATOM     33  N   UNL     1      -0.897   1.885  -1.312  0.00  0.00    -0.204 NA
ATOM     34  H   UNL     1      -0.361   1.601  -2.229  0.00  0.00    +0.144 HD
ATOM     35  H   UNL     1      -1.036   2.977  -1.292  0.00  0.00    +0.144 HD
ENDBRANCH  30  33
ENDBRANCH  27  30
ENDBRANCH  23  24
ENDBRANCH  22  23
ENDBRANCH  11  22
TORSDOF 9
