REMARK  Name = ZINC12758957
REMARK  4 active torsions:
REMARK  status: ('A' for Active; 'I' for Inactive)
REMARK    1  A    between atoms: C_4  and  C_7
REMARK    2  A    between atoms: C_16  and  C_17
REMARK    3  A    between atoms: C_16  and  N_45
REMARK    4  A    between atoms: N_19  and  C_20
REMARK                            x       y       z     vdW  Elec       q    Type
REMARK                         _______ _______ _______ _____ _____    ______ ____
ROOT
ATOM      1  C   UNL     1      -2.003   0.897   1.431  0.00  0.00    -0.005 C 
ATOM      2  C   UNL     1      -2.842   1.035   0.164  0.00  0.00    -0.047 A 
ATOM      3  C   UNL     1      -4.221   0.848   0.121  0.00  0.00    +0.010 A 
ATOM      4  C   UNL     1      -4.889   0.994  -1.048  0.00  0.00    +0.045 A 
ATOM      5  S   UNL     1      -3.568   1.412  -2.176  0.00  0.00    -0.101 S 
ATOM      6  C   UNL     1      -2.235   1.361  -1.012  0.00  0.00    -0.010 A 
ATOM      7  C   UNL     1      -0.778   1.609  -1.225  0.00  0.00    +0.024 C 
ATOM      8  C   UNL     1      -0.029   1.094   0.016  0.00  0.00    -0.072 C 
ATOM      9  N   UNL     1      -0.721   1.614   1.219  0.00  0.00    +0.393 N 
ATOM     10  H   UNL     1      -0.919   2.612   1.081  0.00  0.00    -0.080 HD
ENDROOT
BRANCH   1  14
ATOM     11  C   UNL     1      -4.058   2.699   4.714  0.00  0.00    +0.000 A 
ATOM     12  C   UNL     1      -4.095   1.328   4.544  0.00  0.00    +0.000 A 
ATOM     13  C   UNL     1      -3.429   0.745   3.482  0.00  0.00    +0.002 A 
ATOM     14  C   UNL     1      -2.728   1.533   2.589  0.00  0.00    -0.057 A 
ATOM     15  C   UNL     1      -2.688   2.904   2.761  0.00  0.00    +0.002 A 
ATOM     16  C   UNL     1      -3.357   3.488   3.821  0.00  0.00    +0.000 A 
ENDBRANCH   1  14
BRANCH   9  17
ATOM     17  C   UNL     1       0.147   1.458   2.404  0.00  0.00    +0.020 C 
BRANCH  17  18
ATOM     18  C   UNL     1       1.323   2.389   2.264  0.00  0.00    +0.201 C 
ATOM     19  O   UNL     1       1.432   3.085   1.276  0.00  0.00    -0.278 OA
ATOM     20  N   UNL     1       2.255   2.449   3.236  0.00  0.00    -0.286 N 
ATOM     21  H   UNL     1       2.135   1.942   4.054  0.00  0.00    +0.155 HD
BRANCH  20  22
ATOM     22  C   UNL     1       3.395   3.242   3.065  0.00  0.00    +0.047 A 
ATOM     23  C   UNL     1       3.311   4.441   2.368  0.00  0.00    +0.024 A 
ATOM     24  C   UNL     1       4.438   5.222   2.201  0.00  0.00    +0.002 A 
ATOM     25  C   UNL     1       5.649   4.811   2.727  0.00  0.00    +0.001 A 
ATOM     26  C   UNL     1       5.737   3.619   3.421  0.00  0.00    +0.016 A 
ATOM     27  C   UNL     1       4.612   2.836   3.596  0.00  0.00    +0.035 A 
ATOM     28  I   UNL     1       4.745   1.032   4.654  0.00  0.00    -0.042 I 
ENDBRANCH  20  22
ENDBRANCH  17  18
ENDBRANCH   9  17
TORSDOF 4
