REMARK  Name = ZINC63374811
REMARK  9 active torsions:
REMARK  status: ('A' for Active; 'I' for Inactive)
REMARK    1  A    between atoms: C_1  and  C_2
REMARK    2  A    between atoms: C_2  and  C_3
REMARK    3  A    between atoms: C_2  and  C_4
REMARK    4  A    between atoms: C_4  and  C_6
REMARK    5  A    between atoms: C_4  and  N_18
REMARK    6  A    between atoms: N_8  and  C_9
REMARK    7  A    between atoms: C_9  and  C_10
REMARK    8  A    between atoms: C_10  and  C_11
REMARK    9  A    between atoms: C_21  and  C_37
REMARK                            x       y       z     vdW  Elec       q    Type
REMARK                         _______ _______ _______ _____ _____    ______ ____
ROOT
ATOM      1  N   UNL     1      -2.421   0.263   0.829  0.00  0.00    -0.212 N 
ATOM      2  C   UNL     1      -2.376   0.188   2.175  0.00  0.00    +0.249 C 
ATOM      3  O   UNL     1      -1.597  -0.453   2.848  0.00  0.00    -0.273 OA
ATOM      4  C   UNL     1      -3.499   1.072   2.671  0.00  0.00    +0.136 C 
ATOM      5  C   UNL     1      -4.488   0.266   3.512  0.00  0.00    +0.139 C 
ATOM      6  C   UNL     1      -5.783   0.167   2.719  0.00  0.00    -0.034 C 
ATOM      7  C   UNL     1      -6.051  -1.132   2.607  0.00  0.00    -0.001 A 
ATOM      8  C   UNL     1      -7.190  -1.846   2.009  0.00  0.00    +0.010 A 
ATOM      9  C   UNL     1      -7.139  -3.204   2.059  0.00  0.00    +0.001 A 
ATOM     10  C   UNL     1      -6.081  -3.913   2.637  0.00  0.00    +0.002 A 
ATOM     11  C   UNL     1      -4.996  -3.337   3.214  0.00  0.00    +0.026 A 
ATOM     12  C   UNL     1      -4.938  -1.913   3.226  0.00  0.00    +0.043 A 
ATOM     13  N   UNL     1      -4.029  -1.107   3.729  0.00  0.00    -0.375 N 
ATOM     14  C   UNL     1      -6.508   1.360   2.148  0.00  0.00    +0.052 C 
ATOM     15  C   UNL     1      -5.470   2.183   1.359  0.00  0.00    +0.115 C 
ATOM     16  N   UNL     1      -4.188   1.475   1.427  0.00  0.00    -0.269 N 
ATOM     17  C   UNL     1      -3.435   1.033   0.411  0.00  0.00    +0.313 C 
ATOM     18  O   UNL     1      -3.649   1.296  -0.756  0.00  0.00    -0.252 OA
ATOM     19  C   UNL     1      -2.960   2.286   3.429  0.00  0.00    +0.044 C 
ATOM     20  H   UNL     1      -3.201  -1.367   4.162  0.00  0.00    +0.160 HD
ENDROOT
BRANCH   1  21
ATOM     21  C   UNL     1      -1.476  -0.410  -0.065  0.00  0.00    +0.174 C 
BRANCH  21  22
ATOM     22  C   UNL     1      -1.642  -1.903   0.060  0.00  0.00    +0.234 C 
ATOM     23  O   UNL     1      -2.189  -2.373   1.035  0.00  0.00    -0.274 OA
ATOM     24  N   UNL     1      -1.182  -2.716  -0.912  0.00  0.00    -0.313 N 
ATOM     25  H   UNL     1      -0.676  -2.347  -1.653  0.00  0.00    +0.149 HD
BRANCH  24  26
ATOM     26  C   UNL     1      -1.445  -4.155  -0.848  0.00  0.00    +0.109 C 
BRANCH  26  27
ATOM     27  C   UNL     1      -0.819  -4.843  -2.063  0.00  0.00    +0.054 C 
BRANCH  27  28
ATOM     28  C   UNL     1      -1.089  -6.324  -1.998  0.00  0.00    -0.046 A 
ATOM     29  C   UNL     1      -0.200  -7.160  -1.349  0.00  0.00    +0.006 A 
ATOM     30  C   UNL     1      -0.448  -8.519  -1.288  0.00  0.00    +0.038 A 
ATOM     31  C   UNL     1      -1.587  -9.041  -1.877  0.00  0.00    +0.123 A 
ATOM     32  C   UNL     1      -2.477  -8.202  -2.526  0.00  0.00    +0.038 A 
ATOM     33  C   UNL     1      -2.230  -6.844  -2.581  0.00  0.00    +0.006 A 
ATOM     34  F   UNL     1      -1.830 -10.369  -1.818  0.00  0.00    -0.205 F 
ENDBRANCH  27  28
ENDBRANCH  26  27
ENDBRANCH  24  26
ENDBRANCH  21  22
BRANCH  21  36
ATOM     35  C   UNL     1       0.935  -0.639  -0.679  0.00  0.00    +0.009 C 
ATOM     36  C   UNL     1      -0.046  -0.022   0.319  0.00  0.00    +0.013 C 
ATOM     37  C   UNL     1       0.092   1.501   0.296  0.00  0.00    +0.009 C 
ENDBRANCH  21  36
ENDBRANCH   1  21
TORSDOF 6
