REMARK  Name = ZINC13639600
REMARK  2 active torsions:
REMARK  status: ('A' for Active; 'I' for Inactive)
REMARK    1  A    between atoms: C_3  and  N_8
REMARK    2  A    between atoms: C_22  and  C_25
REMARK                            x       y       z     vdW  Elec       q    Type
REMARK                         _______ _______ _______ _____ _____    ______ ____
ROOT
ATOM      1  N   UNL     1       1.238  -2.079  -0.020  0.00  0.00    -0.217 N 
ATOM      2  C   UNL     1       2.351  -2.840  -0.041  0.00  0.00    +0.281 A 
ATOM      3  O   UNL     1       3.500  -2.442  -0.055  0.00  0.00    -0.265 OA
ATOM      4  C   UNL     1       1.909  -4.245  -0.037  0.00  0.00    +0.089 A 
ATOM      5  C   UNL     1       2.578  -5.463  -0.049  0.00  0.00    -0.019 A 
ATOM      6  C   UNL     1       1.807  -6.630  -0.050  0.00  0.00    +0.040 A 
ATOM      7  C   UNL     1       0.410  -6.534  -0.035  0.00  0.00    +0.124 A 
ATOM      8  N   UNL     1      -0.187  -5.361  -0.023  0.00  0.00    -0.235 NA
ATOM      9  C   UNL     1       0.499  -4.225  -0.024  0.00  0.00    +0.159 A 
ATOM     10  N   UNL     1       0.110  -2.905  -0.014  0.00  0.00    -0.273 N 
ATOM     11  H   UNL     1      -0.809  -2.594  -0.004  0.00  0.00    +0.189 HD
ATOM     12  C   UNL     1       2.463  -7.946  -0.073  0.00  0.00    +0.165 C 
ATOM     13  O   UNL     1       1.832  -8.960  -0.286  0.00  0.00    -0.292 OA
ATOM     14  C   UNL     1       3.956  -7.990   0.181  0.00  0.00    +0.088 C 
ATOM     15  C   UNL     1       4.592  -6.835  -0.603  0.00  0.00    +0.038 C 
ATOM     16  C   UNL     1       4.079  -5.505  -0.053  0.00  0.00    +0.046 C 
ENDROOT
BRANCH   1  19
ATOM     17  C   UNL     1       2.381   1.416  -0.013  0.00  0.00    +0.003 A 
ATOM     18  C   UNL     1       2.406   0.035  -0.021  0.00  0.00    +0.028 A 
ATOM     19  C   UNL     1       1.215  -0.680  -0.013  0.00  0.00    +0.069 A 
ATOM     20  C   UNL     1       0.002  -0.004   0.002  0.00  0.00    +0.047 A 
ATOM     21  C   UNL     1      -0.017   1.378   0.010  0.00  0.00    +0.043 A 
ATOM     22  C   UNL     1       1.172   2.087   0.002  0.00  0.00    +0.020 A 
ATOM     23 CL   UNL     1      -1.532   2.225   0.021  0.00  0.00    -0.083 Cl
ENDBRANCH   1  19
BRANCH  15  24
ATOM     24  C   UNL     1       6.090  -6.893  -0.458  0.00  0.00    -0.006 A 
ATOM     25  C   UNL     1       7.036  -7.034  -1.419  0.00  0.00    +0.011 A 
ATOM     26  C   UNL     1       8.368  -7.059  -1.050  0.00  0.00    +0.008 A 
ATOM     27  C   UNL     1       8.689  -6.952   0.263  0.00  0.00    +0.045 A 
ATOM     28  S   UNL     1       7.081  -6.803   1.024  0.00  0.00    -0.101 S 
ENDBRANCH  15  24
TORSDOF 2
