REMARK  Name = ZINC58648413
REMARK  6 active torsions:
REMARK  status: ('A' for Active; 'I' for Inactive)
REMARK    1  A    between atoms: C_1  and  C_2
REMARK    2  A    between atoms: C_2  and  C_3
REMARK    3  A    between atoms: C_2  and  C_4
REMARK    4  A    between atoms: C_2  and  C_5
REMARK    5  A    between atoms: C_12  and  C_14
REMARK    6  A    between atoms: C_20  and  C_23
REMARK                            x       y       z     vdW  Elec       q    Type
REMARK                         _______ _______ _______ _____ _____    ______ ____
ROOT
ATOM      1  C   UNL     1       6.007  -0.739  -4.545  0.00  0.00    +0.253 C 
ATOM      2  O   UNL     1       6.930  -0.384  -3.835  0.00  0.00    -0.269 OA
ATOM      3  N   UNL     1       6.251  -1.181  -5.795  0.00  0.00    -0.296 N 
ATOM      4  C   UNL     1       5.143  -1.471  -6.715  0.00  0.00    +0.108 C 
ATOM      5  C   UNL     1       5.367  -0.694  -8.017  0.00  0.00    +0.020 C 
ATOM      6  C   UNL     1       6.752  -1.030  -8.574  0.00  0.00    +0.014 C 
ATOM      7  C   UNL     1       7.825  -0.607  -7.569  0.00  0.00    +0.074 C 
ATOM      8  C   UNL     1       7.629  -1.377  -6.264  0.00  0.00    +0.119 C 
ENDROOT
BRANCH   7   9
ATOM      9  C   UNL     1       9.190  -0.907  -8.133  0.00  0.00    +0.138 A 
ATOM     10  N   UNL     1       9.641  -2.081  -8.489  0.00  0.00    -0.134 NA
ATOM     11  N   UNL     1      10.844  -1.966  -8.935  0.00  0.00    -0.134 NA
ATOM     12  C   UNL     1      11.209  -0.717  -8.887  0.00  0.00    +0.133 A 
ATOM     13  N   UNL     1      10.174  -0.013  -8.372  0.00  0.00    -0.314 N 
ATOM     14  C   UNL     1      10.144   1.427  -8.112  0.00  0.00    +0.125 C 
ATOM     15  C   UNL     1      11.083   2.139  -9.089  0.00  0.00    +0.022 C 
ATOM     16  C   UNL     1      12.487   2.216  -8.491  0.00  0.00    +0.002 C 
ATOM     17  C   UNL     1      13.043   0.815  -8.251  0.00  0.00    +0.008 C 
ATOM     18  C   UNL     1      12.527  -0.136  -9.328  0.00  0.00    +0.076 C 
ENDBRANCH   7   9
BRANCH   1  25
ATOM     19  C   UNL     1       0.733  -0.024  -1.303  0.00  0.00    -0.001 C 
ATOM     20  C   UNL     1      -0.079  -0.216  -2.587  0.00  0.00    +0.009 C 
ATOM     21  C   UNL     1       0.610  -1.281  -3.452  0.00  0.00    +0.043 C 
ATOM     22  C   UNL     1       2.071  -0.952  -3.535  0.00  0.00    -0.006 A 
ATOM     23  C   UNL     1       2.758  -0.082  -2.741  0.00  0.00    -0.036 A 
ATOM     24  C   UNL     1       4.112   0.065  -3.003  0.00  0.00    +0.024 A 
ATOM     25  C   UNL     1       4.632  -0.685  -4.042  0.00  0.00    +0.075 A 
ATOM     26  S   UNL     1       3.191  -1.569  -4.609  0.00  0.00    -0.088 S 
ATOM     27  C   UNL     1       2.050   0.682  -1.625  0.00  0.00    +0.040 C 
BRANCH  19  29
ATOM     28  C   UNL     1      -0.366   2.191  -0.941  0.00  0.00    +0.011 C 
ATOM     29  C   UNL     1      -0.071   0.826  -0.316  0.00  0.00    -0.035 C 
ATOM     30  C   UNL     1       0.737   1.016   0.969  0.00  0.00    +0.011 C 
ATOM     31  C   UNL     1      -1.389   0.119   0.009  0.00  0.00    +0.011 C 
ENDBRANCH  19  29
ENDBRANCH   1  25
TORSDOF 3
