REMARK  Name = ZINC52309877
REMARK  10 active torsions:
REMARK  status: ('A' for Active; 'I' for Inactive)
REMARK    1  A    between atoms: C_1  and  C_2
REMARK    2  A    between atoms: C_2  and  C_3
REMARK    3  A    between atoms: C_3  and  C_4
REMARK    4  A    between atoms: C_3  and  C_5
REMARK    5  A    between atoms: C_3  and  C_6
REMARK    6  A    between atoms: C_10  and  C_23
REMARK    7  A    between atoms: C_12  and  S_15
REMARK    8  A    between atoms: S_15  and  C_16
REMARK    9  A    between atoms: C_18  and  C_22
REMARK   10  A    between atoms: N_20  and  C_21
REMARK                            x       y       z     vdW  Elec       q    Type
REMARK                         _______ _______ _______ _____ _____    ______ ____
ROOT
ATOM      1  C   UNL     1      -1.995  -1.843  -0.279  0.00  0.00    -0.004 C 
ATOM      2  C   UNL     1      -1.157  -2.028   0.987  0.00  0.00    +0.005 C 
ATOM      3  C   UNL     1      -0.803  -3.507   1.154  0.00  0.00    +0.020 C 
ATOM      4  C   UNL     1      -2.088  -4.329   1.269  0.00  0.00    +0.105 C 
ATOM      5  C   UNL     1      -2.927  -4.144   0.002  0.00  0.00    +0.070 C 
ATOM      6  C   UNL     1      -3.280  -2.665  -0.164  0.00  0.00    +0.020 C 
ENDROOT
BRANCH   1   7
ATOM      7  C   UNL     1      -2.349  -0.364  -0.446  0.00  0.00    -0.032 C 
ATOM      8  C   UNL     1      -3.149   0.109   0.769  0.00  0.00    +0.011 C 
ATOM      9  C   UNL     1      -3.187  -0.179  -1.712  0.00  0.00    +0.011 C 
BRANCH   7  11
ATOM     10  C   UNL     1      -1.417   1.937  -0.727  0.00  0.00    +0.004 C 
ATOM     11  C   UNL     1      -1.063   0.458  -0.561  0.00  0.00    +0.003 C 
ENDBRANCH   7  11
ENDBRANCH   1   7
BRANCH   4  12
ATOM     12  C   UNL     1      -1.748  -5.752   1.429  0.00  0.00    +0.067 C 
ATOM     13  N   UNL     1      -1.486  -6.850   1.552  0.00  0.00    -0.196 NA
ENDBRANCH   4  12
BRANCH   5  14
ATOM     14  S   UNL     1      -1.978  -4.705  -1.438  0.00  0.00    -0.102 S 
BRANCH  14  15
ATOM     15  C   UNL     1      -2.037  -6.462  -1.330  0.00  0.00    +0.095 A 
ATOM     16  C   UNL     1      -0.966  -7.304  -1.284  0.00  0.00    +0.059 A 
ATOM     17  C   UNL     1      -1.452  -8.611  -1.201  0.00  0.00    +0.061 A 
ATOM     18  N   UNL     1      -2.760  -8.568  -1.198  0.00  0.00    -0.176 NA
ATOM     19  N   UNL     1      -3.158  -7.227  -1.272  0.00  0.00    -0.261 N 
ATOM     20  C   UNL     1      -4.539  -6.737  -1.288  0.00  0.00    +0.173 C 
ATOM     21  C   UNL     1      -0.612  -9.860  -1.129  0.00  0.00    +0.067 C 
ENDBRANCH  14  15
ENDBRANCH   5  14
TORSDOF 5
