REMARK  Name = ZINC43737206
REMARK  12 active torsions:
REMARK  status: ('A' for Active; 'I' for Inactive)
REMARK    1  A    between atoms: C_1  and  C_2
REMARK    2  A    between atoms: C_6  and  C_9
REMARK    3  A    between atoms: C_9  and  C_11
REMARK    4  A    between atoms: C_9  and  C_12
REMARK    5  A    between atoms: C_14  and  O_41
REMARK    6  A    between atoms: C_19  and  C_40
REMARK    7  A    between atoms: C_29  and  C_39
REMARK    8  A    between atoms: C_32  and  O_35
REMARK    9  A    between atoms: O_35  and  C_36
REMARK   10  A    between atoms: C_36  and  C_38
REMARK   11  A    between atoms: O_41  and  C_42
REMARK   12  A    between atoms: C_42  and  C_44
REMARK                            x       y       z     vdW  Elec       q    Type
REMARK                         _______ _______ _______ _____ _____    ______ ____
ROOT
ATOM      1  C   UNL     1       0.497  -4.565   2.254  0.00  0.00    +0.044 C 
ATOM      2  C   UNL     1       0.325  -6.069   2.537  0.00  0.00    +0.181 C 
ATOM      3  C   UNL     1      -0.169  -6.190   3.997  0.00  0.00    +0.049 C 
ATOM      4  C   UNL     1      -0.809  -4.817   4.274  0.00  0.00    +0.003 C 
ATOM      5  C   UNL     1       0.140  -3.829   3.573  0.00  0.00    -0.022 C 
ATOM      6  C   UNL     1       1.445  -3.687   4.362  0.00  0.00    +0.007 C 
ATOM      7  C   UNL     1       1.154  -3.290   5.807  0.00  0.00    +0.005 C 
ATOM      8  C   UNL     1       0.346  -4.410   6.475  0.00  0.00    +0.003 C 
ATOM      9  C   UNL     1      -0.973  -4.543   5.750  0.00  0.00    +0.000 C 
ATOM     10  C   UNL     1      -1.748  -5.693   6.405  0.00  0.00    +0.031 C 
ATOM     11  C   UNL     1      -1.869  -5.434   7.878  0.00  0.00    -0.027 C 
ATOM     12  C   UNL     1      -1.014  -4.714   8.544  0.00  0.00    -0.064 C 
ATOM     13  C   UNL     1       0.132  -4.064   7.939  0.00  0.00    -0.008 C 
ATOM     14  C   UNL     1       1.375  -4.431   8.754  0.00  0.00    +0.015 C 
ATOM     15  C   UNL     1       1.137  -4.084  10.225  0.00  0.00    +0.046 C 
ATOM     16  C   UNL     1      -0.023  -4.918  10.772  0.00  0.00    +0.180 C 
ATOM     17  C   UNL     1      -1.233  -4.531  10.036  0.00  0.00    +0.075 C 
ATOM     18  C   UNL     1      -0.059  -2.550   8.049  0.00  0.00    +0.016 C 
ATOM     19  C   UNL     1      -0.530  -2.478   3.313  0.00  0.00    +0.012 C 
ENDROOT
BRANCH   1  20
ATOM     20  C   UNL     1      -0.452  -4.129   1.136  0.00  0.00    +0.035 C 
ATOM     21  C   UNL     1      -1.891  -4.471   1.525  0.00  0.00    +0.014 C 
BRANCH  20  26
ATOM     22  C   UNL     1       0.937  -7.046  -3.625  0.00  0.00    +0.009 C 
ATOM     23  C   UNL     1       0.305  -6.463  -2.360  0.00  0.00    +0.005 C 
ATOM     24  C   UNL     1      -0.117  -5.010  -2.615  0.00  0.00    +0.011 C 
ATOM     25  C   UNL     1      -0.866  -4.507  -1.378  0.00  0.00    +0.049 C 
ATOM     26  C   UNL     1      -0.091  -4.849  -0.138  0.00  0.00    -0.008 C 
ATOM     27  N   UNL     1       0.840  -5.698  -0.090  0.00  0.00    -0.390 N 
ATOM     28  C   UNL     1       1.327  -6.476  -1.221  0.00  0.00    +0.115 C 
ATOM     29  H   UNL     1       1.266  -5.845   0.769  0.00  0.00    +0.159 HD
ENDBRANCH  20  26
ENDBRANCH   1  20
BRANCH  16  30
ATOM     30  O   UNL     1       0.257  -6.306  10.583  0.00  0.00    -0.461 OA
BRANCH  30  31
ATOM     31  C   UNL     1      -0.263  -7.160  11.478  0.00  0.00    +0.304 C 
ATOM     32  O   UNL     1      -0.933  -6.743  12.393  0.00  0.00    -0.251 OA
ATOM     33  C   UNL     1      -0.009  -8.640  11.344  0.00  0.00    +0.136 C 
ENDBRANCH  30  31
ENDBRANCH  16  30
BRANCH   2  34
ATOM     34  O   UNL     1      -0.640  -6.628   1.644  0.00  0.00    -0.461 OA
BRANCH  34  35
ATOM     35  C   UNL     1      -0.486  -7.918   1.309  0.00  0.00    +0.304 C 
ATOM     36  O   UNL     1       0.439  -8.553   1.759  0.00  0.00    -0.251 OA
ATOM     37  C   UNL     1      -1.466  -8.576   0.372  0.00  0.00    +0.136 C 
ENDBRANCH  34  35
ENDBRANCH   2  34
TORSDOF 6
