REMARK  Name = ZINC39638738
REMARK  8 active torsions:
REMARK  status: ('A' for Active; 'I' for Inactive)
REMARK    1  A    between atoms: C_1  and  C_2
REMARK    2  A    between atoms: C_2  and  O_3
REMARK    3  A    between atoms: O_3  and  C_4
REMARK    4  A    between atoms: C_9  and  C_10
REMARK    5  A    between atoms: C_10  and  N_11
REMARK    6  A    between atoms: C_12  and  C_14
REMARK    7  A    between atoms: C_25  and  C_27
REMARK    8  A    between atoms: C_30  and  C_32
REMARK                            x       y       z     vdW  Elec       q    Type
REMARK                         _______ _______ _______ _____ _____    ______ ____
ROOT
ATOM      1  C   UNL     1      -5.551   0.325  -2.947  0.00  0.00    +0.100 C 
ATOM      2  C   UNL     1      -5.765  -0.859  -3.916  0.00  0.00    +0.121 C 
ATOM      3  N   UNL     1      -7.235  -1.040  -3.966  0.00  0.00    -0.294 N 
ATOM      4  C   UNL     1      -7.776   0.341  -3.967  0.00  0.00    +0.115 C 
ATOM      5  C   UNL     1      -6.871   1.112  -2.986  0.00  0.00    -0.004 C 
ATOM      6  C   UNL     1      -6.627   2.529  -3.496  0.00  0.00    -0.010 C 
ATOM      7  C   UNL     1      -7.944   3.310  -3.470  0.00  0.00    -0.082 C 
ATOM      8  N   UNL     1      -8.468   3.345  -2.100  0.00  0.00    +0.379 N 
ATOM      9  C   UNL     1      -8.788   1.984  -1.651  0.00  0.00    -0.082 C 
ATOM     10  C   UNL     1      -7.506   1.148  -1.599  0.00  0.00    -0.010 C 
ATOM     11  C   UNL     1      -7.924  -2.197  -4.003  0.00  0.00    +0.282 C 
ATOM     12  O   UNL     1      -9.141  -2.180  -4.044  0.00  0.00    -0.267 OA
ATOM     13  H   UNL     1      -7.775   3.746  -1.486  0.00  0.00    -0.086 HD
ATOM     14  H   UNL     1      -9.303   3.911  -2.075  0.00  0.00    -0.086 HD
ENDROOT
BRANCH  11  15
ATOM     15  C   UNL     1      -7.210  -3.476  -3.996  0.00  0.00    +0.190 A 
ATOM     16  C   UNL     1      -7.788  -4.726  -4.036  0.00  0.00    +0.055 A 
ATOM     17  C   UNL     1      -6.742  -5.655  -4.011  0.00  0.00    +0.051 A 
ATOM     18  C   UNL     1      -5.576  -4.946  -3.957  0.00  0.00    +0.139 A 
ATOM     19  O   UNL     1      -5.870  -3.635  -3.954  0.00  0.00    -0.450 OA
BRANCH  18  20
ATOM     20  C   UNL     1      -4.219  -5.524  -3.916  0.00  0.00    +0.052 A 
ATOM     21  C   UNL     1      -3.913  -6.531  -2.998  0.00  0.00    +0.014 A 
ATOM     22  C   UNL     1      -2.642  -7.067  -2.964  0.00  0.00    +0.001 A 
ATOM     23  C   UNL     1      -1.670  -6.610  -3.837  0.00  0.00    +0.003 A 
ATOM     24  C   UNL     1      -1.964  -5.613  -4.749  0.00  0.00    +0.039 A 
ATOM     25  C   UNL     1      -3.234  -5.070  -4.799  0.00  0.00    +0.134 A 
ATOM     26  F   UNL     1      -3.522  -4.101  -5.695  0.00  0.00    -0.205 F 
ENDBRANCH  18  20
ENDBRANCH  11  15
BRANCH   1  28
ATOM     27  N   UNL     1      -4.531   0.551  -0.704  0.00  0.00    -0.311 N 
ATOM     28  C   UNL     1      -5.282  -0.180  -1.552  0.00  0.00    +0.218 C 
ATOM     29  O   UNL     1      -5.741  -1.243  -1.194  0.00  0.00    -0.275 OA
ATOM     30  H   UNL     1      -4.163   1.401  -0.992  0.00  0.00    +0.149 HD
BRANCH  27  31
ATOM     31  C   UNL     1      -4.269   0.060   0.651  0.00  0.00    +0.143 C 
BRANCH  31  37
ATOM     32  C   UNL     1      -3.987   2.187   1.947  0.00  0.00    +0.125 A 
ATOM     33  C   UNL     1      -3.195   3.099   2.631  0.00  0.00    +0.046 A 
ATOM     34  C   UNL     1      -1.837   2.880   2.749  0.00  0.00    +0.004 A 
ATOM     35  C   UNL     1      -1.265   1.754   2.187  0.00  0.00    +0.001 A 
ATOM     36  C   UNL     1      -2.051   0.844   1.505  0.00  0.00    +0.009 A 
ATOM     37  C   UNL     1      -3.412   1.055   1.389  0.00  0.00    +0.011 A 
BRANCH  32  38
ATOM     38  O   UNL     1      -5.324   2.400   1.830  0.00  0.00    -0.492 OA
BRANCH  38  40
ATOM     39  C   UNL     1      -7.357   3.654   2.196  0.00  0.00    +0.048 C 
ATOM     40  C   UNL     1      -5.847   3.587   2.430  0.00  0.00    +0.225 C 
ENDBRANCH  38  40
ENDBRANCH  32  38
ENDBRANCH  31  37
ENDBRANCH  27  31
ENDBRANCH   1  28
TORSDOF 7
