REMARK  Name = ZINC20617062
REMARK  9 active torsions:
REMARK  status: ('A' for Active; 'I' for Inactive)
REMARK    1  A    between atoms: C_1  and  C_2
REMARK    2  A    between atoms: C_5  and  N_8
REMARK    3  A    between atoms: C_9  and  C_11
REMARK    4  A    between atoms: C_14  and  C_31
REMARK    5  A    between atoms: C_17  and  C_30
REMARK    6  A    between atoms: N_21  and  C_22
REMARK    7  A    between atoms: C_31  and  O_32
REMARK    8  A    between atoms: O_32  and  C_33
REMARK    9  A    between atoms: C_33  and  C_35
REMARK                            x       y       z     vdW  Elec       q    Type
REMARK                         _______ _______ _______ _____ _____    ______ ____
ROOT
ATOM      1  C   UNL     1       4.829   1.038  -0.350  0.00  0.00    +0.098 A 
ATOM      2  C   UNL     1       5.777   1.633  -1.157  0.00  0.00    +0.030 A 
ATOM      3  C   UNL     1       5.485   2.978  -1.658  0.00  0.00    +0.028 A 
ATOM      4  C   UNL     1       6.243   3.565  -2.678  0.00  0.00    +0.018 A 
ATOM      5  C   UNL     1       5.905   4.834  -3.101  0.00  0.00    +0.118 A 
ATOM      6  N   UNL     1       4.892   5.488  -2.562  0.00  0.00    -0.256 NA
ATOM      7  C   UNL     1       4.150   4.979  -1.600  0.00  0.00    +0.081 A 
ATOM      8  C   UNL     1       4.415   3.708  -1.108  0.00  0.00    +0.159 A 
ATOM      9  O   UNL     1       3.669   3.164  -0.118  0.00  0.00    -0.437 OA
ATOM     10  C   UNL     1       3.599   1.809  -0.076  0.00  0.00    +0.212 A 
ATOM     11  N   UNL     1       2.469   1.199   0.206  0.00  0.00    -0.325 N 
ATOM     12  C   UNL     1       3.009   5.780  -1.030  0.00  0.00    +0.069 C 
ATOM     13  H   UNL     1       2.449   0.106   0.327  0.00  0.00    +0.169 HD
ENDROOT
BRANCH  11  14
ATOM     14  C   UNL     1       1.318   1.924   0.351  0.00  0.00    +0.043 A 
ATOM     15  C   UNL     1       0.911   2.348   1.618  0.00  0.00    +0.028 A 
ATOM     16  C   UNL     1      -0.253   3.075   1.759  0.00  0.00    +0.042 A 
ATOM     17  C   UNL     1      -1.013   3.394   0.645  0.00  0.00    +0.142 A 
ATOM     18  C   UNL     1      -0.614   2.977  -0.616  0.00  0.00    +0.078 A 
ATOM     19  C   UNL     1       0.546   2.244  -0.768  0.00  0.00    +0.048 A 
ATOM     20 CL   UNL     1      -1.575   3.376  -2.005  0.00  0.00    -0.081 Cl
ATOM     21  F   UNL     1      -2.149   4.111   0.789  0.00  0.00    -0.204 F 
ENDBRANCH  11  14
BRANCH   1  23
ATOM     22  N   UNL     1       4.083  -0.864   0.993  0.00  0.00    -0.281 N 
ATOM     23  C   UNL     1       5.031  -0.310   0.211  0.00  0.00    +0.253 C 
ATOM     24  O   UNL     1       6.053  -0.923  -0.031  0.00  0.00    -0.270 OA
ATOM     25  H   UNL     1       3.123  -0.347   1.144  0.00  0.00    +0.155 HD
BRANCH  22  30
ATOM     26  C   UNL     1       5.038  -5.859   3.504  0.00  0.00    +0.044 C 
ATOM     27  C   UNL     1       4.785  -4.532   2.837  0.00  0.00    -0.050 A 
ATOM     28  C   UNL     1       5.830  -3.649   2.637  0.00  0.00    +0.005 A 
ATOM     29  C   UNL     1       5.601  -2.432   2.026  0.00  0.00    +0.023 A 
ATOM     30  C   UNL     1       4.318  -2.095   1.612  0.00  0.00    +0.034 A 
ATOM     31  C   UNL     1       3.269  -2.982   1.819  0.00  0.00    +0.023 A 
ATOM     32  C   UNL     1       3.507  -4.199   2.426  0.00  0.00    +0.005 A 
ENDBRANCH  22  30
ENDBRANCH   1  23
BRANCH   4  33
ATOM     33  C   UNL     1       7.401   2.828  -3.300  0.00  0.00    +0.269 C 
BRANCH  33  34
ATOM     34  O   UNL     1       8.009   3.658  -4.324  0.00  0.00    -0.460 OA
BRANCH  34  35
ATOM     35  C   UNL     1       9.062   3.144  -4.979  0.00  0.00    +0.304 C 
ATOM     36  O   UNL     1       9.462   2.037  -4.706  0.00  0.00    -0.251 OA
ATOM     37  C   UNL     1       9.745   3.948  -6.056  0.00  0.00    +0.136 C 
ENDBRANCH  34  35
ENDBRANCH  33  34
ENDBRANCH   4  33
TORSDOF 6
