REMARK  Name = ZINC12245577
REMARK  10 active torsions:
REMARK  status: ('A' for Active; 'I' for Inactive)
REMARK    1  A    between atoms: C_1  and  C_2
REMARK    2  A    between atoms: C_2  and  C_3
REMARK    3  A    between atoms: C_2  and  C_4
REMARK    4  A    between atoms: C_2  and  O_32
REMARK    5  A    between atoms: C_5  and  C_6
REMARK    6  A    between atoms: C_9  and  C_12
REMARK    7  A    between atoms: C_12  and  N_67
REMARK    8  A    between atoms: C_19  and  C_23
REMARK    9  A    between atoms: C_23  and  C_25
REMARK   10  A    between atoms: C_23  and  O_31
REMARK                            x       y       z     vdW  Elec       q    Type
REMARK                         _______ _______ _______ _____ _____    ______ ____
ROOT
ATOM      1  C   UNL     1      -0.733   1.581  -1.228  0.00  0.00    -0.036 C 
ATOM      2  C   UNL     1      -0.013   1.086   0.008  0.00  0.00    +0.210 C 
ATOM      3  O   UNL     1      -0.672   1.542   1.196  0.00  0.00    -0.494 OA
ATOM      4  C   UNL     1      -0.306   2.782   1.624  0.00  0.00    +0.122 A 
ATOM      5  C   UNL     1       0.440   2.927   2.785  0.00  0.00    +0.046 A 
ATOM      6  C   UNL     1       0.848   4.186   3.183  0.00  0.00    +0.010 A 
ATOM      7  C   UNL     1       0.514   5.296   2.430  0.00  0.00    -0.018 A 
ATOM      8  C   UNL     1      -0.239   5.152   1.277  0.00  0.00    +0.011 A 
ATOM      9  C   UNL     1      -0.652   3.896   0.884  0.00  0.00    -0.022 A 
ATOM     10  C   UNL     1      -1.495   3.727  -0.365  0.00  0.00    -0.039 C 
ATOM     11  N   UNL     1      -0.661   3.050  -1.386  0.00  0.00    +0.387 N 
ATOM     12  H   UNL     1       0.314   3.348  -1.266  0.00  0.00    -0.081 HD
ENDROOT
BRANCH  11  13
ATOM     13  C   UNL     1      -1.112   3.428  -2.736  0.00  0.00    -0.042 C 
BRANCH  13  17
ATOM     14  C   UNL     1      -5.233   2.442  -3.310  0.00  0.00    +0.025 A 
ATOM     15  C   UNL     1      -4.876   3.691  -2.801  0.00  0.00    +0.017 A 
ATOM     16  C   UNL     1      -3.544   4.003  -2.618  0.00  0.00    +0.003 A 
ATOM     17  C   UNL     1      -2.564   3.080  -2.938  0.00  0.00    -0.064 A 
ATOM     18  C   UNL     1      -2.912   1.842  -3.448  0.00  0.00    +0.003 A 
ATOM     19  C   UNL     1      -4.240   1.516  -3.631  0.00  0.00    +0.017 A 
BRANCH  14  21
ATOM     20  C   UNL     1      -7.744   1.841  -3.659  0.00  0.00    -0.063 C 
ATOM     21  C   UNL     1      -6.613   2.112  -3.502  0.00  0.00    -0.063 C 
BRANCH  20  23
ATOM     22  C   UNL     1      -9.274   0.084  -4.421  0.00  0.00    +0.055 C 
ATOM     23  C   UNL     1      -9.163   1.501  -3.856  0.00  0.00    +0.121 C 
ATOM     24  C   UNL     1      -9.896   1.575  -2.516  0.00  0.00    +0.055 C 
BRANCH  23  25
ATOM     25  O   UNL     1      -9.751   2.427  -4.773  0.00  0.00    -0.377 OA
ATOM     26  H   UNL     1      -9.717   3.347  -4.479  0.00  0.00    +0.211 HD
ENDBRANCH  23  25
ENDBRANCH  20  23
ENDBRANCH  14  21
ENDBRANCH  13  17
ENDBRANCH  11  13
BRANCH   7  27
ATOM     27  C   UNL     1       0.970   6.665   2.864  0.00  0.00    +0.148 C 
BRANCH  27  28
ATOM     28  C   UNL     1       0.047   7.184   3.968  0.00  0.00    +0.022 C 
ATOM     29  C   UNL     1      -1.385   7.269   3.438  0.00  0.00    +0.006 C 
ATOM     30  C   UNL     1      -2.308   7.788   4.542  0.00  0.00    +0.000 C 
ATOM     31  C   UNL     1      -1.845   9.178   4.983  0.00  0.00    +0.000 C 
ATOM     32  C   UNL     1      -0.412   9.093   5.513  0.00  0.00    +0.000 C 
ATOM     33  C   UNL     1       0.511   8.574   4.409  0.00  0.00    +0.006 C 
ENDBRANCH  27  28
BRANCH  27  34
ATOM     34  O   UNL     1       2.308   6.587   3.359  0.00  0.00    -0.387 OA
ATOM     35  H   UNL     1       2.412   5.997   4.119  0.00  0.00    +0.210 HD
ENDBRANCH  27  34
ENDBRANCH   7  27
TORSDOF 8
