REMARK  Name = ZINC16495476
REMARK  10 active torsions:
REMARK  status: ('A' for Active; 'I' for Inactive)
REMARK    1  A    between atoms: C_4  and  C_7
REMARK    2  A    between atoms: C_7  and  C_8
REMARK    3  A    between atoms: N_13  and  C_14
REMARK    4  A    between atoms: N_13  and  C_29
REMARK    5  A    between atoms: C_14  and  C_15
REMARK    6  A    between atoms: C_15  and  C_16
REMARK    7  A    between atoms: N_18  and  C_19
REMARK    8  A    between atoms: C_19  and  C_20
REMARK    9  A    between atoms: C_20  and  C_21
REMARK   10  A    between atoms: C_29  and  C_30
REMARK                            x       y       z     vdW  Elec       q    Type
REMARK                         _______ _______ _______ _____ _____    ______ ____
ROOT
ATOM      1  C   UNL     1      -9.718   4.608   4.524  0.00  0.00    +0.145 A 
ATOM      2  N   UNL     1      -8.744   5.461   4.309  0.00  0.00    -0.208 NA
ATOM      3  C   UNL     1      -7.499   5.005   4.263  0.00  0.00    +0.181 A 
ATOM      4  S   UNL     1      -7.742   3.308   4.530  0.00  0.00    +0.049 S 
ATOM      5  N   UNL     1      -9.446   3.336   4.688  0.00  0.00    -0.192 NA
ATOM      6  N   UNL     1      -6.321   5.699   4.054  0.00  0.00    -0.304 N 
ENDROOT
BRANCH   1   7
ATOM      7  C   UNL     1     -11.145   5.090   4.581  0.00  0.00    +0.112 C 
BRANCH   7  11
ATOM      8  C   UNL     1     -12.853   4.955   0.668  0.00  0.00    +0.000 A 
ATOM      9  C   UNL     1     -12.946   3.856   1.501  0.00  0.00    +0.000 A 
ATOM     10  C   UNL     1     -12.393   3.900   2.768  0.00  0.00    +0.004 A 
ATOM     11  C   UNL     1     -11.747   5.042   3.201  0.00  0.00    -0.040 A 
ATOM     12  C   UNL     1     -11.658   6.143   2.369  0.00  0.00    +0.004 A 
ATOM     13  C   UNL     1     -12.206   6.098   1.101  0.00  0.00    +0.000 A 
ENDBRANCH   7  11
ENDBRANCH   1   7
BRANCH   6  14
ATOM     14  C   UNL     1      -5.042   4.984   4.044  0.00  0.00    +0.116 C 
BRANCH  14  15
ATOM     15  C   UNL     1      -4.726   4.524   2.619  0.00  0.00    +0.114 C 
BRANCH  15  16
ATOM     16  C   UNL     1      -3.410   3.788   2.609  0.00  0.00    +0.215 C 
ATOM     17  O   UNL     1      -2.787   3.646   3.639  0.00  0.00    -0.276 OA
ATOM     18  N   UNL     1      -2.927   3.289   1.454  0.00  0.00    -0.315 N 
ATOM     19  H   UNL     1      -3.425   3.402   0.630  0.00  0.00    +0.149 HD
BRANCH  18  20
ATOM     20  C   UNL     1      -1.648   2.574   1.444  0.00  0.00    +0.109 C 
BRANCH  20  21
ATOM     21  C   UNL     1      -1.332   2.114   0.020  0.00  0.00    +0.055 C 
BRANCH  21  22
ATOM     22  C   UNL     1      -0.017   1.378   0.010  0.00  0.00    -0.027 A 
ATOM     23  C   UNL     1       0.002  -0.004   0.002  0.00  0.00    +0.006 A 
ATOM     24  C   UNL     1       1.208  -0.679  -0.013  0.00  0.00    +0.020 A 
ATOM     25  C   UNL     1       2.397   0.028  -0.021  0.00  0.00    +0.042 A 
ATOM     26  C   UNL     1       2.379   1.411  -0.013  0.00  0.00    +0.040 A 
ATOM     27  C   UNL     1       1.172   2.086   0.002  0.00  0.00    +0.046 A 
ATOM     28 CL   UNL     1       1.148   3.822   0.012  0.00  0.00    -0.083 Cl
ATOM     29 CL   UNL     1       3.912  -0.820  -0.039  0.00  0.00    -0.083 Cl
ENDBRANCH  21  22
ENDBRANCH  20  21
ENDBRANCH  18  20
ENDBRANCH  15  16
ENDBRANCH  14  15
ENDBRANCH   6  14
BRANCH   6  30
ATOM     30  C   UNL     1      -6.351   7.148   3.841  0.00  0.00    +0.142 C 
BRANCH  30  31
ATOM     31  C   UNL     1      -6.489   7.437   2.369  0.00  0.00    -0.030 A 
ATOM     32  C   UNL     1      -5.359   7.584   1.585  0.00  0.00    +0.005 A 
ATOM     33  C   UNL     1      -5.486   7.844   0.233  0.00  0.00    +0.000 A 
ATOM     34  C   UNL     1      -6.741   7.968  -0.333  0.00  0.00    +0.000 A 
ATOM     35  C   UNL     1      -7.870   7.826   0.452  0.00  0.00    +0.000 A 
ATOM     36  C   UNL     1      -7.744   7.561   1.803  0.00  0.00    +0.005 A 
ENDBRANCH  30  31
ENDBRANCH   6  30
TORSDOF 10
