REMARK  Name = ZINC02316611
REMARK  7 active torsions:
REMARK  status: ('A' for Active; 'I' for Inactive)
REMARK    1  A    between atoms: C_1  and  C_2
REMARK    2  A    between atoms: C_2  and  N_3
REMARK    3  A    between atoms: C_9  and  N_14
REMARK    4  A    between atoms: C_10  and  C_11
REMARK    5  A    between atoms: N_14  and  C_15
REMARK    6  A    between atoms: C_15  and  N_17
REMARK    7  A    between atoms: C_18  and  C_20
REMARK                            x       y       z     vdW  Elec       q    Type
REMARK                         _______ _______ _______ _____ _____    ______ ____
ROOT
ATOM      1  N   UNL     1       0.690  -0.478  -1.207  0.00  0.00    +0.383 N 
ATOM      2  C   UNL     1       0.601  -1.942  -1.277  0.00  0.00    -0.074 C 
ATOM      3  C   UNL     1       1.029  -2.431  -2.665  0.00  0.00    +0.018 C 
ATOM      4  C   UNL     1       2.386  -1.818  -2.979  0.00  0.00    -0.027 A 
ATOM      5  C   UNL     1       2.832  -0.755  -2.272  0.00  0.00    -0.021 A 
ATOM      6  S   UNL     1       4.416  -0.390  -2.964  0.00  0.00    -0.079 S 
ATOM      7  C   UNL     1       4.496  -1.585  -4.142  0.00  0.00    +0.084 A 
ATOM      8  C   UNL     1       3.300  -2.275  -4.008  0.00  0.00    +0.068 A 
ATOM      9  C   UNL     1       2.106  -0.068  -1.158  0.00  0.00    -0.035 C 
ATOM     10  H   UNL     1       0.251  -0.076  -2.022  0.00  0.00    -0.081 HD
ENDROOT
BRANCH   8  11
ATOM     11  C   UNL     1       2.974  -3.416  -4.869  0.00  0.00    +0.244 C 
ATOM     12  O   UNL     1       2.384  -3.237  -5.918  0.00  0.00    -0.270 OA
ATOM     13  N   UNL     1       3.326  -4.662  -4.497  0.00  0.00    -0.325 N 
ATOM     14  H   UNL     1       3.796  -4.804  -3.660  0.00  0.00    +0.145 HD
ATOM     15  H   UNL     1       3.111  -5.417  -5.067  0.00  0.00    +0.145 HD
ENDBRANCH   8  11
BRANCH   1  17
ATOM     16  C   UNL     1      -0.019   1.526   0.010  0.00  0.00    -0.017 C 
ATOM     17  C   UNL     1       0.002  -0.004   0.002  0.00  0.00    -0.082 C 
ENDBRANCH   1  17
BRANCH   7  18
ATOM     18  N   UNL     1       5.522  -1.827  -5.041  0.00  0.00    -0.291 N 
ATOM     19  H   UNL     1       5.447  -2.554  -5.678  0.00  0.00    +0.154 HD
BRANCH  18  20
ATOM     20  C   UNL     1       6.624  -1.051  -5.031  0.00  0.00    +0.141 C 
ATOM     21  S   UNL     1       6.756   0.233  -3.906  0.00  0.00    -0.018 S 
BRANCH  20  22
ATOM     22  N   UNL     1       7.622  -1.286  -5.905  0.00  0.00    -0.264 N 
ATOM     23  C   UNL     1       8.724  -0.510  -5.895  0.00  0.00    +0.250 C 
ATOM     24  O   UNL     1       8.818   0.401  -5.097  0.00  0.00    -0.270 OA
ATOM     25  H   UNL     1       7.548  -2.014  -6.542  0.00  0.00    +0.157 HD
BRANCH  23  26
ATOM     26  C   UNL     1       9.818  -0.768  -6.853  0.00  0.00    +0.037 A 
ATOM     27  C   UNL     1       9.711  -1.811  -7.776  0.00  0.00    +0.014 A 
ATOM     28  C   UNL     1      10.736  -2.047  -8.668  0.00  0.00    +0.021 A 
ATOM     29  C   UNL     1      11.870  -1.252  -8.650  0.00  0.00    +0.041 A 
ATOM     30  C   UNL     1      11.982  -0.216  -7.738  0.00  0.00    +0.021 A 
ATOM     31  C   UNL     1      10.961   0.034  -6.845  0.00  0.00    +0.014 A 
ATOM     32 CL   UNL     1      13.155  -1.555  -9.777  0.00  0.00    -0.084 Cl
ENDBRANCH  23  26
ENDBRANCH  20  22
ENDBRANCH  18  20
ENDBRANCH   7  18
TORSDOF 6
