REMARK  Name = ZINC44905537
REMARK  12 active torsions:
REMARK  status: ('A' for Active; 'I' for Inactive)
REMARK    1  A    between atoms: C_1  and  C_2
REMARK    2  A    between atoms: C_2  and  O_3
REMARK    3  A    between atoms: O_3  and  C_4
REMARK    4  A    between atoms: C_7  and  C_13
REMARK    5  A    between atoms: C_9  and  O_10
REMARK    6  A    between atoms: O_10  and  C_11
REMARK    7  A    between atoms: C_11  and  C_12
REMARK    8  A    between atoms: C_13  and  C_15
REMARK    9  A    between atoms: C_13  and  N_16
REMARK   10  A    between atoms: C_17  and  C_19
REMARK   11  A    between atoms: N_24  and  C_26
REMARK   12  A    between atoms: C_26  and  C_27
REMARK                            x       y       z     vdW  Elec       q    Type
REMARK                         _______ _______ _______ _____ _____    ______ ____
ROOT
ATOM      1  N   UNL     1      -0.625  -7.051  -0.387  0.00  0.00    -0.309 N 
ATOM      2  C   UNL     1      -0.954  -8.166  -1.068  0.00  0.00    +0.215 C 
ATOM      3  O   UNL     1      -2.026  -8.700  -0.875  0.00  0.00    -0.276 OA
ATOM      4  H   UNL     1       0.232  -6.624  -0.541  0.00  0.00    +0.149 HD
ENDROOT
BRANCH   2   5
ATOM      5  C   UNL     1       0.009  -8.750  -2.069  0.00  0.00    +0.058 C 
ATOM      6  C   UNL     1       1.316  -9.123  -1.363  0.00  0.00    +0.009 C 
ATOM      7  C   UNL     1       2.258  -9.786  -2.372  0.00  0.00    -0.018 C 
ATOM      8  C   UNL     1       1.563 -11.003  -2.986  0.00  0.00    -0.078 C 
ATOM      9  N   UNL     1       0.335 -10.578  -3.668  0.00  0.00    +0.383 N 
ATOM     10  C   UNL     1      -0.603 -10.005  -2.695  0.00  0.00    -0.066 C 
ATOM     11  H   UNL     1       0.561  -9.883  -4.364  0.00  0.00    -0.081 HD
BRANCH   9  12
ATOM     12  C   UNL     1      -0.287 -11.737  -4.322  0.00  0.00    -0.042 C 
BRANCH  12  13
ATOM     13  C   UNL     1       0.610 -12.231  -5.427  0.00  0.00    -0.046 A 
ATOM     14  C   UNL     1       1.385 -13.360  -5.236  0.00  0.00    +0.004 A 
ATOM     15  C   UNL     1       2.208 -13.814  -6.249  0.00  0.00    +0.020 A 
ATOM     16  C   UNL     1       2.255 -13.139  -7.457  0.00  0.00    +0.042 A 
ATOM     17  C   UNL     1       1.480 -12.010  -7.649  0.00  0.00    +0.040 A 
ATOM     18  C   UNL     1       0.652 -11.559  -6.636  0.00  0.00    +0.044 A 
ATOM     19 CL   UNL     1      -0.326 -10.146  -6.878  0.00  0.00    -0.083 Cl
ATOM     20 CL   UNL     1       3.289 -13.709  -8.729  0.00  0.00    -0.083 Cl
ENDBRANCH  12  13
ENDBRANCH   9  12
ENDBRANCH   2   5
BRANCH   1  21
ATOM     21  C   UNL     1      -1.561  -6.483   0.587  0.00  0.00    +0.100 C 
ATOM     22  C   UNL     1      -1.382  -7.183   1.935  0.00  0.00    +0.033 C 
BRANCH  21  26
ATOM     23  C   UNL     1      -0.783  -2.302   1.036  0.00  0.00    +0.162 A 
ATOM     24  C   UNL     1       0.269  -3.197   0.918  0.00  0.00    +0.050 A 
ATOM     25  C   UNL     1       0.014  -4.548   0.773  0.00  0.00    +0.009 A 
ATOM     26  C   UNL     1      -1.289  -5.010   0.745  0.00  0.00    -0.024 A 
ATOM     27  C   UNL     1      -2.343  -4.122   0.862  0.00  0.00    +0.055 A 
ATOM     28  C   UNL     1      -2.094  -2.768   1.014  0.00  0.00    +0.162 A 
BRANCH  23  29
ATOM     29  O   UNL     1      -0.534  -0.973   1.180  0.00  0.00    -0.489 OA
BRANCH  29  31
ATOM     30  C   UNL     1       0.917   0.951   1.362  0.00  0.00    +0.048 C 
ATOM     31  C   UNL     1       0.837  -0.568   1.194  0.00  0.00    +0.226 C 
ENDBRANCH  29  31
ENDBRANCH  23  29
BRANCH  28  32
ATOM     32  O   UNL     1      -3.129  -1.894   1.135  0.00  0.00    -0.489 OA
BRANCH  32  33
ATOM     33  C   UNL     1      -4.448  -2.443   1.104  0.00  0.00    +0.226 C 
ATOM     34  C   UNL     1      -5.473  -1.317   1.253  0.00  0.00    +0.048 C 
ENDBRANCH  32  33
ENDBRANCH  28  32
ENDBRANCH  21  26
ENDBRANCH   1  21
TORSDOF 9
