REMARK  Name = ZINC39634840
REMARK  14 active torsions:
REMARK  status: ('A' for Active; 'I' for Inactive)
REMARK    1  A    between atoms: C_1  and  C_2
REMARK    2  A    between atoms: C_2  and  N_3
REMARK    3  A    between atoms: C_4  and  C_10
REMARK    4  A    between atoms: C_6  and  C_8
REMARK    5  A    between atoms: C_14  and  C_23
REMARK    6  A    between atoms: N_25  and  C_26
REMARK    7  A    between atoms: C_26  and  C_27
REMARK    8  A    between atoms: C_27  and  N_28
REMARK    9  A    between atoms: N_28  and  C_29
REMARK   10  A    between atoms: N_28  and  C_32
REMARK   11  A    between atoms: C_29  and  C_30
REMARK   12  A    between atoms: C_29  and  C_31
REMARK   13  A    between atoms: C_32  and  C_33
REMARK   14  A    between atoms: C_32  and  C_34
REMARK                            x       y       z     vdW  Elec       q    Type
REMARK                         _______ _______ _______ _____ _____    ______ ____
ROOT
ATOM      1  C   UNL     1       1.559  -0.938  -2.558  0.00  0.00    +0.266 C 
ATOM      2  O   UNL     1       2.527  -1.379  -3.148  0.00  0.00    -0.268 OA
ATOM      3  N   UNL     1       0.619  -0.243  -3.229  0.00  0.00    -0.295 N 
ATOM      4  C   UNL     1      -0.656   0.300  -2.704  0.00  0.00    +0.121 C 
ATOM      5  C   UNL     1      -0.803   1.679  -3.387  0.00  0.00    +0.100 C 
ATOM      6  C   UNL     1       0.040   1.574  -4.669  0.00  0.00    -0.004 C 
ATOM      7  C   UNL     1       0.630   0.156  -4.657  0.00  0.00    +0.115 C 
ATOM      8  C   UNL     1      -0.842   1.769  -5.898  0.00  0.00    -0.010 C 
ATOM      9  C   UNL     1       0.028   1.719  -7.158  0.00  0.00    -0.082 C 
ATOM     10  N   UNL     1       1.050   2.770  -7.092  0.00  0.00    +0.379 N 
ATOM     11  C   UNL     1       1.950   2.523  -5.959  0.00  0.00    -0.082 C 
ATOM     12  C   UNL     1       1.162   2.607  -4.649  0.00  0.00    -0.010 C 
ATOM     13  H   UNL     1       1.582   2.774  -7.949  0.00  0.00    -0.086 HD
ATOM     14  H   UNL     1       0.601   3.666  -6.973  0.00  0.00    -0.086 HD
ENDROOT
BRANCH   1  16
ATOM     15  N   UNL     1       0.742  -2.188  -0.505  0.00  0.00    -0.258 N 
ATOM     16  C   UNL     1       1.414  -1.164  -1.112  0.00  0.00    +0.138 A 
ATOM     17  C   UNL     1       1.931  -0.383  -0.092  0.00  0.00    +0.071 A 
ATOM     18  C   UNL     1       1.526  -1.005   1.092  0.00  0.00    +0.075 A 
ATOM     19  N   UNL     1       0.823  -2.061   0.771  0.00  0.00    -0.175 NA
ATOM     20  C   UNL     1       1.837  -0.538   2.491  0.00  0.00    +0.069 C 
ATOM     21 BR   UNL     1       2.967   1.190  -0.265  0.00  0.00    -0.046 Br
BRANCH  15  23
ATOM     22  C   UNL     1      -1.437  -2.871  -1.380  0.00  0.00    +0.029 C 
ATOM     23  C   UNL     1       0.031  -3.263  -1.202  0.00  0.00    +0.141 C 
ENDBRANCH  15  23
ENDBRANCH   1  16
BRANCH   5  24
ATOM     24  C   UNL     1      -0.268   2.767  -2.492  0.00  0.00    +0.218 C 
ATOM     25  O   UNL     1       0.651   2.533  -1.736  0.00  0.00    -0.275 OA
ATOM     26  N   UNL     1      -0.811   4.000  -2.532  0.00  0.00    -0.317 N 
ATOM     27  H   UNL     1      -1.592   4.168  -3.082  0.00  0.00    +0.149 HD
BRANCH  26  28
ATOM     28  C   UNL     1      -0.221   5.086  -1.745  0.00  0.00    +0.085 C 
BRANCH  28  29
ATOM     29  C   UNL     1      -1.021   6.370  -1.968  0.00  0.00    -0.059 C 
BRANCH  29  30
ATOM     30  N   UNL     1      -0.349   7.489  -1.294  0.00  0.00    +0.384 N 
ATOM     31  H   UNL     1       0.613   7.535  -1.596  0.00  0.00    -0.081 HD
BRANCH  30  32
ATOM     32  C   UNL     1      -1.029   8.746  -1.635  0.00  0.00    -0.074 C 
ATOM     33  C   UNL     1      -0.300   9.916  -0.973  0.00  0.00    -0.014 C 
ATOM     34  C   UNL     1      -1.022   8.934  -3.153  0.00  0.00    -0.014 C 
ENDBRANCH  30  32
BRANCH  30  35
ATOM     35  C   UNL     1      -0.396   7.285   0.160  0.00  0.00    -0.074 C 
ATOM     36  C   UNL     1      -1.704   6.585   0.534  0.00  0.00    -0.014 C 
ATOM     37  C   UNL     1       0.788   6.419   0.592  0.00  0.00    -0.014 C 
ENDBRANCH  30  35
ENDBRANCH  29  30
ENDBRANCH  28  29
ENDBRANCH  26  28
ENDBRANCH   5  24
TORSDOF 8
