REMARK  Name = ZINC11609743
REMARK  6 active torsions:
REMARK  status: ('A' for Active; 'I' for Inactive)
REMARK    1  A    between atoms: C_1  and  C_2
REMARK    2  A    between atoms: C_5  and  N_8
REMARK    3  A    between atoms: C_9  and  C_29
REMARK    4  A    between atoms: N_13  and  C_16
REMARK    5  A    between atoms: C_16  and  C_17
REMARK    6  A    between atoms: C_23  and  C_28
REMARK                            x       y       z     vdW  Elec       q    Type
REMARK                         _______ _______ _______ _____ _____    ______ ____
ROOT
ATOM      1  N   UNL     1      -2.609  -0.835   3.393  0.00  0.00    -0.243 N 
ATOM      2  C   UNL     1      -3.355   0.333   2.894  0.00  0.00    +0.166 C 
ATOM      3  C   UNL     1      -2.886   0.468   1.459  0.00  0.00    +0.244 C 
ATOM      4  O   UNL     1      -3.234   1.301   0.650  0.00  0.00    -0.273 OA
ATOM      5  N   UNL     1      -2.000  -0.529   1.270  0.00  0.00    -0.218 N 
ATOM      6  C   UNL     1      -1.849  -1.272   2.372  0.00  0.00    +0.316 C 
ATOM      7  O   UNL     1      -1.107  -2.231   2.445  0.00  0.00    -0.252 OA
ATOM      8  C   UNL     1      -2.997   1.584   3.697  0.00  0.00    +0.038 C 
ENDROOT
BRANCH   1  13
ATOM      9  C   UNL     1      -2.895  -3.066   8.601  0.00  0.00    +0.044 C 
ATOM     10  C   UNL     1      -2.819  -2.474   7.218  0.00  0.00    -0.050 A 
ATOM     11  C   UNL     1      -1.983  -3.036   6.271  0.00  0.00    +0.005 A 
ATOM     12  C   UNL     1      -1.911  -2.495   5.003  0.00  0.00    +0.024 A 
ATOM     13  C   UNL     1      -2.680  -1.386   4.678  0.00  0.00    +0.039 A 
ATOM     14  C   UNL     1      -3.515  -0.820   5.632  0.00  0.00    +0.024 A 
ATOM     15  C   UNL     1      -3.586  -1.368   6.898  0.00  0.00    +0.005 A 
ENDBRANCH   1  13
BRANCH   5  16
ATOM     16  C   UNL     1      -1.293  -0.775   0.010  0.00  0.00    +0.173 C 
BRANCH  16  17
ATOM     17  C   UNL     1       0.002  -0.004   0.002  0.00  0.00    +0.067 A 
ATOM     18  C   UNL     1       1.207  -0.679  -0.013  0.00  0.00    +0.095 A 
ATOM     19  C   UNL     1       2.396   0.058  -0.021  0.00  0.00    +0.259 A 
ATOM     20  O   UNL     1       3.478  -0.509  -0.034  0.00  0.00    -0.267 OA
ATOM     21  N   UNL     1       2.330   1.407  -0.013  0.00  0.00    -0.268 N 
ATOM     22  C   UNL     1       3.478   2.138  -0.019  0.00  0.00    +0.099 A 
ATOM     23  C   UNL     1       3.437   3.490  -0.012  0.00  0.00    -0.034 A 
ATOM     24  C   UNL     1       2.204   4.156   0.004  0.00  0.00    +0.008 A 
ATOM     25  C   UNL     1       1.048   3.433   0.011  0.00  0.00    +0.047 A 
ATOM     26  C   UNL     1       1.112   2.028   0.002  0.00  0.00    +0.141 A 
ATOM     27  N   UNL     1      -0.016   1.320   0.009  0.00  0.00    -0.232 NA
ATOM     28  C   UNL     1       4.719   4.281  -0.020  0.00  0.00    +0.045 C 
ENDBRANCH  16  17
ENDBRANCH   5  16
TORSDOF 3
