REMARK  Name = ZINC20694618
REMARK  7 active torsions:
REMARK  status: ('A' for Active; 'I' for Inactive)
REMARK    1  A    between atoms: C_1  and  O_2
REMARK    2  A    between atoms: O_2  and  C_3
REMARK    3  A    between atoms: C_7  and  C_10
REMARK    4  A    between atoms: C_8  and  O_9
REMARK    5  A    between atoms: C_23  and  O_26
REMARK    6  A    between atoms: O_26  and  C_27
REMARK    7  A    between atoms: C_27  and  C_28
REMARK                            x       y       z     vdW  Elec       q    Type
REMARK                         _______ _______ _______ _____ _____    ______ ____
ROOT
ATOM      1  C   UNL     1      -5.931  -0.595   1.446  0.00  0.00    +0.109 C 
ATOM      2  C   UNL     1      -6.235  -0.792   2.917  0.00  0.00    +0.029 C 
ATOM      3  C   UNL     1      -7.646  -1.248   3.304  0.00  0.00    +0.033 C 
ATOM      4  C   UNL     1      -7.798  -0.622   4.692  0.00  0.00    -0.030 C 
ATOM      5  C   UNL     1      -7.022   0.452   4.792  0.00  0.00    -0.023 C 
ATOM      6  C   UNL     1      -6.298   0.653   3.502  0.00  0.00    +0.049 C 
ATOM      7  C   UNL     1      -4.930   1.210   3.406  0.00  0.00    -0.016 A 
ATOM      8  C   UNL     1      -4.442   2.101   4.341  0.00  0.00    +0.006 A 
ATOM      9  C   UNL     1      -3.169   2.622   4.217  0.00  0.00    +0.004 A 
ATOM     10  C   UNL     1      -2.374   2.243   3.151  0.00  0.00    +0.047 A 
ATOM     11  C   UNL     1      -2.852   1.350   2.212  0.00  0.00    +0.142 A 
ATOM     12  C   UNL     1      -4.141   0.814   2.326  0.00  0.00    +0.074 A 
ATOM     13  N   UNL     1      -4.547  -0.102   1.353  0.00  0.00    -0.334 N 
ATOM     14  H   UNL     1      -3.890  -0.456   0.545  0.00  0.00    +0.147 HD
ENDROOT
BRANCH   1  19
ATOM     15  C   UNL     1      -8.970   0.946  -0.205  0.00  0.00    +0.162 A 
ATOM     16  C   UNL     1      -8.614   2.285  -0.232  0.00  0.00    +0.049 A 
ATOM     17  C   UNL     1      -7.396   2.687   0.283  0.00  0.00    +0.004 A 
ATOM     18  C   UNL     1      -6.529   1.755   0.825  0.00  0.00    +0.009 A 
ATOM     19  C   UNL     1      -6.878   0.418   0.855  0.00  0.00    +0.018 A 
ATOM     20  C   UNL     1      -8.096   0.008   0.336  0.00  0.00    +0.163 A 
BRANCH  15  22
ATOM     21  C   UNL     1     -11.011   1.565  -1.256  0.00  0.00    +0.277 C 
ATOM     22  O   UNL     1     -10.168   0.549  -0.711  0.00  0.00    -0.491 OA
ENDBRANCH  15  22
BRANCH  20  23
ATOM     23  O   UNL     1      -8.438  -1.308   0.360  0.00  0.00    -0.503 OA
ATOM     24  H   UNL     1      -7.746  -2.049   0.788  0.00  0.00    +0.292 HD
ENDBRANCH  20  23
ENDBRANCH   1  19
BRANCH  11  25
ATOM     25  O   UNL     1      -2.061   0.984   1.168  0.00  0.00    -0.488 OA
BRANCH  25  26
ATOM     26  C   UNL     1      -0.757   1.566   1.106  0.00  0.00    +0.260 C 
BRANCH  26  27
ATOM     27  C   UNL     1      -0.021   1.039  -0.127  0.00  0.00    +0.156 C 
ATOM     28  C   UNL     1       1.423   1.588  -0.167  0.00  0.00    +0.037 C 
ATOM     29  C   UNL     1       1.688   1.838  -1.668  0.00  0.00    +0.031 C 
ATOM     30  C   UNL     1       0.373   1.410  -2.358  0.00  0.00    +0.160 C 
ATOM     31  O   UNL     1      -0.638   1.536  -1.334  0.00  0.00    -0.373 OA
ENDBRANCH  26  27
ENDBRANCH  25  26
ENDBRANCH  11  25
TORSDOF 6
