REMARK  Name = ZINC32520545
REMARK  9 active torsions:
REMARK  status: ('A' for Active; 'I' for Inactive)
REMARK    1  A    between atoms: C_1  and  C_2
REMARK    2  A    between atoms: C_7  and  C_8
REMARK    3  A    between atoms: C_8  and  O_9
REMARK    4  A    between atoms: O_9  and  C_10
REMARK    5  A    between atoms: C_14  and  C_16
REMARK    6  A    between atoms: N_17  and  N_18
REMARK    7  A    between atoms: C_19  and  C_21
REMARK    8  A    between atoms: C_21  and  S_22
REMARK    9  A    between atoms: S_22  and  C_23
REMARK                            x       y       z     vdW  Elec       q    Type
REMARK                         _______ _______ _______ _____ _____    ______ ____
ROOT
ATOM      1  C   UNL     1      -1.302   2.115   0.020  0.00  0.00    +0.138 C 
ATOM      2  N   UNL     1      -1.317   3.412   0.027  0.00  0.00    -0.188 NA
ENDROOT
BRANCH   1   7
ATOM      3  C   UNL     1       1.213  -0.675  -0.013  0.00  0.00    +0.122 A 
ATOM      4  C   UNL     1       2.404   0.039  -0.021  0.00  0.00    +0.046 A 
ATOM      5  C   UNL     1       2.387   1.421  -0.013  0.00  0.00    +0.004 A 
ATOM      6  C   UNL     1       1.186   2.101   0.002  0.00  0.00    +0.010 A 
ATOM      7  C   UNL     1      -0.017   1.392   0.010  0.00  0.00    -0.002 A 
ATOM      8  C   UNL     1       0.002  -0.004   0.002  0.00  0.00    +0.055 A 
BRANCH   3   9
ATOM      9  O   UNL     1       1.236  -2.034  -0.021  0.00  0.00    -0.487 OA
BRANCH   9  10
ATOM     10  C   UNL     1       2.520  -2.661  -0.037  0.00  0.00    +0.264 C 
BRANCH  10  17
ATOM     11  C   UNL     1       4.840  -4.382  -0.068  0.00  0.00    +0.044 C 
ATOM     12  C   UNL     1       3.458  -4.981  -0.059  0.00  0.00    -0.044 A 
ATOM     13  C   UNL     1       3.300  -6.355  -0.065  0.00  0.00    +0.004 A 
ATOM     14  C   UNL     1       2.032  -6.905  -0.056  0.00  0.00    +0.000 A 
ATOM     15  C   UNL     1       0.921  -6.081  -0.040  0.00  0.00    +0.000 A 
ATOM     16  C   UNL     1       1.079  -4.708  -0.029  0.00  0.00    +0.007 A 
ATOM     17  C   UNL     1       2.348  -4.158  -0.044  0.00  0.00    -0.007 A 
ENDBRANCH  10  17
ENDBRANCH   9  10
ENDBRANCH   3   9
ENDBRANCH   1   7
BRANCH   2  18
ATOM     18  N   UNL     1      -2.538   4.099   0.036  0.00  0.00    -0.206 N 
ATOM     19  C   UNL     1      -2.554   5.447   0.044  0.00  0.00    +0.242 C 
ATOM     20  O   UNL     1      -1.510   6.065   0.042  0.00  0.00    -0.273 OA
ATOM     21  H   UNL     1      -3.485   3.538   0.038  0.00  0.00    +0.177 HD
BRANCH  19  22
ATOM     22  C   UNL     1      -3.867   6.185   0.054  0.00  0.00    +0.174 C 
BRANCH  22  23
ATOM     23  S   UNL     1      -3.557   7.968   0.062  0.00  0.00    -0.078 S 
BRANCH  23  24
ATOM     24  C   UNL     1      -5.213   8.568   0.073  0.00  0.00    +0.168 A 
ATOM     25  N   UNL     1      -5.572   9.886   0.082  0.00  0.00    -0.333 N 
ATOM     26  H   UNL     1      -4.796  10.667   0.083  0.00  0.00    +0.168 HD
ATOM     27  C   UNL     1      -6.956   9.935   0.089  0.00  0.00    +0.067 A 
ATOM     28  C   UNL     1      -7.881  10.968   0.099  0.00  0.00    +0.028 A 
ATOM     29  C   UNL     1      -9.231  10.681   0.103  0.00  0.00    +0.002 A 
ATOM     30  C   UNL     1      -9.669   9.366   0.098  0.00  0.00    +0.002 A 
ATOM     31  C   UNL     1      -8.765   8.328   0.088  0.00  0.00    +0.030 A 
ATOM     32  C   UNL     1      -7.395   8.601   0.084  0.00  0.00    +0.090 A 
ATOM     33  N   UNL     1      -6.286   7.815   0.069  0.00  0.00    -0.222 NA
ENDBRANCH  23  24
ENDBRANCH  22  23
ENDBRANCH  19  22
ENDBRANCH   2  18
TORSDOF 8
