REMARK  Name = ZINC05505988
REMARK  4 active torsions:
REMARK  status: ('A' for Active; 'I' for Inactive)
REMARK    1  A    between atoms: C_4  and  C_7
REMARK    2  A    between atoms: C_18  and  C_20
REMARK    3  A    between atoms: C_20  and  S_21
REMARK    4  A    between atoms: S_21  and  C_22
REMARK                            x       y       z     vdW  Elec       q    Type
REMARK                         _______ _______ _______ _____ _____    ______ ____
ROOT
ATOM      1  C   UNL     1       5.211   7.153  -0.210  0.00  0.00    +0.122 C 
ATOM      2  C   UNL     1       4.661   7.533   1.168  0.00  0.00    +0.102 C 
ATOM      3  S   UNL     1       3.203   8.588   0.911  0.00  0.00    -0.121 S 
ATOM      4  C   UNL     1       2.299   7.731  -0.339  0.00  0.00    +0.029 A 
ATOM      5  C   UNL     1       0.972   8.073  -0.567  0.00  0.00    +0.016 A 
ATOM      6  C   UNL     1       0.244   7.424  -1.544  0.00  0.00    +0.001 A 
ATOM      7  C   UNL     1       0.838   6.429  -2.299  0.00  0.00    +0.002 A 
ATOM      8  C   UNL     1       2.155   6.081  -2.077  0.00  0.00    +0.024 A 
ATOM      9  C   UNL     1       2.899   6.726  -1.093  0.00  0.00    +0.050 A 
ATOM     10  N   UNL     1       4.225   6.330  -0.905  0.00  0.00    -0.261 N 
ATOM     11  C   UNL     1       4.611   5.130  -1.382  0.00  0.00    +0.231 C 
ATOM     12  O   UNL     1       5.786   4.829  -1.388  0.00  0.00    -0.274 OA
ENDROOT
BRANCH   1  16
ATOM     13  C   UNL     1       8.841   4.951   0.258  0.00  0.00    +0.000 A 
ATOM     14  C   UNL     1       8.791   6.025  -0.611  0.00  0.00    +0.000 A 
ATOM     15  C   UNL     1       7.617   6.738  -0.762  0.00  0.00    +0.005 A 
ATOM     16  C   UNL     1       6.491   6.376  -0.045  0.00  0.00    -0.026 A 
ATOM     17  C   UNL     1       6.543   5.305   0.827  0.00  0.00    +0.005 A 
ATOM     18  C   UNL     1       7.716   4.589   0.975  0.00  0.00    +0.000 A 
ENDBRANCH   1  16
BRANCH  11  19
ATOM     19  C   UNL     1       3.583   4.163  -1.908  0.00  0.00    +0.173 C 
BRANCH  19  20
ATOM     20  S   UNL     1       4.124   2.467  -1.577  0.00  0.00    -0.077 S 
BRANCH  20  21
ATOM     21  C   UNL     1       2.777   1.574  -2.276  0.00  0.00    +0.195 A 
ATOM     22  N   UNL     1       1.762   2.228  -2.835  0.00  0.00    -0.189 NA
ATOM     23  C   UNL     1       0.745   1.554  -3.361  0.00  0.00    +0.218 A 
ATOM     24  N   UNL     1       0.742   0.225  -3.330  0.00  0.00    -0.181 NA
ATOM     25  C   UNL     1       1.756  -0.430  -2.773  0.00  0.00    +0.218 A 
ATOM     26  N   UNL     1       2.773   0.244  -2.246  0.00  0.00    -0.189 NA
ATOM     27  N   UNL     1       1.752  -1.810  -2.741  0.00  0.00    -0.327 N 
ATOM     28  N   UNL     1      -0.305   2.233  -3.945  0.00  0.00    -0.327 N 
ATOM     29  H   UNL     1       1.010  -2.302  -3.126  0.00  0.00    +0.145 HD
ATOM     30  H   UNL     1       2.492  -2.288  -2.335  0.00  0.00    +0.145 HD
ATOM     31  H   UNL     1      -1.045   1.741  -4.333  0.00  0.00    +0.145 HD
ATOM     32  H   UNL     1      -0.302   3.203  -3.967  0.00  0.00    +0.145 HD
ENDBRANCH  20  21
ENDBRANCH  19  20
ENDBRANCH  11  19
TORSDOF 4
