REMARK  Name = ZINC21251416
REMARK  9 active torsions:
REMARK  status: ('A' for Active; 'I' for Inactive)
REMARK    1  A    between atoms: C_1  and  C_2
REMARK    2  A    between atoms: C_2  and  C_4
REMARK    3  A    between atoms: C_2  and  N_10
REMARK    4  A    between atoms: N_10  and  C_11
REMARK    5  A    between atoms: C_12  and  C_14
REMARK    6  A    between atoms: C_14  and  S_15
REMARK    7  A    between atoms: S_15  and  C_16
REMARK    8  A    between atoms: C_19  and  C_22
REMARK    9  A    between atoms: N_20  and  N_21
REMARK                            x       y       z     vdW  Elec       q    Type
REMARK                         _______ _______ _______ _____ _____    ______ ____
ROOT
ATOM      1  C   UNL     1      -0.996   4.718  -0.895  0.00  0.00    +0.209 A 
ATOM      2  N   UNL     1      -0.927   5.836  -0.208  0.00  0.00    -0.121 NA
ATOM      3  N   UNL     1       0.278   6.282  -0.209  0.00  0.00    -0.127 NA
ATOM      4  C   UNL     1       1.054   5.472  -0.892  0.00  0.00    +0.183 A 
ATOM      5  N   UNL     1       0.263   4.444  -1.349  0.00  0.00    -0.224 N 
ENDROOT
BRANCH   4   6
ATOM      6  C   UNL     1       2.505   5.634  -1.124  0.00  0.00    +0.039 A 
ATOM      7  C   UNL     1       3.206   4.684  -1.869  0.00  0.00    +0.014 A 
ATOM      8  C   UNL     1       4.559   4.843  -2.087  0.00  0.00    +0.021 A 
ATOM      9  C   UNL     1       5.224   5.938  -1.560  0.00  0.00    +0.042 A 
ATOM     10  C   UNL     1       4.537   6.881  -0.816  0.00  0.00    +0.040 A 
ATOM     11  C   UNL     1       3.182   6.736  -0.595  0.00  0.00    +0.053 A 
ATOM     12 CL   UNL     1       2.320   7.919   0.339  0.00  0.00    -0.083 Cl
ATOM     13 CL   UNL     1       6.928   6.127  -1.834  0.00  0.00    -0.083 Cl
ENDBRANCH   4   6
BRANCH   5  14
ATOM     14  N   UNL     1       0.653   3.375  -2.105  0.00  0.00    -0.295 N 
ATOM     15  H   UNL     1       1.706   3.270  -2.407  0.00  0.00    +0.163 HD
ATOM     16  H   UNL     1      -0.085   2.619  -2.411  0.00  0.00    +0.163 HD
ENDBRANCH   5  14
BRANCH   1  17
ATOM     17  S   UNL     1      -2.442   3.750  -1.175  0.00  0.00    -0.075 S 
BRANCH  17  18
ATOM     18  C   UNL     1      -3.662   4.743  -0.280  0.00  0.00    +0.173 C 
BRANCH  18  21
ATOM     19  N   UNL     1      -6.085   4.654   0.210  0.00  0.00    -0.297 N 
ATOM     20  C   UNL     1      -5.932   5.905   0.957  0.00  0.00    +0.132 C 
ATOM     21  C   UNL     1      -5.016   4.089  -0.384  0.00  0.00    +0.226 C 
ATOM     22  O   UNL     1      -5.143   3.053  -1.003  0.00  0.00    -0.275 OA
BRANCH  19  24
ATOM     23  C   UNL     1      -8.427   5.044  -0.378  0.00  0.00    +0.033 C 
ATOM     24  C   UNL     1      -7.401   4.018   0.108  0.00  0.00    +0.103 C 
BRANCH  24  25
ATOM     25  C   UNL     1      -7.813   3.498   1.461  0.00  0.00    -0.027 A 
ATOM     26  C   UNL     1      -7.231   4.010   2.606  0.00  0.00    +0.005 A 
ATOM     27  C   UNL     1      -7.612   3.535   3.847  0.00  0.00    +0.000 A 
ATOM     28  C   UNL     1      -8.569   2.542   3.943  0.00  0.00    +0.000 A 
ATOM     29  C   UNL     1      -9.148   2.027   2.798  0.00  0.00    +0.000 A 
ATOM     30  C   UNL     1      -8.770   2.504   1.557  0.00  0.00    +0.005 A 
ENDBRANCH  24  25
ENDBRANCH  19  24
ENDBRANCH  18  21
ENDBRANCH  17  18
ENDBRANCH   1  17
TORSDOF 7
