REMARK  Name = ZINC39227616
REMARK  13 active torsions:
REMARK  status: ('A' for Active; 'I' for Inactive)
REMARK    1  A    between atoms: C_1  and  C_2
REMARK    2  A    between atoms: C_2  and  C_4
REMARK    3  A    between atoms: C_2  and  O_38
REMARK    4  A    between atoms: C_4  and  N_5
REMARK    5  A    between atoms: N_5  and  C_6
REMARK    6  A    between atoms: C_6  and  C_7
REMARK    7  A    between atoms: C_7  and  C_9
REMARK    8  A    between atoms: C_7  and  O_10
REMARK    9  A    between atoms: C_11  and  C_13
REMARK   10  A    between atoms: C_16  and  C_19
REMARK   11  A    between atoms: N_32  and  C_35
REMARK   12  A    between atoms: C_35  and  C_36
REMARK   13  A    between atoms: C_35  and  C_37
REMARK                            x       y       z     vdW  Elec       q    Type
REMARK                         _______ _______ _______ _____ _____    ______ ____
ROOT
ATOM      1  C   UNL     1       1.010  -8.488   1.177  0.00  0.00    -0.017 A 
ATOM      2  C   UNL     1       2.178  -8.942   0.558  0.00  0.00    +0.012 A 
ATOM      3  C   UNL     1       2.415 -10.291   0.415  0.00  0.00    +0.047 A 
ATOM      4  C   UNL     1       1.494 -11.219   0.888  0.00  0.00    +0.132 A 
ATOM      5  C   UNL     1       0.320 -10.767   1.514  0.00  0.00    +0.060 A 
ATOM      6  C   UNL     1       0.080  -9.402   1.661  0.00  0.00    +0.023 A 
ATOM      7  C   UNL     1      -0.647 -11.758   2.022  0.00  0.00    +0.170 C 
ATOM      8  O   UNL     1      -1.564 -11.439   2.750  0.00  0.00    -0.292 OA
ATOM      9  C   UNL     1      -0.435 -13.197   1.587  0.00  0.00    +0.127 C 
ATOM     10  C   UNL     1       1.077 -13.459   1.613  0.00  0.00    +0.114 C 
ATOM     11  O   UNL     1       1.734 -12.543   0.739  0.00  0.00    -0.485 OA
ATOM     12  C   UNL     1       1.597 -13.271   3.041  0.00  0.00    +0.030 C 
ATOM     13  C   UNL     1       3.087 -13.618   3.085  0.00  0.00    -0.075 C 
ATOM     14  N   UNL     1       3.279 -15.013   2.670  0.00  0.00    +0.381 N 
ATOM     15  C   UNL     1       2.851 -15.182   1.276  0.00  0.00    -0.075 C 
ATOM     16  C   UNL     1       1.352 -14.894   1.161  0.00  0.00    +0.030 C 
ATOM     17  H   UNL     1       2.733 -15.618   3.264  0.00  0.00    -0.081 HD
ENDROOT
BRANCH   1  21
ATOM     18  C   UNL     1       0.306  -4.312   1.594  0.00  0.00    +0.037 A 
ATOM     19  C   UNL     1       1.472  -4.766   0.970  0.00  0.00    +0.013 A 
ATOM     20  C   UNL     1       1.698  -6.117   0.836  0.00  0.00    +0.009 A 
ATOM     21  C   UNL     1       0.765  -7.033   1.322  0.00  0.00    -0.018 A 
ATOM     22  C   UNL     1      -0.399  -6.581   1.945  0.00  0.00    +0.009 A 
ATOM     23  C   UNL     1      -0.625  -5.230   2.086  0.00  0.00    +0.013 A 
BRANCH  18  25
ATOM     24  N   UNL     1       0.649  -1.993   0.893  0.00  0.00    -0.293 N 
ATOM     25  C   UNL     1       0.063  -2.863   1.739  0.00  0.00    +0.247 C 
ATOM     26  O   UNL     1      -0.667  -2.454   2.621  0.00  0.00    -0.270 OA
BRANCH  24  27
ATOM     27  C   UNL     1       1.525  -2.485  -0.173  0.00  0.00    +0.139 C 
BRANCH  27  29
ATOM     28  C   UNL     1       3.901  -2.816  -0.871  0.00  0.00    +0.039 C 
ATOM     29  C   UNL     1       2.986  -2.302   0.242  0.00  0.00    +0.129 C 
BRANCH  29  30
ATOM     30  O   UNL     1       3.247  -0.916   0.471  0.00  0.00    -0.391 OA
ATOM     31  H   UNL     1       4.157  -0.725   0.738  0.00  0.00    +0.210 HD
ENDBRANCH  29  30
ENDBRANCH  27  29
ENDBRANCH  24  27
BRANCH  24  32
ATOM     32  C   UNL     1       0.411  -0.554   1.040  0.00  0.00    +0.139 C 
BRANCH  32  33
ATOM     33  C   UNL     1      -0.786  -0.145   0.180  0.00  0.00    +0.129 C 
ATOM     34  C   UNL     1      -0.974   1.371   0.256  0.00  0.00    +0.039 C 
BRANCH  33  35
ATOM     35  O   UNL     1      -1.963  -0.796   0.663  0.00  0.00    -0.391 OA
ATOM     36  H   UNL     1      -2.232  -0.516   1.548  0.00  0.00    +0.210 HD
ENDBRANCH  33  35
ENDBRANCH  32  33
ENDBRANCH  24  32
ENDBRANCH  18  25
ENDBRANCH   1  21
BRANCH  14  37
ATOM     37  C   UNL     1       4.700 -15.366   2.790  0.00  0.00    -0.075 C 
ATOM     38  C   UNL     1       5.146 -15.200   4.245  0.00  0.00    -0.014 C 
ATOM     39  C   UNL     1       4.902 -16.820   2.358  0.00  0.00    -0.014 C 
ENDBRANCH  14  37
TORSDOF 9
