REMARK  Name = ZINC67433841
REMARK  8 active torsions:
REMARK  status: ('A' for Active; 'I' for Inactive)
REMARK    1  A    between atoms: C_1  and  C_2
REMARK    2  A    between atoms: C_2  and  C_3
REMARK    3  A    between atoms: C_2  and  N_4
REMARK    4  A    between atoms: C_5  and  C_7
REMARK    5  A    between atoms: C_7  and  N_8
REMARK    6  A    between atoms: C_13  and  C_17
REMARK    7  A    between atoms: C_17  and  C_18
REMARK    8  A    between atoms: C_17  and  C_24
REMARK                            x       y       z     vdW  Elec       q    Type
REMARK                         _______ _______ _______ _____ _____    ______ ____
ROOT
ATOM      1  N   UNL     1      -3.485  -3.338   0.360  0.00  0.00    +0.388 N 
ATOM      2  C   UNL     1      -2.873  -2.845  -0.880  0.00  0.00    -0.071 C 
ATOM      3  C   UNL     1      -2.285  -4.018  -1.677  0.00  0.00    +0.039 C 
ATOM      4  C   UNL     1      -3.360  -5.072  -1.793  0.00  0.00    +0.063 A 
ATOM      5  C   UNL     1      -4.510  -5.064  -0.981  0.00  0.00    -0.019 A 
ATOM      6  C   UNL     1      -5.269  -6.118  -1.326  0.00  0.00    +0.049 A 
ATOM      7  N   UNL     1      -4.627  -6.777  -2.318  0.00  0.00    -0.280 N 
ATOM      8  N   UNL     1      -3.429  -6.095  -2.588  0.00  0.00    -0.178 NA
ATOM      9  H   UNL     1      -4.939  -7.580  -2.764  0.00  0.00    +0.189 HD
ATOM     10  C   UNL     1      -4.761  -4.013   0.071  0.00  0.00    -0.039 C 
ATOM     11  H   UNL     1      -2.855  -3.990   0.802  0.00  0.00    -0.081 HD
ENDROOT
BRANCH   1  12
ATOM     12  C   UNL     1      -3.727  -2.206   1.265  0.00  0.00    +0.019 C 
BRANCH  12  14
ATOM     13  N   UNL     1      -2.387  -0.527   2.491  0.00  0.00    -0.315 N 
ATOM     14  C   UNL     1      -2.411  -1.588   1.660  0.00  0.00    +0.197 C 
ATOM     15  O   UNL     1      -1.373  -2.045   1.230  0.00  0.00    -0.278 OA
ATOM     16  H   UNL     1      -3.217  -0.162   2.835  0.00  0.00    +0.149 HD
BRANCH  13  18
ATOM     17  C   UNL     1      -1.328   1.537   3.264  0.00  0.00    +0.027 C 
ATOM     18  C   UNL     1      -1.108   0.074   2.875  0.00  0.00    +0.067 C 
ATOM     19  C   UNL     1      -0.524  -0.688   4.067  0.00  0.00    +0.027 C 
ENDBRANCH  13  18
ENDBRANCH  12  14
ENDBRANCH   1  12
BRANCH   6  20
ATOM     20  C   UNL     1      -6.594  -6.498  -0.718  0.00  0.00    +0.097 C 
BRANCH  20  21
ATOM     21  C   UNL     1      -7.681  -6.353  -1.751  0.00  0.00    -0.034 A 
ATOM     22  C   UNL     1      -7.514  -6.899  -3.010  0.00  0.00    +0.004 A 
ATOM     23  C   UNL     1      -8.512  -6.766  -3.958  0.00  0.00    +0.000 A 
ATOM     24  C   UNL     1      -9.676  -6.088  -3.647  0.00  0.00    +0.000 A 
ATOM     25  C   UNL     1      -9.842  -5.544  -2.388  0.00  0.00    +0.000 A 
ATOM     26  C   UNL     1      -8.847  -5.680  -1.438  0.00  0.00    +0.004 A 
ENDBRANCH  20  21
BRANCH  20  27
ATOM     27  C   UNL     1      -6.538  -7.928  -0.244  0.00  0.00    -0.034 A 
ATOM     28  C   UNL     1      -6.330  -8.949  -1.152  0.00  0.00    +0.004 A 
ATOM     29  C   UNL     1      -6.279 -10.260  -0.718  0.00  0.00    +0.000 A 
ATOM     30  C   UNL     1      -6.434 -10.550   0.624  0.00  0.00    +0.000 A 
ATOM     31  C   UNL     1      -6.641  -9.529   1.533  0.00  0.00    +0.000 A 
ATOM     32  C   UNL     1      -6.688  -8.217   1.099  0.00  0.00    +0.004 A 
ENDBRANCH  20  27
ENDBRANCH   6  20
TORSDOF 6
