REMARK  Name = ZINC13036436
REMARK  5 active torsions:
REMARK  status: ('A' for Active; 'I' for Inactive)
REMARK    1  A    between atoms: C_1  and  C_2
REMARK    2  A    between atoms: C_2  and  O_3
REMARK    3  A    between atoms: O_3  and  C_4
REMARK    4  A    between atoms: C_11  and  C_27
REMARK    5  A    between atoms: C_20  and  C_25
REMARK                            x       y       z     vdW  Elec       q    Type
REMARK                         _______ _______ _______ _____ _____    ______ ____
ROOT
ATOM      1  C   UNL     1       0.764  -1.682  -1.353  0.00  0.00    +0.162 A 
ATOM      2  C   UNL     1       0.204  -2.496  -0.384  0.00  0.00    +0.049 A 
ATOM      3  C   UNL     1       0.273  -3.871  -0.507  0.00  0.00    +0.004 A 
ATOM      4  C   UNL     1       0.898  -4.434  -1.605  0.00  0.00    +0.009 A 
ATOM      5  C   UNL     1       1.456  -3.627  -2.575  0.00  0.00    +0.017 A 
ATOM      6  C   UNL     1       1.398  -2.243  -2.461  0.00  0.00    +0.169 A 
ATOM      7  O   UNL     1       1.963  -1.414  -3.380  0.00  0.00    -0.464 OA
ATOM      8  C   UNL     1       2.525  -1.978  -4.577  0.00  0.00    +0.294 C 
ATOM      9  N   UNL     1       3.141  -3.229  -4.215  0.00  0.00    -0.179 NA
ATOM     10  C   UNL     1       2.122  -4.217  -3.782  0.00  0.00    +0.119 C 
ATOM     11  C   UNL     1       3.069  -5.394  -3.465  0.00  0.00    +0.078 C 
ATOM     12  C   UNL     1       4.136  -5.179  -4.543  0.00  0.00    +0.032 C 
ATOM     13  C   UNL     1       5.039  -6.135  -5.016  0.00  0.00    +0.040 C 
ATOM     14  C   UNL     1       5.028  -7.452  -4.508  0.00  0.00    +0.016 C 
ATOM     15  C   UNL     1       5.914  -8.368  -4.981  0.00  0.00    -0.050 C 
ATOM     16  C   UNL     1       6.843  -8.040  -5.965  0.00  0.00    +0.007 C 
ATOM     17  C   UNL     1       6.906  -6.789  -6.497  0.00  0.00    +0.052 C 
ATOM     18  C   UNL     1       6.015  -5.793  -6.058  0.00  0.00    +0.188 C 
ATOM     19  O   UNL     1       6.056  -4.666  -6.531  0.00  0.00    -0.287 OA
ATOM     20  C   UNL     1       5.891  -9.770  -4.428  0.00  0.00    +0.044 C 
ATOM     21  N   UNL     1       4.025  -3.887  -4.969  0.00  0.00    -0.277 N 
ATOM     22  H   UNL     1       4.526  -3.499  -5.703  0.00  0.00    +0.166 HD
ENDROOT
BRANCH   8  23
ATOM     23  C   UNL     1       1.436  -2.217  -5.591  0.00  0.00    +0.012 A 
ATOM     24  C   UNL     1       0.210  -1.579  -5.479  0.00  0.00    +0.028 A 
ATOM     25  C   UNL     1      -0.765  -1.823  -6.429  0.00  0.00    +0.111 A 
ATOM     26  N   UNL     1      -0.539  -2.649  -7.431  0.00  0.00    -0.263 NA
ATOM     27  C   UNL     1       0.615  -3.273  -7.569  0.00  0.00    +0.111 A 
ATOM     28  C   UNL     1       1.639  -3.074  -6.662  0.00  0.00    +0.028 A 
ENDBRANCH   8  23
BRANCH   1  29
ATOM     29  O   UNL     1       0.690  -0.330  -1.226  0.00  0.00    -0.489 OA
BRANCH  29  31
ATOM     30  C   UNL     1       0.044   1.708  -0.100  0.00  0.00    +0.048 C 
ATOM     31  C   UNL     1       0.027   0.179  -0.068  0.00  0.00    +0.226 C 
ENDBRANCH  29  31
ENDBRANCH   1  29
TORSDOF 3
