REMARK  Name = ZINC49242786
REMARK  8 active torsions:
REMARK  status: ('A' for Active; 'I' for Inactive)
REMARK    1  A    between atoms: C_3  and  C_6
REMARK    2  A    between atoms: C_6  and  C_8
REMARK    3  A    between atoms: C_6  and  N_25
REMARK    4  A    between atoms: C_8  and  N_9
REMARK    5  A    between atoms: N_12  and  C_13
REMARK    6  A    between atoms: C_13  and  C_14
REMARK    7  A    between atoms: C_14  and  C_16
REMARK    8  A    between atoms: C_14  and  O_24
REMARK                            x       y       z     vdW  Elec       q    Type
REMARK                         _______ _______ _______ _____ _____    ______ ____
ROOT
ATOM      1  N   UNL     1       5.600  -0.134   1.208  0.00  0.00    -0.301 N 
ATOM      2  C   UNL     1       6.285  -0.612   2.265  0.00  0.00    +0.300 C 
ATOM      3  O   UNL     1       5.732  -0.744   3.339  0.00  0.00    -0.253 OA
ATOM      4  N   UNL     1       7.585  -0.944   2.131  0.00  0.00    -0.297 N 
ATOM      5  H   UNL     1       6.042  -0.028   0.351  0.00  0.00    +0.150 HD
ATOM      6  H   UNL     1       8.027  -0.838   1.274  0.00  0.00    +0.150 HD
ENDROOT
BRANCH   1   7
ATOM      7  C   UNL     1       4.188   0.227   1.353  0.00  0.00    +0.098 C 
BRANCH   7   8
ATOM      8  C   UNL     1       3.623   0.638  -0.008  0.00  0.00    +0.016 C 
BRANCH   8   9
ATOM      9  N   UNL     1       4.453   1.708  -0.579  0.00  0.00    +0.387 N 
ATOM     10  C   UNL     1       4.443   2.867   0.322  0.00  0.00    -0.078 C 
ATOM     11  C   UNL     1       5.370   3.953  -0.228  0.00  0.00    -0.019 C 
ATOM     12  C   UNL     1       4.882   4.379  -1.615  0.00  0.00    -0.004 C 
ATOM     13  C   UNL     1       4.825   3.149  -2.526  0.00  0.00    -0.019 C 
ATOM     14  C   UNL     1       3.918   2.092  -1.891  0.00  0.00    -0.078 C 
ATOM     15  H   UNL     1       5.400   1.376  -0.687  0.00  0.00    -0.081 HD
ENDBRANCH   8   9
BRANCH   8  18
ATOM     16  C   UNL     1       3.022  -2.316  -2.128  0.00  0.00    +0.041 A 
ATOM     17  C   UNL     1       2.570  -1.326  -1.225  0.00  0.00    +0.043 A 
ATOM     18  C   UNL     1       3.629  -0.550  -0.934  0.00  0.00    +0.093 A 
ATOM     19  O   UNL     1       4.693  -1.015  -1.610  0.00  0.00    -0.469 OA
ATOM     20  C   UNL     1       4.331  -2.085  -2.336  0.00  0.00    +0.195 A 
ENDBRANCH   8  18
ENDBRANCH   7   8
ENDBRANCH   1   7
BRANCH   4  21
ATOM     21  C   UNL     1       8.330  -1.463   3.280  0.00  0.00    +0.141 C 
BRANCH  21  22
ATOM     22  C   UNL     1       9.772  -1.759   2.862  0.00  0.00    +0.162 C 
BRANCH  22  23
ATOM     23  C   UNL     1      10.505  -2.407   4.008  0.00  0.00    -0.015 A 
ATOM     24  C   UNL     1      10.995  -1.631   5.042  0.00  0.00    +0.009 A 
ATOM     25  C   UNL     1      11.667  -2.223   6.094  0.00  0.00    +0.041 A 
ATOM     26  C   UNL     1      11.850  -3.595   6.114  0.00  0.00    +0.158 A 
ATOM     27  C   UNL     1      11.359  -4.373   5.077  0.00  0.00    +0.159 A 
ATOM     28  C   UNL     1      10.682  -3.778   4.027  0.00  0.00    +0.047 A 
ATOM     29  F   UNL     1      11.537  -5.713   5.094  0.00  0.00    -0.202 F 
ATOM     30  F   UNL     1      12.508  -4.175   7.142  0.00  0.00    -0.202 F 
ENDBRANCH  22  23
BRANCH  22  31
ATOM     31  O   UNL     1      10.425  -0.538   2.509  0.00  0.00    -0.386 OA
ATOM     32  H   UNL     1      10.463   0.110   3.226  0.00  0.00    +0.210 HD
ENDBRANCH  22  31
ENDBRANCH  21  22
ENDBRANCH   4  21
TORSDOF 8
