REMARK  Name = ZINC06845827
REMARK  8 active torsions:
REMARK  status: ('A' for Active; 'I' for Inactive)
REMARK    1  A    between atoms: C_1  and  C_2
REMARK    2  A    between atoms: C_5  and  S_8
REMARK    3  A    between atoms: S_8  and  C_9
REMARK    4  A    between atoms: C_9  and  C_11
REMARK    5  A    between atoms: C_9  and  C_22
REMARK    6  A    between atoms: C_11  and  N_12
REMARK    7  A    between atoms: N_12  and  S_13
REMARK    8  A    between atoms: S_13  and  C_16
REMARK                            x       y       z     vdW  Elec       q    Type
REMARK                         _______ _______ _______ _____ _____    ______ ____
ROOT
ATOM      1  C   UNL     1      -0.753   1.593  -1.232  0.00  0.00    +0.097 C 
ENDROOT
BRANCH   1   2
ATOM      2  C   UNL     1      -0.047   1.107  -2.471  0.00  0.00    -0.033 A 
ATOM      3  C   UNL     1       1.268   1.464  -2.704  0.00  0.00    +0.005 A 
ATOM      4  C   UNL     1       1.916   1.015  -3.839  0.00  0.00    +0.000 A 
ATOM      5  C   UNL     1       1.247   0.215  -4.746  0.00  0.00    +0.000 A 
ATOM      6  C   UNL     1      -0.070  -0.138  -4.517  0.00  0.00    +0.000 A 
ATOM      7  C   UNL     1      -0.717   0.308  -3.379  0.00  0.00    +0.005 A 
ENDBRANCH   1   2
BRANCH   1   8
ATOM      8  S   UNL     1      -0.777   3.406  -1.222  0.00  0.00    -0.116 S 
BRANCH   8  13
ATOM      9  C   UNL     1      -4.203   4.847  -5.978  0.00  0.00    +0.044 C 
ATOM     10  C   UNL     1      -3.347   4.487  -4.791  0.00  0.00    -0.050 A 
ATOM     11  C   UNL     1      -2.803   5.487  -4.005  0.00  0.00    +0.004 A 
ATOM     12  C   UNL     1      -2.019   5.161  -2.916  0.00  0.00    +0.015 A 
ATOM     13  C   UNL     1      -1.777   3.827  -2.610  0.00  0.00    +0.009 A 
ATOM     14  C   UNL     1      -2.321   2.825  -3.406  0.00  0.00    +0.015 A 
ATOM     15  C   UNL     1      -3.108   3.159  -4.490  0.00  0.00    +0.004 A 
ENDBRANCH   8  13
ENDBRANCH   1   8
BRANCH   1  16
ATOM     16  C   UNL     1      -0.013   1.086   0.008  0.00  0.00    +0.125 C 
BRANCH  16  17
ATOM     17  N   UNL     1      -0.698   1.558   1.213  0.00  0.00    -0.189 NA
ATOM     18  H   UNL     1      -1.353   2.272   1.151  0.00  0.00    +0.148 HD
BRANCH  17  19
ATOM     19  S   UNL     1      -0.356   0.875   2.682  0.00  0.00    +0.058 S 
ATOM     20  O   UNL     1      -1.151   1.557   3.643  0.00  0.00    -0.153 OA
ATOM     21  O   UNL     1      -0.422  -0.533   2.500  0.00  0.00    -0.153 OA
BRANCH  19  22
ATOM     22  C   UNL     1       1.323   1.256   3.056  0.00  0.00    +0.105 A 
ATOM     23  C   UNL     1       2.331   0.398   2.658  0.00  0.00    +0.028 A 
ATOM     24  C   UNL     1       3.649   0.700   2.947  0.00  0.00    +0.002 A 
ATOM     25  C   UNL     1       3.958   1.854   3.643  0.00  0.00    +0.000 A 
ATOM     26  C   UNL     1       2.949   2.709   4.045  0.00  0.00    +0.002 A 
ATOM     27  C   UNL     1       1.631   2.410   3.752  0.00  0.00    +0.028 A 
ENDBRANCH  19  22
ENDBRANCH  17  19
ENDBRANCH  16  17
ENDBRANCH   1  16
TORSDOF 7
