REMARK  Name = ZINC59877697
REMARK  11 active torsions:
REMARK  status: ('A' for Active; 'I' for Inactive)
REMARK    1  A    between atoms: C_1  and  C_2
REMARK    2  A    between atoms: C_2  and  C_4
REMARK    3  A    between atoms: C_2  and  S_11
REMARK    4  A    between atoms: N_6  and  N_7
REMARK    5  A    between atoms: C_8  and  C_10
REMARK    6  A    between atoms: S_11  and  C_12
REMARK    7  A    between atoms: C_15  and  C_20
REMARK    8  A    between atoms: N_16  and  C_17
REMARK    9  A    between atoms: C_17  and  C_18
REMARK   10  A    between atoms: C_20  and  C_21
REMARK   11  A    between atoms: C_21  and  C_22
REMARK                            x       y       z     vdW  Elec       q    Type
REMARK                         _______ _______ _______ _____ _____    ______ ____
ROOT
ATOM      1  C   UNL     1      -2.335  -0.110   1.573  0.00  0.00    +0.193 A 
ATOM      2  N   UNL     1      -1.692   0.581   2.486  0.00  0.00    -0.122 NA
ATOM      3  N   UNL     1      -2.458   0.785   3.498  0.00  0.00    -0.133 NA
ATOM      4  C   UNL     1      -3.625   0.243   3.293  0.00  0.00    +0.135 A 
ATOM      5  N   UNL     1      -3.590  -0.342   2.057  0.00  0.00    -0.302 N 
ENDROOT
BRANCH   1   6
ATOM      6  S   UNL     1      -1.700  -0.632   0.015  0.00  0.00    -0.073 S 
BRANCH   6   8
ATOM      7  C   UNL     1      -0.019   1.526   0.010  0.00  0.00    +0.029 C 
ATOM      8  C   UNL     1       0.002  -0.004   0.002  0.00  0.00    +0.138 C 
BRANCH   8   9
ATOM      9  C   UNL     1       0.707  -0.490  -1.238  0.00  0.00    +0.242 C 
ATOM     10  O   UNL     1       0.066  -0.782  -2.225  0.00  0.00    -0.273 OA
ATOM     11  N   UNL     1       2.051  -0.601  -1.250  0.00  0.00    -0.233 N 
ATOM     12  H   UNL     1       2.563  -0.367  -0.460  0.00  0.00    +0.173 HD
BRANCH  11  13
ATOM     13  N   UNL     1       2.706  -1.052  -2.402  0.00  0.00    -0.235 N 
ATOM     14  C   UNL     1       4.050  -1.163  -2.414  0.00  0.00    +0.226 C 
ATOM     15  O   UNL     1       4.691  -0.871  -1.426  0.00  0.00    -0.275 OA
ATOM     16  C   UNL     1       4.755  -1.649  -3.654  0.00  0.00    +0.110 C 
ATOM     17  H   UNL     1       2.194  -1.286  -3.192  0.00  0.00    +0.173 HD
ENDBRANCH  11  13
ENDBRANCH   8   9
ENDBRANCH   6   8
ENDBRANCH   1   6
BRANCH   5  18
ATOM     18  C   UNL     1      -4.674  -1.070   1.392  0.00  0.00    +0.152 C 
BRANCH  18  19
ATOM     19  C   UNL     1      -4.595  -2.530   1.755  0.00  0.00    -0.013 C 
ATOM     20  C   UNL     1      -5.634  -3.133   2.276  0.00  0.00    +0.005 C 
ENDBRANCH  18  19
ENDBRANCH   5  18
BRANCH   4  21
ATOM     21  C   UNL     1      -4.797   0.261   4.240  0.00  0.00    +0.081 C 
BRANCH  21  22
ATOM     22  C   UNL     1      -5.660   1.494   3.959  0.00  0.00    +0.043 C 
BRANCH  22  23
ATOM     23  C   UNL     1      -6.832   1.512   4.906  0.00  0.00    -0.047 A 
ATOM     24  C   UNL     1      -8.013   0.886   4.556  0.00  0.00    +0.004 A 
ATOM     25  C   UNL     1      -9.089   0.903   5.424  0.00  0.00    +0.014 A 
ATOM     26  C   UNL     1      -8.983   1.547   6.643  0.00  0.00    +0.013 A 
ATOM     27  C   UNL     1      -7.801   2.174   6.993  0.00  0.00    +0.014 A 
ATOM     28  C   UNL     1      -6.724   2.152   6.127  0.00  0.00    +0.004 A 
ATOM     29  I   UNL     1     -10.613   1.573   7.959  0.00  0.00    -0.044 I 
ENDBRANCH  22  23
ENDBRANCH  21  22
ENDBRANCH   4  21
TORSDOF 9
