REMARK  Name = ZINC36661631
REMARK  5 active torsions:
REMARK  status: ('A' for Active; 'I' for Inactive)
REMARK    1  A    between atoms: C_3  and  C_6
REMARK    2  A    between atoms: C_8  and  C_11
REMARK    3  A    between atoms: C_11  and  O_12
REMARK    4  A    between atoms: O_12  and  C_13
REMARK    5  A    between atoms: C_13  and  C_15
REMARK                            x       y       z     vdW  Elec       q    Type
REMARK                         _______ _______ _______ _____ _____    ______ ____
ROOT
ATOM      1  C   UNL     1       6.592  -1.478  -0.080  0.00  0.00    +0.288 C 
ENDROOT
BRANCH   1   4
ATOM      2  C   UNL     1       3.567   0.618  -0.029  0.00  0.00    +0.144 A 
ATOM      3  N   UNL     1       4.385  -0.428  -0.048  0.00  0.00    -0.237 NA
ATOM      4  C   UNL     1       5.689  -0.272  -0.059  0.00  0.00    +0.087 A 
ATOM      5  C   UNL     1       6.222   0.978  -0.051  0.00  0.00    +0.074 A 
ATOM      6  S   UNL     1       4.735   1.972  -0.034  0.00  0.00    -0.072 S 
BRANCH   2   9
ATOM      7  C   UNL     1      -0.016   1.344   0.009  0.00  0.00    +0.042 A 
ATOM      8  C   UNL     1       1.324   1.776  -0.001  0.00  0.00    +0.052 A 
ATOM      9  C   UNL     1       2.097   0.654  -0.015  0.00  0.00    +0.160 A 
ATOM     10  O   UNL     1       1.279  -0.418  -0.012  0.00  0.00    -0.461 OA
ATOM     11  C   UNL     1       0.002  -0.004   0.002  0.00  0.00    +0.196 A 
ENDBRANCH   2   9
ENDBRANCH   1   4
BRANCH   1  12
ATOM     12  O   UNL     1       7.956  -1.051  -0.088  0.00  0.00    -0.454 OA
BRANCH  12  13
ATOM     13  C   UNL     1       8.898  -2.014  -0.107  0.00  0.00    +0.360 C 
ATOM     14  O   UNL     1       8.571  -3.183  -0.116  0.00  0.00    -0.243 OA
BRANCH  13  15
ATOM     15  C   UNL     1      10.331  -1.646  -0.117  0.00  0.00    +0.167 A 
ATOM     16  C   UNL     1      11.302  -2.647  -0.142  0.00  0.00    +0.073 A 
ATOM     17  C   UNL     1      12.642  -2.286  -0.150  0.00  0.00    +0.025 A 
ATOM     18  C   UNL     1      12.964  -0.939  -0.134  0.00  0.00    +0.041 A 
ATOM     19  C   UNL     1      11.946   0.004  -0.109  0.00  0.00    +0.130 A 
ATOM     20  N   UNL     1      10.683  -0.365  -0.107  0.00  0.00    -0.227 NA
ATOM     21 CL   UNL     1      12.344   1.693  -0.087  0.00  0.00    -0.062 Cl
ATOM     22 CL   UNL     1      10.841  -4.320  -0.161  0.00  0.00    -0.081 Cl
ENDBRANCH  13  15
ENDBRANCH  12  13
ENDBRANCH   1  12
TORSDOF 5
