REMARK  Name = ZINC40033209
REMARK  8 active torsions:
REMARK  status: ('A' for Active; 'I' for Inactive)
REMARK    1  A    between atoms: C_1  and  C_2
REMARK    2  A    between atoms: C_2  and  O_3
REMARK    3  A    between atoms: O_3  and  C_4
REMARK    4  A    between atoms: C_7  and  N_10
REMARK    5  A    between atoms: N_17  and  N_18
REMARK    6  A    between atoms: C_19  and  C_20
REMARK    7  A    between atoms: C_34  and  C_35
REMARK    8  A    between atoms: C_34  and  C_36
REMARK                            x       y       z     vdW  Elec       q    Type
REMARK                         _______ _______ _______ _____ _____    ______ ____
ROOT
ATOM      1  N   UNL     1       1.642  -6.222  -1.399  0.00  0.00    -0.248 N 
ATOM      2  C   UNL     1       1.921  -6.599  -2.666  0.00  0.00    +0.264 A 
ATOM      3  O   UNL     1       2.073  -5.766  -3.545  0.00  0.00    -0.267 OA
ATOM      4  C   UNL     1       2.033  -7.966  -2.949  0.00  0.00    +0.049 A 
ATOM      5  C   UNL     1       1.854  -8.879  -1.920  0.00  0.00    +0.084 A 
ATOM      6  N   UNL     1       1.572  -8.448  -0.686  0.00  0.00    -0.214 NA
ATOM      7  C   UNL     1       1.474  -7.160  -0.425  0.00  0.00    +0.223 A 
ATOM      8  N   UNL     1       1.190  -6.756   0.854  0.00  0.00    -0.206 N 
ATOM      9  C   UNL     1       1.987 -10.324  -2.214  0.00  0.00    +0.004 A 
ATOM     10  C   UNL     1       1.463 -11.281  -1.350  0.00  0.00    +0.010 A 
ATOM     11  C   UNL     1       1.597 -12.621  -1.653  0.00  0.00    +0.001 A 
ATOM     12  C   UNL     1       2.249 -13.010  -2.810  0.00  0.00    +0.000 A 
ATOM     13  C   UNL     1       2.774 -12.062  -3.670  0.00  0.00    +0.004 A 
ATOM     14  C   UNL     1       2.649 -10.719  -3.378  0.00  0.00    -0.037 A 
ATOM     15  C   UNL     1       3.227  -9.682  -4.302  0.00  0.00    +0.047 C 
ATOM     16  C   UNL     1       2.337  -8.442  -4.341  0.00  0.00    +0.001 C 
ATOM     17  C   UNL     1       1.028  -8.783  -5.055  0.00  0.00    +0.016 C 
ATOM     18  C   UNL     1       3.055  -7.330  -5.109  0.00  0.00    +0.016 C 
ATOM     19  H   UNL     1       1.185  -5.811   1.074  0.00  0.00    +0.177 HD
ENDROOT
BRANCH   1  23
ATOM     20  C   UNL     1       1.310  -2.172  -0.461  0.00  0.00    +0.121 A 
ATOM     21  C   UNL     1       0.212  -2.861  -0.956  0.00  0.00    +0.047 A 
ATOM     22  C   UNL     1       0.321  -4.202  -1.267  0.00  0.00    +0.030 A 
ATOM     23  C   UNL     1       1.530  -4.860  -1.084  0.00  0.00    +0.053 A 
ATOM     24  C   UNL     1       2.628  -4.170  -0.589  0.00  0.00    +0.030 A 
ATOM     25  C   UNL     1       2.519  -2.828  -0.283  0.00  0.00    +0.047 A 
BRANCH  20  26
ATOM     26  O   UNL     1       1.202  -0.851  -0.156  0.00  0.00    -0.492 OA
BRANCH  26  28
ATOM     27  C   UNL     1      -0.001   1.236   0.033  0.00  0.00    +0.048 C 
ATOM     28  C   UNL     1      -0.073  -0.240  -0.364  0.00  0.00    +0.225 C 
ENDBRANCH  26  28
ENDBRANCH  20  26
ENDBRANCH   1  23
BRANCH   8  29
ATOM     29  N   UNL     1       0.906  -7.707   1.843  0.00  0.00    -0.188 NA
ATOM     30  C   UNL     1       0.637  -7.324   3.054  0.00  0.00    +0.138 C 
BRANCH  30  31
ATOM     31  C   UNL     1       0.339  -8.325   4.095  0.00  0.00    -0.004 A 
ATOM     32  C   UNL     1       0.350  -9.686   3.783  0.00  0.00    +0.009 A 
ATOM     33  C   UNL     1       0.070 -10.617   4.761  0.00  0.00    +0.002 A 
ATOM     34  C   UNL     1      -0.223 -10.206   6.049  0.00  0.00    +0.020 A 
ATOM     35  C   UNL     1      -0.236  -8.858   6.366  0.00  0.00    +0.042 A 
ATOM     36  C   UNL     1       0.049  -7.916   5.399  0.00  0.00    +0.029 A 
ATOM     37 CL   UNL     1      -0.604  -8.353   7.986  0.00  0.00    -0.084 Cl
ENDBRANCH  30  31
ENDBRANCH   8  29
TORSDOF 5
