REMARK  Name = ZINC41222746
REMARK  8 active torsions:
REMARK  status: ('A' for Active; 'I' for Inactive)
REMARK    1  A    between atoms: C_1  and  C_2
REMARK    2  A    between atoms: C_2  and  C_4
REMARK    3  A    between atoms: C_2  and  N_13
REMARK    4  A    between atoms: C_4  and  C_5
REMARK    5  A    between atoms: C_5  and  C_6
REMARK    6  A    between atoms: C_9  and  O_12
REMARK    7  A    between atoms: C_14  and  C_16
REMARK    8  A    between atoms: N_18  and  C_19
REMARK                            x       y       z     vdW  Elec       q    Type
REMARK                         _______ _______ _______ _____ _____    ______ ____
ROOT
ATOM      1  N   UNL     1       0.708  -0.511   1.182  0.00  0.00    -0.305 N 
ATOM      2  C   UNL     1       2.052  -0.616   1.169  0.00  0.00    +0.300 C 
ATOM      3  O   UNL     1       2.674  -0.317   0.170  0.00  0.00    -0.265 OA
ATOM      4  H   UNL     1       0.211  -0.750   1.980  0.00  0.00    +0.149 HD
ENDROOT
BRANCH   2   5
ATOM      5  C   UNL     1       2.776  -1.100   2.382  0.00  0.00    +0.303 C 
ATOM      6  O   UNL     1       2.154  -1.399   3.381  0.00  0.00    -0.265 OA
ATOM      7  N   UNL     1       4.119  -1.205   2.368  0.00  0.00    -0.276 N 
ATOM      8  H   UNL     1       4.611  -1.029   1.551  0.00  0.00    +0.155 HD
BRANCH   7   9
ATOM      9  C   UNL     1       4.804  -1.567   3.532  0.00  0.00    +0.052 A 
ATOM     10  C   UNL     1       4.234  -2.467   4.424  0.00  0.00    +0.026 A 
ATOM     11  C   UNL     1       4.912  -2.824   5.572  0.00  0.00    +0.022 A 
ATOM     12  C   UNL     1       6.160  -2.286   5.836  0.00  0.00    +0.042 A 
ATOM     13  C   UNL     1       6.732  -1.389   4.950  0.00  0.00    +0.041 A 
ATOM     14  C   UNL     1       6.060  -1.033   3.796  0.00  0.00    +0.064 A 
ATOM     15 CL   UNL     1       6.780   0.086   2.682  0.00  0.00    -0.082 Cl
ATOM     16 CL   UNL     1       7.009  -2.736   7.282  0.00  0.00    -0.083 Cl
ENDBRANCH   7   9
ENDBRANCH   2   5
BRANCH   1  18
ATOM     17  C   UNL     1      -0.029   1.493  -0.009  0.00  0.00    +0.028 C 
ATOM     18  C   UNL     1      -0.002  -0.037  -0.008  0.00  0.00    +0.071 C 
BRANCH  18  19
ATOM     19  C   UNL     1      -1.435  -0.572   0.005  0.00  0.00    +0.026 C 
BRANCH  19  20
ATOM     20  C   UNL     1      -1.410  -2.097  -0.119  0.00  0.00    +0.037 C 
BRANCH  20  21
ATOM     21  C   UNL     1      -2.822  -2.625  -0.106  0.00  0.00    -0.047 A 
ATOM     22  C   UNL     1      -3.423  -2.958   1.094  0.00  0.00    +0.007 A 
ATOM     23  C   UNL     1      -4.717  -3.442   1.109  0.00  0.00    +0.045 A 
ATOM     24  C   UNL     1      -5.413  -3.594  -0.082  0.00  0.00    +0.117 A 
ATOM     25  C   UNL     1      -4.808  -3.259  -1.284  0.00  0.00    +0.045 A 
ATOM     26  C   UNL     1      -3.516  -2.770  -1.293  0.00  0.00    +0.007 A 
BRANCH  24  27
ATOM     27  O   UNL     1      -6.686  -4.071  -0.070  0.00  0.00    -0.507 OA
ATOM     28  H   UNL     1      -7.362  -3.384   0.009  0.00  0.00    +0.292 HD
ENDBRANCH  24  27
ENDBRANCH  20  21
ENDBRANCH  19  20
ENDBRANCH  18  19
ENDBRANCH   1  18
TORSDOF 7
