REMARK  Name = ZINC19836348
REMARK  2 active torsions:
REMARK  status: ('A' for Active; 'I' for Inactive)
REMARK    1  A    between atoms: N_12  and  C_15
REMARK    2  A    between atoms: C_24  and  O_26
REMARK                            x       y       z     vdW  Elec       q    Type
REMARK                         _______ _______ _______ _____ _____    ______ ____
ROOT
ATOM      1  C   UNL     1      -1.416  -0.536   0.014  0.00  0.00    -0.007 C 
ATOM      2  C   UNL     1       0.058  -0.192  -0.046  0.00  0.00    -0.055 A 
ATOM      3  C   UNL     1       1.168  -1.015  -0.138  0.00  0.00    +0.002 A 
ATOM      4  C   UNL     1       2.436  -0.470  -0.178  0.00  0.00    +0.000 A 
ATOM      5  C   UNL     1       2.599   0.902  -0.126  0.00  0.00    +0.000 A 
ATOM      6  C   UNL     1       1.494   1.724  -0.033  0.00  0.00    +0.004 A 
ATOM      7  C   UNL     1       0.221   1.181   0.007  0.00  0.00    -0.037 A 
ATOM      8  C   UNL     1      -1.131   1.847   0.098  0.00  0.00    +0.017 C 
ATOM      9  C   UNL     1      -2.151   0.779  -0.327  0.00  0.00    +0.116 C 
ATOM     10  C   UNL     1      -1.198   3.047  -0.843  0.00  0.00    -0.005 C 
ATOM     11  C   UNL     1      -2.566   3.722  -0.706  0.00  0.00    -0.082 C 
ATOM     12  N   UNL     1      -2.770   4.138   0.688  0.00  0.00    +0.379 N 
ATOM     13  C   UNL     1      -2.773   2.982   1.593  0.00  0.00    -0.082 C 
ATOM     14  C   UNL     1      -1.412   2.283   1.534  0.00  0.00    -0.005 C 
ATOM     15  H   UNL     1      -1.960   4.817   0.990  0.00  0.00    -0.086 HD
ATOM     16  H   UNL     1      -3.736   4.656   0.778  0.00  0.00    -0.086 HD
ENDROOT
BRANCH   1  28
ATOM     17  C   UNL     1      -3.704  -3.586   7.008  0.00  0.00    +0.001 A 
ATOM     18  C   UNL     1      -5.038  -3.240   6.868  0.00  0.00    +0.002 A 
ATOM     19  C   UNL     1      -5.524  -2.622   5.728  0.00  0.00    +0.026 A 
ATOM     20  C   UNL     1      -4.607  -2.357   4.713  0.00  0.00    +0.047 A 
ATOM     21  C   UNL     1      -3.241  -2.715   4.863  0.00  0.00    +0.003 A 
ATOM     22  C   UNL     1      -2.779  -3.339   6.025  0.00  0.00    +0.010 A 
ATOM     23  C   UNL     1      -2.587  -2.302   3.641  0.00  0.00    -0.023 A 
ATOM     24  C   UNL     1      -3.532  -1.743   2.851  0.00  0.00    +0.004 A 
ATOM     25  N   UNL     1      -4.744  -1.774   3.486  0.00  0.00    -0.359 N 
ATOM     26  H   UNL     1      -5.729  -1.416   3.154  0.00  0.00    +0.166 HD
ATOM     27  C   UNL     1      -3.233  -1.183   1.480  0.00  0.00    -0.023 C 
ATOM     28  N   UNL     1      -1.779  -0.988   1.363  0.00  0.00    +0.390 N 
ATOM     29  C   UNL     1      -1.044  -2.208   1.726  0.00  0.00    -0.073 C 
ATOM     30  C   UNL     1      -1.139  -2.431   3.241  0.00  0.00    +0.019 C 
ATOM     31  H   UNL     1      -1.488  -0.201   2.075  0.00  0.00    -0.080 HD
ENDBRANCH   1  28
BRANCH   9  32
ATOM     32  O   UNL     1      -2.416   0.865  -1.729  0.00  0.00    -0.392 OA
ATOM     33  H   UNL     1      -2.936   1.743  -2.137  0.00  0.00    +0.210 HD
ENDBRANCH   9  32
TORSDOF 2
