REMARK  Name = ZINC40140384
REMARK  6 active torsions:
REMARK  status: ('A' for Active; 'I' for Inactive)
REMARK    1  A    between atoms: C_1  and  O_2
REMARK    2  A    between atoms: O_2  and  C_3
REMARK    3  A    between atoms: C_8  and  C_9
REMARK    4  A    between atoms: N_11  and  N_12
REMARK    5  A    between atoms: C_13  and  C_15
REMARK    6  A    between atoms: C_20  and  C_23
REMARK                            x       y       z     vdW  Elec       q    Type
REMARK                         _______ _______ _______ _____ _____    ______ ____
ROOT
ATOM      1  N   UNL     1      -0.460  -4.947  -0.920  0.00  0.00    -0.234 N 
ATOM      2  C   UNL     1      -0.402  -6.292  -0.860  0.00  0.00    +0.232 C 
ATOM      3  O   UNL     1       0.156  -6.834   0.070  0.00  0.00    -0.274 OA
ATOM      4  H   UNL     1      -0.907  -4.513  -1.664  0.00  0.00    +0.173 HD
ENDROOT
BRANCH   2   5
ATOM      5  C   UNL     1      -1.031  -7.122  -1.949  0.00  0.00    +0.077 C 
ATOM      6  C   UNL     1      -2.530  -6.820  -2.020  0.00  0.00    +0.013 C 
ATOM      7  C   UNL     1      -3.183  -7.158  -0.679  0.00  0.00    +0.001 C 
ATOM      8  C   UNL     1      -2.976  -8.643  -0.371  0.00  0.00    +0.012 C 
ATOM      9  C   UNL     1      -1.478  -8.945  -0.300  0.00  0.00    +0.094 C 
ATOM     10  C   UNL     1      -0.825  -8.607  -1.642  0.00  0.00    +0.025 C 
BRANCH   9  11
ATOM     11  C   UNL     1      -1.272 -10.430   0.007  0.00  0.00    +0.393 C 
ATOM     12  F   UNL     1      -1.856 -11.201  -1.004  0.00  0.00    -0.170 F 
ATOM     13  F   UNL     1       0.098 -10.707   0.072  0.00  0.00    -0.170 F 
ATOM     14  F   UNL     1      -1.869 -10.740   1.234  0.00  0.00    -0.170 F 
ENDBRANCH   9  11
ENDBRANCH   2   5
BRANCH   1  17
ATOM     15  C   UNL     1       0.067  -2.829   0.032  0.00  0.00    +0.264 C 
ATOM     16  O   UNL     1      -0.493  -2.286  -0.900  0.00  0.00    -0.269 OA
ATOM     17  N   UNL     1       0.125  -4.174   0.092  0.00  0.00    -0.230 N 
ATOM     18  H   UNL     1       0.571  -4.608   0.836  0.00  0.00    +0.173 HD
BRANCH  15  24
ATOM     19  C   UNL     1       0.625  -0.617   1.040  0.00  0.00    +0.132 A 
ATOM     20  C   UNL     1       1.202   0.138   2.050  0.00  0.00    +0.048 A 
ATOM     21  C   UNL     1       1.835  -0.487   3.106  0.00  0.00    +0.023 A 
ATOM     22  C   UNL     1       1.900  -1.871   3.164  0.00  0.00    +0.042 A 
ATOM     23  C   UNL     1       1.332  -2.636   2.169  0.00  0.00    +0.036 A 
ATOM     24  C   UNL     1       0.683  -2.016   1.098  0.00  0.00    +0.081 A 
ATOM     25 CL   UNL     1       2.701  -2.643   4.497  0.00  0.00    -0.084 Cl
BRANCH  19  27
ATOM     26  C   UNL     1      -0.017   1.425   0.010  0.00  0.00    +0.277 C 
ATOM     27  O   UNL     1       0.002  -0.004   0.002  0.00  0.00    -0.494 OA
ENDBRANCH  19  27
ENDBRANCH  15  24
ENDBRANCH   1  17
TORSDOF 5
