REMARK  Name = ZINC47232137
REMARK  6 active torsions:
REMARK  status: ('A' for Active; 'I' for Inactive)
REMARK    1  A    between atoms: C_1  and  C_2
REMARK    2  A    between atoms: C_7  and  S_8
REMARK    3  A    between atoms: S_8  and  C_9
REMARK    4  A    between atoms: C_9  and  C_10
REMARK    5  A    between atoms: N_12  and  C_13
REMARK    6  A    between atoms: C_15  and  C_19
REMARK                            x       y       z     vdW  Elec       q    Type
REMARK                         _______ _______ _______ _____ _____    ______ ____
ROOT
ATOM      1  C   UNL     1       0.060  -0.534   5.359  0.00  0.00    +0.228 C 
ATOM      2  O   UNL     1       0.045   0.672   5.484  0.00  0.00    -0.275 OA
ATOM      3  N   UNL     1       0.081  -1.324   6.451  0.00  0.00    -0.270 N 
ATOM      4  H   UNL     1       0.093  -2.289   6.351  0.00  0.00    +0.156 HD
ENDROOT
BRANCH   3   5
ATOM      5  C   UNL     1       0.086  -0.754   7.724  0.00  0.00    +0.120 A 
ATOM      6  C   UNL     1       0.065   0.576   8.010  0.00  0.00    +0.068 A 
ATOM      7  C   UNL     1       0.077   0.716   9.400  0.00  0.00    +0.062 A 
ATOM      8  N   UNL     1       0.105  -0.479   9.933  0.00  0.00    -0.178 NA
ATOM      9  N   UNL     1       0.105  -1.424   8.899  0.00  0.00    -0.264 N 
ATOM     10  H   UNL     1       0.120  -2.388   9.007  0.00  0.00    +0.190 HD
ATOM     11  C   UNL     1       0.063   2.019  10.156  0.00  0.00    +0.067 C 
ENDBRANCH   3   5
BRANCH   1  12
ATOM     12  C   UNL     1       0.056  -1.150   3.984  0.00  0.00    +0.170 C 
BRANCH  12  13
ATOM     13  S   UNL     1       0.026   0.164   2.733  0.00  0.00    -0.116 S 
BRANCH  13  20
ATOM     14  C   UNL     1      -0.018   1.503   0.010  0.00  0.00    +0.045 C 
ATOM     15  C   UNL     1       0.002  -0.004   0.002  0.00  0.00    -0.036 A 
ATOM     16  C   UNL     1       0.006  -0.689  -1.197  0.00  0.00    +0.019 A 
ATOM     17  C   UNL     1       0.024  -2.072  -1.206  0.00  0.00    +0.018 A 
ATOM     18  C   UNL     1       0.039  -2.774  -0.013  0.00  0.00    +0.016 A 
ATOM     19  C   UNL     1       0.035  -2.096   1.189  0.00  0.00    +0.016 A 
ATOM     20  C   UNL     1       0.023  -0.706   1.201  0.00  0.00    +0.011 A 
ATOM     21 BR   UNL     1       0.029  -3.006  -2.850  0.00  0.00    -0.050 Br
ENDBRANCH  13  20
ENDBRANCH  12  13
ENDBRANCH   1  12
TORSDOF 4
