REMARK  Name = ZINC17517617
REMARK  6 active torsions:
REMARK  status: ('A' for Active; 'I' for Inactive)
REMARK    1  A    between atoms: C_10  and  C_13
REMARK    2  A    between atoms: C_13  and  C_14
REMARK    3  A    between atoms: N_16  and  N_17
REMARK    4  A    between atoms: C_18  and  C_20
REMARK    5  A    between atoms: C_23  and  S_26
REMARK    6  A    between atoms: S_26  and  N_29
REMARK                            x       y       z     vdW  Elec       q    Type
REMARK                         _______ _______ _______ _____ _____    ______ ____
ROOT
ATOM      1  N   UNL     1      -0.966   1.736  -3.578  0.00  0.00    -0.230 N 
ATOM      2  C   UNL     1      -0.513   1.424  -4.808  0.00  0.00    +0.260 C 
ATOM      3  O   UNL     1       0.484   0.739  -4.933  0.00  0.00    -0.269 OA
ATOM      4  H   UNL     1      -1.761   2.283  -3.479  0.00  0.00    +0.173 HD
ENDROOT
BRANCH   2   5
ATOM      5  C   UNL     1      -1.228   1.913  -6.006  0.00  0.00    +0.038 A 
ATOM      6  C   UNL     1      -2.376   2.695  -5.866  0.00  0.00    +0.015 A 
ATOM      7  C   UNL     1      -3.035   3.153  -6.988  0.00  0.00    +0.029 A 
ATOM      8  C   UNL     1      -2.568   2.830  -8.249  0.00  0.00    +0.106 A 
ATOM      9  C   UNL     1      -1.434   2.051  -8.395  0.00  0.00    +0.029 A 
ATOM     10  C   UNL     1      -0.761   1.591  -7.282  0.00  0.00    +0.015 A 
BRANCH   8  11
ATOM     11  S   UNL     1      -3.420   3.414  -9.677  0.00  0.00    +0.061 S 
ATOM     12  O   UNL     1      -4.135   4.575  -9.276  0.00  0.00    -0.153 OA
ATOM     13  O   UNL     1      -2.473   3.432 -10.736  0.00  0.00    -0.153 OA
BRANCH  11  14
ATOM     14  N   UNL     1      -4.552   2.273 -10.073  0.00  0.00    -0.177 NA
ATOM     15  C   UNL     1      -4.342   1.137 -10.983  0.00  0.00    +0.109 C 
ATOM     16  C   UNL     1      -5.675   0.364 -11.065  0.00  0.00    +0.018 C 
ATOM     17  C   UNL     1      -6.721   1.432 -10.649  0.00  0.00    +0.018 C 
ATOM     18  C   UNL     1      -5.939   2.231  -9.576  0.00  0.00    +0.109 C 
ENDBRANCH  11  14
ENDBRANCH   8  11
ENDBRANCH   2   5
BRANCH   1  21
ATOM     19  C   UNL     1      -0.742   1.585  -1.213  0.00  0.00    +0.231 C 
ATOM     20  O   UNL     1      -1.736   2.268  -1.088  0.00  0.00    -0.274 OA
ATOM     21  N   UNL     1      -0.288   1.272  -2.443  0.00  0.00    -0.234 N 
ATOM     22  H   UNL     1       0.507   0.726  -2.543  0.00  0.00    +0.173 HD
BRANCH  19  23
ATOM     23  C   UNL     1      -0.013   1.086   0.008  0.00  0.00    +0.121 C 
BRANCH  23  33
ATOM     24  C   UNL     1      -1.419  -3.393   2.764  0.00  0.00    +0.002 A 
ATOM     25  C   UNL     1      -2.532  -3.167   1.975  0.00  0.00    +0.001 A 
ATOM     26  C   UNL     1      -2.821  -1.885   1.543  0.00  0.00    +0.016 A 
ATOM     27  C   UNL     1      -1.993  -0.833   1.898  0.00  0.00    +0.030 A 
ATOM     28  C   UNL     1      -0.856  -1.057   2.675  0.00  0.00    +0.047 A 
ATOM     29  C   UNL     1      -0.588  -2.348   3.117  0.00  0.00    +0.024 A 
ATOM     30  N   UNL     1      -0.001  -0.021   3.038  0.00  0.00    -0.284 N 
ATOM     31  C   UNL     1       0.063   1.187   2.487  0.00  0.00    +0.231 C 
ATOM     32  O   UNL     1       0.794   2.013   2.991  0.00  0.00    -0.274 OA
ATOM     33  C   UNL     1      -0.729   1.579   1.267  0.00  0.00    +0.146 C 
ATOM     34  S   UNL     1      -2.374   0.810   1.377  0.00  0.00    -0.110 S 
ATOM     35  H   UNL     1       0.611  -0.198   3.770  0.00  0.00    +0.155 HD
ENDBRANCH  23  33
ENDBRANCH  19  23
ENDBRANCH   1  21
TORSDOF 6
