REMARK  Name = ZINC20858052
REMARK  14 active torsions:
REMARK  status: ('A' for Active; 'I' for Inactive)
REMARK    1  A    between atoms: C_1  and  C_2
REMARK    2  A    between atoms: C_4  and  C_35
REMARK    3  A    between atoms: C_5  and  S_9
REMARK    4  A    between atoms: C_6  and  C_8
REMARK    5  A    between atoms: S_9  and  C_12
REMARK    6  A    between atoms: C_12  and  C_13
REMARK    7  A    between atoms: C_14  and  C_31
REMARK    8  A    between atoms: C_15  and  C_21
REMARK    9  A    between atoms: C_24  and  O_29
REMARK   10  A    between atoms: C_25  and  O_27
REMARK   11  A    between atoms: O_27  and  C_28
REMARK   12  A    between atoms: O_29  and  C_30
REMARK   13  A    between atoms: C_31  and  O_33
REMARK   14  A    between atoms: O_33  and  C_34
REMARK                            x       y       z     vdW  Elec       q    Type
REMARK                         _______ _______ _______ _____ _____    ______ ____
ROOT
ATOM      1  C   UNL     1       5.451   2.509  -2.978  0.00  0.00    +0.045 C 
ATOM      2  C   UNL     1       6.384   1.691  -3.510  0.00  0.00    +0.080 C 
ATOM      3  C   UNL     1       7.683   2.314  -3.979  0.00  0.00    +0.144 C 
ATOM      4  N   UNL     1       7.826   3.769  -3.805  0.00  0.00    -0.288 N 
ATOM      5  C   UNL     1       6.805   4.452  -3.251  0.00  0.00    +0.304 C 
ATOM      6  O   UNL     1       6.913   5.654  -3.103  0.00  0.00    -0.252 OA
ATOM      7  N   UNL     1       5.675   3.851  -2.857  0.00  0.00    -0.271 N 
ATOM      8  H   UNL     1       8.750   4.273  -4.124  0.00  0.00    +0.151 HD
ATOM      9  H   UNL     1       4.905   4.500  -2.417  0.00  0.00    +0.156 HD
ENDROOT
BRANCH   3  10
ATOM     10  C   UNL     1       7.851   2.002  -5.444  0.00  0.00    -0.019 A 
ATOM     11  C   UNL     1       7.292   2.836  -6.394  0.00  0.00    +0.009 A 
ATOM     12  C   UNL     1       7.447   2.558  -7.739  0.00  0.00    +0.050 A 
ATOM     13  C   UNL     1       8.156   1.435  -8.137  0.00  0.00    +0.162 A 
ATOM     14  C   UNL     1       8.714   0.593  -7.180  0.00  0.00    +0.162 A 
ATOM     15  C   UNL     1       8.559   0.881  -5.834  0.00  0.00    +0.055 A 
BRANCH  14  16
ATOM     16  O   UNL     1       9.409  -0.510  -7.566  0.00  0.00    -0.491 OA
ATOM     17  C   UNL     1       9.954  -1.329  -6.529  0.00  0.00    +0.277 C 
ENDBRANCH  14  16
BRANCH  13  18
ATOM     18  O   UNL     1       8.305   1.157  -9.460  0.00  0.00    -0.491 OA
ATOM     19  C   UNL     1       7.705   2.065 -10.386  0.00  0.00    +0.277 C 
ENDBRANCH  13  18
ENDBRANCH   3  10
BRANCH   2  20
ATOM     20  C   UNL     1       6.155   0.300  -3.629  0.00  0.00    +0.339 C 
ATOM     21  O   UNL     1       6.694  -0.474  -2.861  0.00  0.00    -0.245 OA
BRANCH  20  22
ATOM     22  O   UNL     1       5.338  -0.168  -4.596  0.00  0.00    -0.465 OA
ATOM     23  C   UNL     1       5.152  -1.584  -4.659  0.00  0.00    +0.280 C 
ENDBRANCH  20  22
ENDBRANCH   2  20
BRANCH   1  24
ATOM     24  C   UNL     1       4.142   1.931  -2.503  0.00  0.00    +0.223 C 
BRANCH  24  25
ATOM     25  S   UNL     1       4.136   1.858  -0.690  0.00  0.00    +0.003 S 
ATOM     26  O   UNL     1       4.114   3.171  -0.148  0.00  0.00    -0.169 OA
ATOM     27  O   UNL     1       5.083   0.902  -0.236  0.00  0.00    -0.169 OA
BRANCH  25  32
ATOM     28  C   UNL     1      -1.232  -0.492   0.750  0.00  0.00    +0.044 C 
ATOM     29  C   UNL     1       0.109   0.095   0.390  0.00  0.00    -0.050 A 
ATOM     30  C   UNL     1       0.295   1.464   0.422  0.00  0.00    +0.008 A 
ATOM     31  C   UNL     1       1.524   2.003   0.092  0.00  0.00    -0.025 A 
ATOM     32  C   UNL     1       2.568   1.172  -0.271  0.00  0.00    +0.094 A 
ATOM     33  C   UNL     1       2.382  -0.198  -0.301  0.00  0.00    -0.025 A 
ATOM     34  C   UNL     1       1.153  -0.736   0.029  0.00  0.00    +0.008 A 
ATOM     35  C   UNL     1       3.521  -1.103  -0.695  0.00  0.00    +0.046 C 
ATOM     36  C   UNL     1       1.727   3.496   0.127  0.00  0.00    +0.046 C 
ENDBRANCH  25  32
ENDBRANCH  24  25
ENDBRANCH   1  24
TORSDOF 8
