REMARK  Name = ZINC08664948
REMARK  3 active torsions:
REMARK  status: ('A' for Active; 'I' for Inactive)
REMARK    1  A    between atoms: C_1  and  C_2
REMARK    2  A    between atoms: C_16  and  C_18
REMARK    3  A    between atoms: C_26  and  C_30
REMARK                            x       y       z     vdW  Elec       q    Type
REMARK                         _______ _______ _______ _____ _____    ______ ____
ROOT
ATOM      1  C   UNL     1       7.229   2.720  -1.981  0.00  0.00    +0.044 C 
ATOM      2  C   UNL     1       6.021   2.779  -1.083  0.00  0.00    -0.050 A 
ATOM      3  C   UNL     1       6.077   3.496   0.104  0.00  0.00    +0.007 A 
ATOM      4  C   UNL     1       4.984   3.563   0.941  0.00  0.00    +0.047 A 
ATOM      5  C   UNL     1       3.806   2.907   0.596  0.00  0.00    +0.139 A 
ATOM      6  C   UNL     1       3.759   2.183  -0.608  0.00  0.00    +0.065 A 
ATOM      7  C   UNL     1       4.874   2.125  -1.441  0.00  0.00    +0.018 A 
ATOM      8  C   UNL     1       2.501   1.493  -0.955  0.00  0.00    +0.199 A 
ATOM      9  O   UNL     1       2.387   0.848  -1.982  0.00  0.00    -0.287 OA
ATOM     10  C   UNL     1       1.394   1.624  -0.003  0.00  0.00    +0.072 A 
ATOM     11  C   UNL     1       1.561   2.351   1.129  0.00  0.00    +0.199 A 
ATOM     12  O   UNL     1       2.730   2.963   1.401  0.00  0.00    -0.450 OA
ATOM     13  C   UNL     1       0.293   2.312   1.900  0.00  0.00    +0.288 C 
ATOM     14  O   UNL     1       0.111   2.866   2.966  0.00  0.00    -0.266 OA
ATOM     15  N   UNL     1      -0.624   1.576   1.249  0.00  0.00    -0.238 N 
ATOM     16  C   UNL     1      -0.013   1.086   0.008  0.00  0.00    +0.151 C 
ATOM     17  C   UNL     1      -1.925   1.324   1.677  0.00  0.00    +0.129 A 
ATOM     18  C   UNL     1      -2.735   0.461   0.947  0.00  0.00    +0.047 A 
ATOM     19  C   UNL     1      -4.024   0.214   1.386  0.00  0.00    -0.046 A 
ATOM     20  C   UNL     1      -4.463   0.851   2.540  0.00  0.00    +0.023 A 
ATOM     21  C   UNL     1      -3.607   1.700   3.212  0.00  0.00    +0.113 A 
ATOM     22  N   UNL     1      -2.381   1.911   2.772  0.00  0.00    -0.240 NA
ATOM     23  C   UNL     1      -4.932  -0.718   0.627  0.00  0.00    +0.044 C 
ENDROOT
BRANCH  16  24
ATOM     24  C   UNL     1      -0.774   1.601  -1.186  0.00  0.00    -0.022 A 
ATOM     25  C   UNL     1      -1.295   2.881  -1.174  0.00  0.00    +0.006 A 
ATOM     26  C   UNL     1      -1.990   3.355  -2.271  0.00  0.00    +0.000 A 
ATOM     27  C   UNL     1      -2.172   2.545  -3.377  0.00  0.00    +0.000 A 
ATOM     28  C   UNL     1      -1.656   1.263  -3.386  0.00  0.00    +0.000 A 
ATOM     29  C   UNL     1      -0.957   0.790  -2.291  0.00  0.00    +0.006 A 
ENDBRANCH  16  24
TORSDOF 1
