REMARK  Name = ZINC22790161
REMARK  6 active torsions:
REMARK  status: ('A' for Active; 'I' for Inactive)
REMARK    1  A    between atoms: C_5  and  C_6
REMARK    2  A    between atoms: C_6  and  N_7
REMARK    3  A    between atoms: N_10  and  C_13
REMARK    4  A    between atoms: C_13  and  C_14
REMARK    5  A    between atoms: N_16  and  C_17
REMARK    6  A    between atoms: C_18  and  C_22
REMARK                            x       y       z     vdW  Elec       q    Type
REMARK                         _______ _______ _______ _____ _____    ______ ____
ROOT
ATOM      1  C   UNL     1       1.121   3.579   0.011  0.00  0.00    +0.019 C 
ENDROOT
BRANCH   1   5
ATOM      2  N   UNL     1       4.673   5.671   0.933  0.00  0.00    -0.301 NA
ATOM      3  C   UNL     1       3.975   6.015  -0.314  0.00  0.00    +0.066 C 
ATOM      4  C   UNL     1       2.523   5.539  -0.231  0.00  0.00    -0.063 C 
ATOM      5  N   UNL     1       2.499   4.087   0.000  0.00  0.00    +0.387 N 
ATOM      6  C   UNL     1       3.196   3.744   1.247  0.00  0.00    -0.063 C 
ATOM      7  C   UNL     1       4.649   4.220   1.164  0.00  0.00    +0.066 C 
ATOM      8  H   UNL     1       3.031   3.602  -0.832  0.00  0.00    -0.081 HD
BRANCH   2   9
ATOM      9  C   UNL     1       6.051   6.180   0.923  0.00  0.00    +0.126 C 
BRANCH   9  14
ATOM     10  C   UNL     1       7.532   4.463   2.163  0.00  0.00    +0.013 A 
ATOM     11  C   UNL     1       8.148   4.131   3.356  0.00  0.00    +0.023 A 
ATOM     12  C   UNL     1       8.007   4.959   4.421  0.00  0.00    +0.055 A 
ATOM     13  S   UNL     1       6.986   6.259   3.745  0.00  0.00    -0.085 S 
ATOM     14  C   UNL     1       6.807   5.606   2.093  0.00  0.00    +0.005 A 
ATOM     15 BR   UNL     1       8.715   4.786   6.166  0.00  0.00    -0.043 Br
ENDBRANCH   9  14
ENDBRANCH   2   9
ENDBRANCH   1   5
BRANCH   1  16
ATOM     16  C   UNL     1       1.141   2.072   0.002  0.00  0.00    +0.201 C 
ATOM     17  O   UNL     1       2.200   1.480  -0.011  0.00  0.00    -0.278 OA
ATOM     18  N   UNL     1      -0.017   1.382   0.010  0.00  0.00    -0.281 N 
ATOM     19  H   UNL     1      -0.977   1.919   0.022  0.00  0.00    +0.155 HD
BRANCH  18  20
ATOM     20  C   UNL     1       0.002  -0.004   0.002  0.00  0.00    +0.084 A 
ATOM     21  C   UNL     1      -1.075  -0.882   0.013  0.00  0.00    +0.065 A 
ATOM     22  C   UNL     1      -0.764  -2.292  -0.003  0.00  0.00    +0.022 A 
ATOM     23  C   UNL     1       0.537  -2.633  -0.017  0.00  0.00    +0.048 A 
ATOM     24  S   UNL     1       1.373  -1.061  -0.016  0.00  0.00    -0.081 S 
BRANCH  21  25
ATOM     25  C   UNL     1      -2.460  -0.401   0.037  0.00  0.00    +0.244 C 
ATOM     26  O   UNL     1      -2.688   0.795   0.047  0.00  0.00    -0.270 OA
ATOM     27  N   UNL     1      -3.480  -1.282   0.047  0.00  0.00    -0.325 N 
ATOM     28  H   UNL     1      -4.519  -0.920   0.065  0.00  0.00    +0.145 HD
ATOM     29  H   UNL     1      -3.273  -2.362   0.038  0.00  0.00    +0.145 HD
ENDBRANCH  21  25
ENDBRANCH  18  20
ENDBRANCH   1  16
TORSDOF 6
