REMARK  Name = ZINC35007538
REMARK  6 active torsions:
REMARK  status: ('A' for Active; 'I' for Inactive)
REMARK    1  A    between atoms: C_1  and  C_2
REMARK    2  A    between atoms: C_2  and  C_4
REMARK    3  A    between atoms: C_2  and  N_16
REMARK    4  A    between atoms: N_16  and  C_17
REMARK    5  A    between atoms: C_23  and  C_25
REMARK    6  A    between atoms: C_26  and  C_27
REMARK                            x       y       z     vdW  Elec       q    Type
REMARK                         _______ _______ _______ _____ _____    ______ ____
ROOT
ATOM      1  N   UNL     1       0.700  -0.525   1.272  0.00  0.00    -0.285 N 
ATOM      2  C   UNL     1       0.038  -1.329   2.127  0.00  0.00    +0.240 C 
ATOM      3  O   UNL     1      -1.089  -1.704   1.861  0.00  0.00    -0.271 OA
ENDROOT
BRANCH   1   4
ATOM      4  C   UNL     1       2.096  -0.166   1.536  0.00  0.00    +0.077 C 
ATOM      5  C   UNL     1       2.922  -1.439   1.732  0.00  0.00    +0.022 C 
ATOM      6  C   UNL     1       4.379  -1.064   2.008  0.00  0.00    +0.002 C 
ATOM      7  C   UNL     1       4.455  -0.206   3.273  0.00  0.00    +0.000 C 
ATOM      8  C   UNL     1       3.629   1.067   3.076  0.00  0.00    +0.002 C 
ATOM      9  C   UNL     1       2.171   0.691   2.801  0.00  0.00    +0.022 C 
ENDBRANCH   1   4
BRANCH   1  11
ATOM     10  C   UNL     1       0.011   1.519   0.119  0.00  0.00    +0.036 C 
ATOM     11  C   UNL     1       0.025  -0.011   0.078  0.00  0.00    +0.140 C 
BRANCH  11  12
ATOM     12  C   UNL     1       0.759  -0.474  -1.154  0.00  0.00    +0.131 A 
ATOM     13  N   UNL     1       0.348  -0.009  -2.362  0.00  0.00    -0.309 N 
ATOM     14  H   UNL     1      -0.402   0.605  -2.411  0.00  0.00    +0.170 HD
ATOM     15  C   UNL     1       0.974  -0.394  -3.498  0.00  0.00    +0.259 A 
ATOM     16  O   UNL     1       0.617   0.016  -4.587  0.00  0.00    -0.267 OA
ATOM     17  C   UNL     1       2.104  -1.326  -3.366  0.00  0.00    +0.065 A 
ATOM     18  C   UNL     1       2.815  -1.784  -4.473  0.00  0.00    +0.015 A 
ATOM     19  C   UNL     1       3.865  -2.657  -4.291  0.00  0.00    +0.001 A 
ATOM     20  C   UNL     1       4.218  -3.083  -3.016  0.00  0.00    +0.002 A 
ATOM     21  C   UNL     1       3.527  -2.642  -1.910  0.00  0.00    +0.028 A 
ATOM     22  C   UNL     1       2.459  -1.756  -2.068  0.00  0.00    +0.078 A 
ATOM     23  N   UNL     1       1.755  -1.293  -1.005  0.00  0.00    -0.232 NA
ENDBRANCH  11  12
ENDBRANCH   1  11
BRANCH   2  24
ATOM     24  C   UNL     1       0.674  -1.752   3.377  0.00  0.00    +0.068 C 
ATOM     25  C   UNL     1       0.052  -2.631   4.186  0.00  0.00    +0.013 C 
BRANCH  25  26
ATOM     26  C   UNL     1       0.692  -3.056   5.442  0.00  0.00    -0.025 A 
ATOM     27  C   UNL     1       1.942  -2.545   5.801  0.00  0.00    +0.008 A 
ATOM     28  C   UNL     1       2.535  -2.947   6.980  0.00  0.00    +0.001 A 
ATOM     29  C   UNL     1       1.895  -3.855   7.806  0.00  0.00    +0.000 A 
ATOM     30  C   UNL     1       0.657  -4.366   7.457  0.00  0.00    +0.001 A 
ATOM     31  C   UNL     1       0.049  -3.968   6.285  0.00  0.00    +0.008 A 
ENDBRANCH  25  26
ENDBRANCH   2  24
TORSDOF 5
