REMARK  Name = ZINC12756387
REMARK  5 active torsions:
REMARK  status: ('A' for Active; 'I' for Inactive)
REMARK    1  A    between atoms: C_10  and  C_11
REMARK    2  A    between atoms: C_11  and  N_61
REMARK    3  A    between atoms: C_17  and  C_19
REMARK    4  A    between atoms: C_19  and  C_20
REMARK    5  A    between atoms: N_25  and  C_28
REMARK                            x       y       z     vdW  Elec       q    Type
REMARK                         _______ _______ _______ _____ _____    ______ ____
ROOT
ATOM      1  C   UNL     1       3.059   3.000   2.178  0.00  0.00    -0.058 C 
ATOM      2  C   UNL     1       3.666   3.426   3.515  0.00  0.00    +0.085 C 
ATOM      3  N   UNL     1       2.832   4.448   4.141  0.00  0.00    -0.318 N 
ATOM      4  C   UNL     1       1.927   5.162   3.463  0.00  0.00    +0.200 C 
ATOM      5  O   UNL     1       1.297   6.013   4.055  0.00  0.00    -0.278 OA
ATOM      6  C   UNL     1       1.657   4.954   2.000  0.00  0.00    +0.028 C 
ATOM      7  H   UNL     1       2.939   4.617   5.090  0.00  0.00    +0.149 HD
ATOM      8  N   UNL     1       2.782   4.219   1.392  0.00  0.00    +0.391 N 
ATOM      9  H   UNL     1       3.616   4.817   1.397  0.00  0.00    -0.080 HD
ENDROOT
BRANCH   8  10
ATOM     10  C   UNL     1       2.455   3.859  -0.007  0.00  0.00    -0.041 C 
BRANCH  10  20
ATOM     11  C   UNL     1       3.907  -1.045  -0.225  0.00  0.00    +0.001 A 
ATOM     12  C   UNL     1       2.826  -0.366   0.335  0.00  0.00    +0.001 A 
ATOM     13  C   UNL     1       2.713   0.985   0.223  0.00  0.00    +0.009 A 
ATOM     14  C   UNL     1       3.699   1.711  -0.468  0.00  0.00    -0.017 A 
ATOM     15  C   UNL     1       4.798   1.021  -1.037  0.00  0.00    -0.018 A 
ATOM     16  C   UNL     1       4.881  -0.376  -0.900  0.00  0.00    +0.008 A 
ATOM     17  C   UNL     1       5.781   1.745  -1.733  0.00  0.00    +0.008 A 
ATOM     18  C   UNL     1       5.670   3.098  -1.841  0.00  0.00    +0.001 A 
ATOM     19  C   UNL     1       4.590   3.776  -1.281  0.00  0.00    +0.002 A 
ATOM     20  C   UNL     1       3.616   3.107  -0.605  0.00  0.00    -0.056 A 
ENDBRANCH  10  20
ENDBRANCH   8  10
BRANCH   6  21
ATOM     21  C   UNL     1       1.520   6.313   1.310  0.00  0.00    +0.090 C 
BRANCH  21  22
ATOM     22  C   UNL     1       2.829   7.055   1.400  0.00  0.00    +0.215 C 
ATOM     23  O   UNL     1       3.751   6.585   2.032  0.00  0.00    -0.276 OA
ATOM     24  N   UNL     1       2.975   8.241   0.776  0.00  0.00    -0.299 N 
ATOM     25  C   UNL     1       1.872   8.826  -0.001  0.00  0.00    +0.126 C 
ATOM     26  C   UNL     1       1.662  10.273   0.473  0.00  0.00    +0.125 C 
ATOM     27  N   UNL     1       2.935  11.000   0.387  0.00  0.00    -0.314 N 
ATOM     28  C   UNL     1       3.942  10.420   1.286  0.00  0.00    +0.125 C 
ATOM     29  C   UNL     1       4.243   8.982   0.850  0.00  0.00    +0.126 C 
BRANCH  27  30
ATOM     30  C   UNL     1       2.755  12.354   0.648  0.00  0.00    +0.099 A 
ATOM     31  C   UNL     1       1.843  13.085  -0.106  0.00  0.00    +0.042 A 
ATOM     32  C   UNL     1       1.669  14.430   0.169  0.00  0.00    +0.005 A 
ATOM     33  C   UNL     1       2.424  15.002   1.184  0.00  0.00    +0.018 A 
ATOM     34  C   UNL     1       3.315  14.218   1.888  0.00  0.00    +0.084 A 
ATOM     35  N   UNL     1       3.508  12.893   1.649  0.00  0.00    -0.350 N 
ATOM     36  H   UNL     1       4.178  12.333   2.190  0.00  0.00    +0.166 HD
ENDBRANCH  27  30
ENDBRANCH  21  22
ENDBRANCH   6  21
TORSDOF 5
