REMARK  Name = ZINC17056861
REMARK  8 active torsions:
REMARK  status: ('A' for Active; 'I' for Inactive)
REMARK    1  A    between atoms: C_1  and  C_2
REMARK    2  A    between atoms: C_5  and  N_9
REMARK    3  A    between atoms: C_6  and  C_8
REMARK    4  A    between atoms: C_10  and  C_12
REMARK    5  A    between atoms: C_12  and  C_14
REMARK    6  A    between atoms: C_12  and  N_21
REMARK    7  A    between atoms: C_14  and  C_15
REMARK    8  A    between atoms: C_22  and  C_24
REMARK                            x       y       z     vdW  Elec       q    Type
REMARK                         _______ _______ _______ _____ _____    ______ ____
ROOT
ATOM      1  C   UNL     1      -0.134  -6.343  -1.187  0.00  0.00    +0.163 C 
ENDROOT
BRANCH   1   3
ATOM      2  N   UNL     1       0.059  -4.170  -0.021  0.00  0.00    -0.284 N 
ATOM      3  C   UNL     1      -0.040  -4.839  -1.187  0.00  0.00    +0.238 C 
ATOM      4  O   UNL     1      -0.054  -4.230  -2.236  0.00  0.00    -0.273 OA
ATOM      5  H   UNL     1       0.135  -4.658   0.814  0.00  0.00    +0.155 HD
BRANCH   2  10
ATOM      6  C   UNL     1       0.026   1.503   0.005  0.00  0.00    +0.044 C 
ATOM      7  C   UNL     1       0.034  -0.004  -0.002  0.00  0.00    -0.050 A 
ATOM      8  C   UNL     1       0.632  -0.685  -1.046  0.00  0.00    +0.005 A 
ATOM      9  C   UNL     1       0.642  -2.066  -1.055  0.00  0.00    +0.024 A 
ATOM     10  C   UNL     1       0.051  -2.771  -0.014  0.00  0.00    +0.036 A 
ATOM     11  C   UNL     1      -0.548  -2.083   1.033  0.00  0.00    -0.029 A 
ATOM     12  C   UNL     1      -0.550  -0.702   1.039  0.00  0.00    +0.008 A 
ATOM     13  C   UNL     1      -1.191  -2.843   2.165  0.00  0.00    +0.045 C 
ENDBRANCH   2  10
ENDBRANCH   1   3
BRANCH   1  14
ATOM     14  N   UNL     1      -0.232  -6.826  -2.567  0.00  0.00    -0.302 N 
ATOM     15  C   UNL     1      -0.813  -8.014  -2.825  0.00  0.00    +0.231 C 
ATOM     16  O   UNL     1      -1.256  -8.683  -1.915  0.00  0.00    -0.274 OA
ATOM     17  H   UNL     1       0.122  -6.290  -3.294  0.00  0.00    +0.150 HD
BRANCH  15  18
ATOM     18  C   UNL     1      -0.914  -8.511  -4.244  0.00  0.00    +0.145 C 
ATOM     19  C   UNL     1       0.419  -9.126  -4.669  0.00  0.00    +0.063 C 
ATOM     20  C   UNL     1       0.261  -9.838  -5.988  0.00  0.00    -0.041 A 
ATOM     21  C   UNL     1       1.401 -10.150  -6.713  0.00  0.00    +0.004 A 
ATOM     22  C   UNL     1       1.300 -10.805  -7.924  0.00  0.00    +0.000 A 
ATOM     23  C   UNL     1       0.056 -11.152  -8.416  0.00  0.00    +0.000 A 
ATOM     24  C   UNL     1      -1.079 -10.842  -7.696  0.00  0.00    +0.005 A 
ATOM     25  C   UNL     1      -0.980 -10.181  -6.480  0.00  0.00    -0.030 A 
ATOM     26  C   UNL     1      -2.248  -9.853  -5.736  0.00  0.00    +0.117 C 
ATOM     27  N   UNL     1      -1.959  -9.543  -4.334  0.00  0.00    -0.301 NA
ATOM     28  H   UNL     1      -1.690 -10.375  -3.830  0.00  0.00    +0.123 HD
ENDBRANCH  15  18
ENDBRANCH   1  14
BRANCH   1  29
ATOM     29  C   UNL     1       1.115  -6.931  -0.528  0.00  0.00    +0.067 C 
BRANCH  29  30
ATOM     30  C   UNL     1       0.967  -8.427  -0.417  0.00  0.00    -0.045 A 
ATOM     31  C   UNL     1       0.387  -8.983   0.708  0.00  0.00    +0.004 A 
ATOM     32  C   UNL     1       0.251 -10.355   0.809  0.00  0.00    +0.000 A 
ATOM     33  C   UNL     1       0.695 -11.171  -0.214  0.00  0.00    +0.000 A 
ATOM     34  C   UNL     1       1.274 -10.615  -1.340  0.00  0.00    +0.000 A 
ATOM     35  C   UNL     1       1.406  -9.243  -1.443  0.00  0.00    +0.004 A 
ENDBRANCH  29  30
ENDBRANCH   1  29
TORSDOF 6
