REMARK  Name = ZINC01512138
REMARK  2 active torsions:
REMARK  status: ('A' for Active; 'I' for Inactive)
REMARK    1  A    between atoms: C_5  and  C_7
REMARK    2  A    between atoms: C_10  and  N_11
REMARK                            x       y       z     vdW  Elec       q    Type
REMARK                         _______ _______ _______ _____ _____    ______ ____
ROOT
ATOM      1  C   UNL     1       1.250  -2.159  -0.022  0.00  0.00    +0.233 C 
ATOM      2  N   UNL     1       2.340  -2.873  -0.032  0.00  0.00    -0.204 NA
ATOM      3  C   UNL     1       2.005  -4.199  -0.037  0.00  0.00    +0.166 C 
ATOM      4  C   UNL     1       2.865  -5.277  -0.047  0.00  0.00    +0.109 C 
ATOM      5  C   UNL     1       0.538  -4.232  -0.030  0.00  0.00    +0.366 C 
ATOM      6  O   UNL     1      -0.179  -5.217  -0.031  0.00  0.00    -0.243 OA
ATOM      7  O   UNL     1       0.151  -2.939  -0.016  0.00  0.00    -0.402 OA
ENDROOT
BRANCH   1  12
ATOM      8  C   UNL     1      -0.017   1.375   0.010  0.00  0.00    +0.001 A 
ATOM      9  C   UNL     1       1.170   2.087   0.002  0.00  0.00    +0.001 A 
ATOM     10  C   UNL     1       2.383   1.422  -0.013  0.00  0.00    +0.016 A 
ATOM     11  C   UNL     1       2.417   0.042  -0.021  0.00  0.00    +0.030 A 
ATOM     12  C   UNL     1       1.222  -0.683  -0.014  0.00  0.00    +0.051 A 
ATOM     13  C   UNL     1       0.002  -0.004   0.002  0.00  0.00    +0.014 A 
ATOM     14 BR   UNL     1       4.076  -0.866  -0.043  0.00  0.00    -0.050 Br
ENDBRANCH   1  12
BRANCH   4  15
ATOM     15  N   UNL     1       2.367  -6.545  -0.051  0.00  0.00    -0.296 N 
ATOM     16  C   UNL     1       3.233  -7.630  -0.060  0.00  0.00    +0.185 A 
ATOM     17  N   UNL     1       4.559  -7.665  -0.062  0.00  0.00    -0.126 NA
ATOM     18  N   UNL     1       5.196  -8.753  -0.071  0.00  0.00    -0.148 NA
ATOM     19  C   UNL     1       4.587  -9.923  -0.080  0.00  0.00    +0.183 A 
ATOM     20  S   UNL     1       2.879  -9.386  -0.067  0.00  0.00    -0.039 S 
ATOM     21  H   UNL     1       1.408  -6.689  -0.046  0.00  0.00    +0.154 HD
ENDBRANCH   4  15
TORSDOF 2
