REMARK  Name = ZINC12279791
REMARK  9 active torsions:
REMARK  status: ('A' for Active; 'I' for Inactive)
REMARK    1  A    between atoms: C_1  and  O_2
REMARK    2  A    between atoms: O_2  and  C_3
REMARK    3  A    between atoms: C_6  and  S_9
REMARK    4  A    between atoms: S_9  and  C_10
REMARK    5  A    between atoms: C_13  and  C_23
REMARK    6  A    between atoms: C_16  and  C_17
REMARK    7  A    between atoms: C_16  and  N_80
REMARK    8  A    between atoms: C_28  and  N_82
REMARK    9  A    between atoms: C_33  and  O_36
REMARK                            x       y       z     vdW  Elec       q    Type
REMARK                         _______ _______ _______ _____ _____    ______ ____
ROOT
ATOM      1  C   UNL     1       1.913  -4.892  -0.366  0.00  0.00    +0.034 C 
ATOM      2  C   UNL     1       1.952  -6.442  -0.372  0.00  0.00    +0.006 C 
ATOM      3  C   UNL     1       3.439  -6.714  -0.722  0.00  0.00    +0.020 C 
ATOM      4  C   UNL     1       2.896  -4.510  -1.493  0.00  0.00    -0.063 C 
ATOM      5  N   UNL     1       3.787  -5.666  -1.698  0.00  0.00    +0.388 N 
ATOM      6  H   UNL     1       3.658  -6.031  -2.649  0.00  0.00    -0.081 HD
ENDROOT
BRANCH   3   7
ATOM      7  C   UNL     1       3.594  -8.075  -1.350  0.00  0.00    +0.202 C 
ATOM      8  O   UNL     1       3.822  -8.173  -2.537  0.00  0.00    -0.277 OA
ATOM      9  N   UNL     1       3.479  -9.184  -0.592  0.00  0.00    -0.303 N 
ATOM     10  C   UNL     1       3.744 -10.512  -1.163  0.00  0.00    +0.106 C 
ATOM     11  C   UNL     1       4.782 -11.224  -0.283  0.00  0.00    +0.004 C 
ATOM     12  C   UNL     1       4.283 -11.250   1.164  0.00  0.00    -0.066 C 
ATOM     13  C   UNL     1       4.120  -9.817   1.675  0.00  0.00    +0.004 C 
ATOM     14  C   UNL     1       3.080  -9.089   0.819  0.00  0.00    +0.106 C 
BRANCH  12  20
ATOM     15  C   UNL     1       6.569 -11.309   1.956  0.00  0.00    -0.076 C 
ATOM     16  C   UNL     1       7.514 -11.988   2.951  0.00  0.00    +0.013 C 
ATOM     17  C   UNL     1       7.646 -13.470   2.592  0.00  0.00    +0.111 C 
ATOM     18  C   UNL     1       6.258 -14.116   2.602  0.00  0.00    +0.013 C 
ATOM     19  C   UNL     1       5.350 -13.376   1.617  0.00  0.00    -0.076 C 
ATOM     20  N   UNL     1       5.244 -11.960   2.032  0.00  0.00    +0.382 N 
ATOM     21  H   UNL     1       4.910 -11.922   3.002  0.00  0.00    -0.081 HD
BRANCH  17  22
ATOM     22  O   UNL     1       8.483 -14.122   3.550  0.00  0.00    -0.392 OA
ATOM     23  H   UNL     1       9.380 -13.764   3.597  0.00  0.00    +0.210 HD
ENDBRANCH  17  22
ENDBRANCH  12  20
ENDBRANCH   3   7
BRANCH   1  24
ATOM     24  S   UNL     1       0.243  -4.291  -0.741  0.00  0.00    -0.124 S 
BRANCH  24  28
ATOM     25  C   UNL     1       0.598   0.214  -0.411  0.00  0.00    +0.120 A 
ATOM     26  C   UNL     1       1.708  -0.587  -0.189  0.00  0.00    +0.047 A 
ATOM     27  C   UNL     1       1.600  -1.960  -0.284  0.00  0.00    +0.018 A 
ATOM     28  C   UNL     1       0.381  -2.539  -0.613  0.00  0.00    +0.008 A 
ATOM     29  C   UNL     1      -0.729  -1.736  -0.840  0.00  0.00    +0.018 A 
ATOM     30  C   UNL     1      -0.620  -0.363  -0.739  0.00  0.00    +0.047 A 
BRANCH  25  32
ATOM     31  C   UNL     1       1.989   2.092   0.029  0.00  0.00    +0.277 C 
ATOM     32  O   UNL     1       0.705   1.566  -0.312  0.00  0.00    -0.495 OA
ENDBRANCH  25  32
ENDBRANCH  24  28
ENDBRANCH   1  24
BRANCH   5  33
ATOM     33  C   UNL     1       5.205  -5.253  -1.526  0.00  0.00    -0.074 C 
BRANCH  33  34
ATOM     34  C   UNL     1       5.587  -4.277  -2.641  0.00  0.00    -0.028 C 
ATOM     35  C   UNL     1       5.564  -5.005  -3.986  0.00  0.00    +0.002 C 
ATOM     36  C   UNL     1       5.946  -4.029  -5.101  0.00  0.00    +0.000 C 
ATOM     37  C   UNL     1       7.352  -3.483  -4.841  0.00  0.00    +0.000 C 
ATOM     38  C   UNL     1       7.375  -2.755  -3.495  0.00  0.00    +0.000 C 
ATOM     39  C   UNL     1       6.993  -3.731  -2.381  0.00  0.00    +0.002 C 
ENDBRANCH  33  34
ENDBRANCH   5  33
TORSDOF 8
