REMARK  Name = ZINC16383044
REMARK  4 active torsions:
REMARK  status: ('A' for Active; 'I' for Inactive)
REMARK    1  A    between atoms: C_3  and  C_10
REMARK    2  A    between atoms: C_5  and  O_8
REMARK    3  A    between atoms: N_11  and  N_12
REMARK    4  A    between atoms: C_13  and  C_15
REMARK                            x       y       z     vdW  Elec       q    Type
REMARK                         _______ _______ _______ _____ _____    ______ ____
ROOT
ATOM      1  C   UNL     1      -1.923   5.870   0.043  0.00  0.00    +0.140 C 
ATOM      2  N   UNL     1      -2.103   4.584   0.037  0.00  0.00    -0.187 NA
ENDROOT
BRANCH   1   5
ATOM      3  C   UNL     1      -5.467   7.108   0.068  0.00  0.00    +0.035 A 
ATOM      4  C   UNL     1      -4.382   6.255   0.058  0.00  0.00    +0.029 A 
ATOM      5  C   UNL     1      -3.085   6.777   0.054  0.00  0.00    +0.026 A 
ATOM      6  C   UNL     1      -2.894   8.161   0.067  0.00  0.00    +0.070 A 
ATOM      7  C   UNL     1      -3.991   9.006   0.072  0.00  0.00    +0.145 A 
ATOM      8  C   UNL     1      -5.276   8.478   0.075  0.00  0.00    +0.061 A 
ATOM      9 BR   UNL     1      -6.770   9.638   0.089  0.00  0.00    -0.046 Br
ATOM     10 BR   UNL     1      -1.144   8.878   0.070  0.00  0.00    -0.046 Br
ATOM     11 BR   UNL     1      -4.649   4.383   0.049  0.00  0.00    -0.050 Br
BRANCH   7  12
ATOM     12  O   UNL     1      -3.810  10.354   0.079  0.00  0.00    -0.505 OA
ATOM     13  H   UNL     1      -3.753  10.738   0.965  0.00  0.00    +0.292 HD
ENDBRANCH   7  12
ENDBRANCH   1   5
BRANCH   2  14
ATOM     14  N   UNL     1      -0.998   3.722   0.027  0.00  0.00    -0.202 N 
ATOM     15  C   UNL     1      -1.185   2.388   0.021  0.00  0.00    +0.288 C 
ATOM     16  O   UNL     1      -2.312   1.931   0.024  0.00  0.00    -0.267 OA
ATOM     17  H   UNL     1      -0.099   4.086   0.025  0.00  0.00    +0.178 HD
BRANCH  15  18
ATOM     18  C   UNL     1      -0.018   1.477   0.010  0.00  0.00    +0.211 A 
ATOM     19  C   UNL     1       0.002  -0.004   0.002  0.00  0.00    +0.193 A 
ATOM     20  N   UNL     1       1.288  -0.272  -0.012  0.00  0.00    -0.033 NA
ATOM     21  O   UNL     1       1.914   0.761  -0.012  0.00  0.00    -0.240 OA
ATOM     22  N   UNL     1       1.262   1.779  -0.000  0.00  0.00    -0.042 NA
ATOM     23  N   UNL     1      -1.069  -0.887   0.007  0.00  0.00    -0.339 N 
ATOM     24  H   UNL     1      -1.977  -0.547   0.018  0.00  0.00    +0.144 HD
ATOM     25  H   UNL     1      -0.909  -1.844   0.001  0.00  0.00    +0.144 HD
ENDBRANCH  15  18
ENDBRANCH   2  14
TORSDOF 4
