REMARK  Name = ZINC39481195
REMARK  9 active torsions:
REMARK  status: ('A' for Active; 'I' for Inactive)
REMARK    1  A    between atoms: C_1  and  C_2
REMARK    2  A    between atoms: C_2  and  C_3
REMARK    3  A    between atoms: C_6  and  N_17
REMARK    4  A    between atoms: C_7  and  N_9
REMARK    5  A    between atoms: N_17  and  S_18
REMARK    6  A    between atoms: S_18  and  S_21
REMARK    7  A    between atoms: S_21  and  C_24
REMARK    8  A    between atoms: C_24  and  C_25
REMARK    9  A    between atoms: C_24  and  C_26
REMARK                            x       y       z     vdW  Elec       q    Type
REMARK                         _______ _______ _______ _____ _____    ______ ____
ROOT
ATOM      1  C   UNL     1       0.707  -0.490  -1.238  0.00  0.00    -0.046 A 
ATOM      2  C   UNL     1      -0.013  -0.718  -2.396  0.00  0.00    +0.005 A 
ATOM      3  C   UNL     1       0.628  -1.164  -3.537  0.00  0.00    +0.029 A 
ATOM      4  C   UNL     1       1.998  -1.383  -3.522  0.00  0.00    +0.097 A 
ATOM      5  C   UNL     1       2.724  -1.153  -2.354  0.00  0.00    +0.055 A 
ATOM      6  C   UNL     1       2.074  -0.702  -1.216  0.00  0.00    +0.028 A 
ENDROOT
BRANCH   5   7
ATOM      7  N   UNL     1       4.107  -1.373  -2.332  0.00  0.00    -0.325 N 
ATOM      8  C   UNL     1       5.048  -0.296  -2.671  0.00  0.00    +0.120 C 
ATOM      9  C   UNL     1       6.026  -0.819  -3.729  0.00  0.00    +0.101 C 
ATOM     10  N   UNL     1       6.649  -2.058  -3.244  0.00  0.00    -0.302 NA
ATOM     11  C   UNL     1       5.649  -3.118  -3.054  0.00  0.00    +0.139 C 
ATOM     12  C   UNL     1       4.656  -2.687  -1.963  0.00  0.00    +0.135 C 
ATOM     13 BR   UNL     1       6.548  -4.777  -2.502  0.00  0.00    -0.070 Br
ATOM     14  H   UNL     1       7.383  -2.362  -3.867  0.00  0.00    +0.123 HD
ENDBRANCH   5   7
BRANCH   1  16
ATOM     15  C   UNL     1      -0.019   1.526   0.010  0.00  0.00    +0.009 C 
ATOM     16  C   UNL     1       0.002  -0.004   0.002  0.00  0.00    +0.032 C 
ENDBRANCH   1  16
BRANCH   4  17
ATOM     17  N   UNL     1       2.649  -1.835  -4.676  0.00  0.00    -0.080 NA
BRANCH  17  18
ATOM     18  S   UNL     1       1.784  -2.108  -6.062  0.00  0.00    +0.187 S 
ATOM     19  O   UNL     1       0.917  -3.201  -5.791  0.00  0.00    -0.130 OA
ATOM     20  O   UNL     1       1.303  -0.844  -6.496  0.00  0.00    -0.130 OA
BRANCH  18  21
ATOM     21  S   UNL     1       3.110  -2.752  -7.487  0.00  0.00    +0.106 S 
ATOM     22  O   UNL     1       3.986  -1.652  -7.690  0.00  0.00    -0.151 OA
ATOM     23  O   UNL     1       3.603  -3.989  -6.991  0.00  0.00    -0.151 OA
BRANCH  21  24
ATOM     24  C   UNL     1       2.102  -3.030  -8.969  0.00  0.00    +0.150 C 
ATOM     25  C   UNL     1       1.423  -1.722  -9.378  0.00  0.00    +0.033 C 
ATOM     26  C   UNL     1       2.997  -3.518 -10.110  0.00  0.00    +0.033 C 
ENDBRANCH  21  24
ENDBRANCH  18  21
ENDBRANCH  17  18
ENDBRANCH   4  17
TORSDOF 6
