REMARK  Name = ZINC56043002
REMARK  10 active torsions:
REMARK  status: ('A' for Active; 'I' for Inactive)
REMARK    1  A    between atoms: C_1  and  C_2
REMARK    2  A    between atoms: C_5  and  S_22
REMARK    3  A    between atoms: C_7  and  S_8
REMARK    4  A    between atoms: S_8  and  N_11
REMARK    5  A    between atoms: N_11  and  C_12
REMARK    6  A    between atoms: C_12  and  C_13
REMARK    7  A    between atoms: C_13  and  C_14
REMARK    8  A    between atoms: C_13  and  C_15
REMARK    9  A    between atoms: C_13  and  C_16
REMARK   10  A    between atoms: S_22  and  C_25
REMARK                            x       y       z     vdW  Elec       q    Type
REMARK                         _______ _______ _______ _____ _____    ______ ____
ROOT
ATOM      1  S   UNL     1      -0.061  -0.055   2.728  0.00  0.00    +0.059 S 
ATOM      2  O   UNL     1      -1.268   0.694   2.779  0.00  0.00    -0.153 OA
ATOM      3  O   UNL     1       0.205  -1.133   3.614  0.00  0.00    -0.153 OA
ENDROOT
BRANCH   1  10
ATOM      4  C   UNL     1       2.249  -1.735   1.733  0.00  0.00    +0.046 C 
ATOM      5  C   UNL     1       1.156  -1.463   0.731  0.00  0.00    -0.024 A 
ATOM      6  C   UNL     1       1.248  -1.977  -0.549  0.00  0.00    +0.007 A 
ATOM      7  C   UNL     1       0.246  -1.728  -1.467  0.00  0.00    +0.027 A 
ATOM      8  C   UNL     1      -0.849  -0.964  -1.106  0.00  0.00    +0.090 A 
ATOM      9  C   UNL     1      -0.941  -0.451   0.174  0.00  0.00    +0.055 A 
ATOM     10  C   UNL     1       0.059  -0.704   1.094  0.00  0.00    +0.110 A 
BRANCH   8  11
ATOM     11  S   UNL     1      -2.126  -0.645  -2.277  0.00  0.00    -0.006 S 
ATOM     12  O   UNL     1      -2.712   0.577  -1.851  0.00  0.00    -0.170 OA
ATOM     13  O   UNL     1      -1.488  -0.739  -3.544  0.00  0.00    -0.170 OA
ATOM     14  C   UNL     1      -3.303  -2.009  -2.067  0.00  0.00    +0.200 C 
ENDBRANCH   8  11
ENDBRANCH   1  10
BRANCH   1  15
ATOM     15  N   UNL     1       1.177   1.029   2.916  0.00  0.00    -0.189 NA
ATOM     16  H   UNL     1       1.874   0.860   3.568  0.00  0.00    +0.148 HD
BRANCH  15  17
ATOM     17  C   UNL     1       1.217   2.244   2.098  0.00  0.00    +0.117 C 
BRANCH  17  18
ATOM     18  C   UNL     1       2.208   3.237   2.709  0.00  0.00    +0.004 C 
ATOM     19  C   UNL     1       1.762   3.594   4.129  0.00  0.00    +0.017 C 
ATOM     20  C   UNL     1       3.600   2.606   2.755  0.00  0.00    +0.017 C 
BRANCH  18  21
ATOM     21  C   UNL     1       2.249   4.487   1.868  0.00  0.00    -0.040 A 
ATOM     22  C   UNL     1       1.454   4.589   0.741  0.00  0.00    +0.004 A 
ATOM     23  C   UNL     1       1.493   5.735  -0.031  0.00  0.00    +0.000 A 
ATOM     24  C   UNL     1       2.326   6.779   0.324  0.00  0.00    +0.000 A 
ATOM     25  C   UNL     1       3.120   6.678   1.451  0.00  0.00    +0.000 A 
ATOM     26  C   UNL     1       3.079   5.534   2.225  0.00  0.00    +0.004 A 
ENDBRANCH  18  21
ENDBRANCH  17  18
ENDBRANCH  15  17
ENDBRANCH   1  15
TORSDOF 6
