REMARK  Name = ZINC12661687
REMARK  9 active torsions:
REMARK  status: ('A' for Active; 'I' for Inactive)
REMARK    1  A    between atoms: C_1  and  C_2
REMARK    2  A    between atoms: C_17  and  C_36
REMARK    3  A    between atoms: C_22  and  C_23
REMARK    4  A    between atoms: C_22  and  O_35
REMARK    5  A    between atoms: C_23  and  N_24
REMARK    6  A    between atoms: C_25  and  C_26
REMARK    7  A    between atoms: C_30  and  O_33
REMARK    8  A    between atoms: C_31  and  O_32
REMARK    9  A    between atoms: O_33  and  C_34
REMARK                            x       y       z     vdW  Elec       q    Type
REMARK                         _______ _______ _______ _____ _____    ______ ____
ROOT
ATOM      1  C   UNL     1       2.631  -0.267   2.808  0.00  0.00    +0.012 C 
ATOM      2  C   UNL     1       2.188   0.098   1.371  0.00  0.00    -0.026 C 
ATOM      3  C   UNL     1       3.241  -0.424   0.403  0.00  0.00    +0.007 C 
ATOM      4  C   UNL     1       4.580   0.288   0.585  0.00  0.00    +0.001 C 
ATOM      5  C   UNL     1       4.395   1.795   0.406  0.00  0.00    +0.000 C 
ATOM      6  C   UNL     1       3.421   2.305   1.468  0.00  0.00    +0.004 C 
ATOM      7  C   UNL     1       2.069   1.616   1.315  0.00  0.00    -0.005 C 
ATOM      8  C   UNL     1       1.418   2.049  -0.001  0.00  0.00    +0.004 C 
ATOM      9  C   UNL     1      -0.019   1.525   0.010  0.00  0.00    +0.004 C 
ATOM     10  C   UNL     1       0.002  -0.004   0.002  0.00  0.00    -0.004 C 
ATOM     11  C   UNL     1       0.842  -0.580   1.131  0.00  0.00    -0.001 C 
ATOM     12  C   UNL     1       0.998  -2.094   1.038  0.00  0.00    +0.005 C 
ATOM     13  C   UNL     1       1.351  -2.607  -0.362  0.00  0.00    +0.010 C 
ATOM     14  C   UNL     1       0.357  -2.064  -1.362  0.00  0.00    +0.002 C 
ATOM     15  C   UNL     1       0.462  -0.521  -1.337  0.00  0.00    +0.001 C 
ATOM     16  C   UNL     1      -0.395  -0.129  -2.550  0.00  0.00    +0.007 C 
ATOM     17  C   UNL     1       0.010  -1.185  -3.614  0.00  0.00    +0.037 C 
ATOM     18  C   UNL     1       0.586  -2.396  -2.837  0.00  0.00    +0.091 C 
ATOM     19  C   UNL     1      -1.054  -2.535  -0.995  0.00  0.00    +0.014 C 
ENDROOT
BRANCH  18  20
ATOM     20  O   UNL     1      -0.136  -3.583  -3.181  0.00  0.00    -0.386 OA
ATOM     21  H   UNL     1      -0.081  -3.820  -4.117  0.00  0.00    +0.210 HD
ENDBRANCH  18  20
BRANCH  18  22
ATOM     22  C   UNL     1       2.068  -2.573  -3.154  0.00  0.00    +0.176 C 
BRANCH  22  23
ATOM     23  N   UNL     1       2.244  -2.718  -4.601  0.00  0.00    -0.288 NA
ATOM     24  C   UNL     1       2.890  -1.817  -5.269  0.00  0.00    +0.116 C 
BRANCH  24  25
ATOM     25  C   UNL     1       3.066  -1.963  -6.725  0.00  0.00    +0.038 A 
ATOM     26  C   UNL     1       3.764  -0.991  -7.449  0.00  0.00    +0.013 A 
ATOM     27  C   UNL     1       3.927  -1.132  -8.810  0.00  0.00    +0.004 A 
ATOM     28  C   UNL     1       3.403  -2.232  -9.467  0.00  0.00    +0.049 A 
ATOM     29  C   UNL     1       2.710  -3.203  -8.764  0.00  0.00    +0.162 A 
ATOM     30  C   UNL     1       2.542  -3.078  -7.389  0.00  0.00    +0.167 A 
BRANCH  30  31
ATOM     31  O   UNL     1       1.867  -4.031  -6.694  0.00  0.00    -0.503 OA
ATOM     32  H   UNL     1       0.916  -3.870  -6.629  0.00  0.00    +0.292 HD
ENDBRANCH  30  31
BRANCH  29  33
ATOM     33  O   UNL     1       2.199  -4.281  -9.416  0.00  0.00    -0.491 OA
ATOM     34  C   UNL     1       2.414  -4.347 -10.828  0.00  0.00    +0.277 C 
ENDBRANCH  29  33
ENDBRANCH  24  25
ENDBRANCH  22  23
ENDBRANCH  18  22
TORSDOF 6
