REMARK  Name = ZINC20512836
REMARK  3 active torsions:
REMARK  status: ('A' for Active; 'I' for Inactive)
REMARK    1  A    between atoms: C_3  and  O_23
REMARK    2  A    between atoms: C_6  and  C_7
REMARK    3  A    between atoms: O_23  and  C_24
REMARK                            x       y       z     vdW  Elec       q    Type
REMARK                         _______ _______ _______ _____ _____    ______ ____
ROOT
ATOM      1  C   UNL     1      -0.035   1.088  -0.005  0.00  0.00    +0.089 C 
ATOM      2  C   UNL     1      -0.642   1.789  -1.191  0.00  0.00    +0.024 C 
ATOM      3  C   UNL     1      -0.007   2.829  -1.773  0.00  0.00    +0.015 C 
ATOM      4  C   UNL     1      -0.600   3.533  -2.967  0.00  0.00    +0.051 C 
ATOM      5  C   UNL     1      -2.127   3.472  -2.895  0.00  0.00    +0.014 C 
ATOM      6  C   UNL     1      -2.553   2.001  -2.845  0.00  0.00    +0.080 C 
ATOM      7  C   UNL     1      -1.883   1.337  -1.673  0.00  0.00    +0.162 C 
ATOM      8  O   UNL     1      -2.425   0.392  -1.133  0.00  0.00    -0.292 OA
ATOM      9  N   UNL     1       1.196   3.259  -1.285  0.00  0.00    -0.320 N 
ATOM     10  C   UNL     1       1.983   2.432  -0.531  0.00  0.00    +0.015 C 
ATOM     11  C   UNL     1       1.441   1.369   0.099  0.00  0.00    +0.024 C 
ATOM     12  C   UNL     1       2.236   0.496   0.863  0.00  0.00    +0.162 C 
ATOM     13  O   UNL     1       1.717  -0.449   1.422  0.00  0.00    -0.292 OA
ATOM     14  C   UNL     1       3.718   0.713   1.002  0.00  0.00    +0.080 C 
ATOM     15  C   UNL     1       4.238   1.432  -0.247  0.00  0.00    +0.014 C 
ATOM     16  C   UNL     1       3.456   2.736  -0.418  0.00  0.00    +0.051 C 
ATOM     17  H   UNL     1       1.542   4.281  -1.498  0.00  0.00    +0.152 HD
ENDROOT
BRANCH   1  23
ATOM     18  C   UNL     1      -0.659   2.900   1.604  0.00  0.00    +0.008 A 
ATOM     19  C   UNL     1      -1.289   3.341   2.752  0.00  0.00    +0.046 A 
ATOM     20  C   UNL     1      -1.970   2.440   3.558  0.00  0.00    +0.121 A 
ATOM     21  C   UNL     1      -2.022   1.099   3.204  0.00  0.00    +0.046 A 
ATOM     22  C   UNL     1      -1.395   0.665   2.052  0.00  0.00    +0.008 A 
ATOM     23  C   UNL     1      -0.717   1.565   1.251  0.00  0.00    -0.035 A 
BRANCH  20  24
ATOM     24  O   UNL     1      -2.585   2.870   4.690  0.00  0.00    -0.489 OA
BRANCH  24  25
ATOM     25  C   UNL     1      -3.162   1.871   5.534  0.00  0.00    +0.173 C 
ATOM     26  C   UNL     1      -4.600   1.556   5.074  0.00  0.00    +0.044 C 
ATOM     27  C   UNL     1      -5.379   1.325   6.393  0.00  0.00    +0.004 C 
ATOM     28  C   UNL     1      -4.765   2.383   7.343  0.00  0.00    +0.004 C 
ATOM     29  C   UNL     1      -3.267   2.396   6.977  0.00  0.00    +0.044 C 
ENDBRANCH  24  25
ENDBRANCH  20  24
ENDBRANCH   1  23
TORSDOF 3
