REMARK  Name = ZINC36587025
REMARK  18 active torsions:
REMARK  status: ('A' for Active; 'I' for Inactive)
REMARK    1  A    between atoms: C_1  and  C_2
REMARK    2  A    between atoms: C_2  and  C_3
REMARK    3  A    between atoms: C_2  and  C_4
REMARK    4  A    between atoms: C_2  and  C_5
REMARK    5  A    between atoms: C_5  and  C_6
REMARK    6  A    between atoms: C_6  and  C_7
REMARK    7  A    between atoms: C_6  and  C_8
REMARK    8  A    between atoms: C_6  and  N_9
REMARK    9  A    between atoms: C_10  and  C_12
REMARK   10  A    between atoms: C_12  and  C_14
REMARK   11  A    between atoms: C_12  and  N_22
REMARK   12  A    between atoms: N_22  and  C_33
REMARK   13  A    between atoms: C_23  and  C_25
REMARK   14  A    between atoms: C_29  and  O_32
REMARK   15  A    between atoms: C_30  and  O_31
REMARK   16  A    between atoms: C_33  and  C_34
REMARK   17  A    between atoms: C_33  and  C_35
REMARK   18  A    between atoms: C_33  and  C_36
REMARK                            x       y       z     vdW  Elec       q    Type
REMARK                         _______ _______ _______ _____ _____    ______ ____
ROOT
ATOM      1  C   UNL     1       7.129  -0.273  -2.541  0.00  0.00    +0.196 C 
ENDROOT
BRANCH   1   2
ATOM      2  C   UNL     1       7.866   1.026  -2.740  0.00  0.00    +0.018 A 
ATOM      3  C   UNL     1       8.984   1.312  -1.977  0.00  0.00    +0.048 A 
ATOM      4  C   UNL     1       9.660   2.505  -2.160  0.00  0.00    +0.020 A 
ATOM      5  C   UNL     1       9.218   3.412  -3.105  0.00  0.00    +0.003 A 
ATOM      6  C   UNL     1       8.101   3.127  -3.868  0.00  0.00    +0.020 A 
ATOM      7  C   UNL     1       7.428   1.931  -3.690  0.00  0.00    +0.048 A 
ATOM      8 CL   UNL     1       6.030   1.570  -4.654  0.00  0.00    -0.083 Cl
ATOM      9 CL   UNL     1       9.538   0.174  -0.789  0.00  0.00    -0.083 Cl
ENDBRANCH   1   2
BRANCH   1  11
ATOM     10  N   UNL     1       5.490   0.589  -0.902  0.00  0.00    -0.308 N 
ATOM     11  C   UNL     1       6.481  -0.280  -1.180  0.00  0.00    +0.239 C 
ATOM     12  O   UNL     1       6.852  -1.068  -0.336  0.00  0.00    -0.273 OA
ATOM     13  H   UNL     1       5.193   1.219  -1.577  0.00  0.00    +0.149 HD
BRANCH  10  14
ATOM     14  C   UNL     1       4.860   0.583   0.421  0.00  0.00    +0.030 C 
ATOM     15  C   UNL     1       5.909   0.905   1.487  0.00  0.00    +0.031 C 
ATOM     16  C   UNL     1       4.263  -0.799   0.694  0.00  0.00    +0.031 C 
BRANCH  14  17
ATOM     17  C   UNL     1       3.750   1.635   0.462  0.00  0.00    +0.031 C 
BRANCH  17  19
ATOM     18  C   UNL     1       4.375   3.106  -1.458  0.00  0.00    +0.010 C 
ATOM     19  C   UNL     1       4.324   2.997   0.067  0.00  0.00    -0.036 C 
ATOM     20  C   UNL     1       5.737   3.140   0.636  0.00  0.00    +0.010 C 
ATOM     21  C   UNL     1       3.434   4.108   0.628  0.00  0.00    +0.010 C 
ENDBRANCH  17  19
ENDBRANCH  14  17
ENDBRANCH  10  14
ENDBRANCH   1  11
BRANCH   1  22
ATOM     22  N   UNL     1       8.073  -1.389  -2.638  0.00  0.00    -0.277 N 
ATOM     23  C   UNL     1       9.393  -1.147  -2.764  0.00  0.00    +0.252 C 
ATOM     24  O   UNL     1       9.803  -0.002  -2.765  0.00  0.00    -0.270 OA
BRANCH  23  25
ATOM     25  C   UNL     1      10.340  -2.270  -2.900  0.00  0.00    +0.082 A 
ATOM     26  C   UNL     1       9.910  -3.582  -2.680  0.00  0.00    +0.017 A 
ATOM     27  C   UNL     1      10.796  -4.628  -2.808  0.00  0.00    +0.005 A 
ATOM     28  C   UNL     1      12.116  -4.389  -3.154  0.00  0.00    +0.049 A 
ATOM     29  C   UNL     1      12.558  -3.095  -3.374  0.00  0.00    +0.159 A 
ATOM     30  C   UNL     1      11.672  -2.028  -3.254  0.00  0.00    +0.171 A 
BRANCH  30  31
ATOM     31  O   UNL     1      12.100  -0.759  -3.475  0.00  0.00    -0.503 OA
ATOM     32  H   UNL     1      12.437  -0.314  -2.686  0.00  0.00    +0.292 HD
ENDBRANCH  30  31
BRANCH  29  33
ATOM     33  O   UNL     1      13.855  -2.868  -3.714  0.00  0.00    -0.503 OA
ATOM     34  H   UNL     1      14.020  -2.876  -4.666  0.00  0.00    +0.292 HD
ENDBRANCH  29  33
ENDBRANCH  23  25
BRANCH  22  35
ATOM     35  C   UNL     1       7.583  -2.769  -2.597  0.00  0.00    +0.030 C 
ATOM     36  C   UNL     1       6.053  -2.767  -2.605  0.00  0.00    +0.031 C 
ATOM     37  C   UNL     1       8.098  -3.530  -3.821  0.00  0.00    +0.031 C 
ATOM     38  C   UNL     1       8.085  -3.452  -1.324  0.00  0.00    +0.031 C 
ENDBRANCH  22  35
ENDBRANCH   1  22
TORSDOF 10
