REMARK  Name = ZINC01939550
REMARK  13 active torsions:
REMARK  status: ('A' for Active; 'I' for Inactive)
REMARK    1  A    between atoms: C_1  and  C_2
REMARK    2  A    between atoms: C_2  and  N_65
REMARK    3  A    between atoms: C_3  and  C_4
REMARK    4  A    between atoms: C_3  and  N_65
REMARK    5  A    between atoms: C_10  and  C_11
REMARK    6  A    between atoms: C_10  and  N_65
REMARK    7  A    between atoms: C_12  and  O_36
REMARK    8  A    between atoms: C_18  and  C_32
REMARK    9  A    between atoms: C_19  and  O_22
REMARK   10  A    between atoms: O_22  and  C_23
REMARK   11  A    between atoms: C_28  and  C_29
REMARK   12  A    between atoms: C_29  and  C_30
REMARK   13  A    between atoms: C_29  and  C_31
REMARK                            x       y       z     vdW  Elec       q    Type
REMARK                         _______ _______ _______ _____ _____    ______ ____
ROOT
ATOM      1  C   UNL     1      -0.543   7.537  -2.958  0.00  0.00    +0.020 A 
ATOM      2  C   UNL     1      -1.841   7.577  -3.439  0.00  0.00    +0.122 A 
ATOM      3  C   UNL     1      -2.093   7.901  -4.771  0.00  0.00    +0.046 A 
ATOM      4  C   UNL     1      -1.062   8.185  -5.620  0.00  0.00    +0.019 A 
ATOM      5  C   UNL     1       0.251   8.149  -5.150  0.00  0.00    +0.068 A 
ATOM      6  C   UNL     1       0.515   7.828  -3.806  0.00  0.00    +0.144 A 
ATOM      7  O   UNL     1       1.789   7.792  -3.364  0.00  0.00    -0.447 OA
ATOM      8  C   UNL     1       2.832   8.063  -4.159  0.00  0.00    +0.254 A 
ATOM      9  C   UNL     1       2.693   8.387  -5.460  0.00  0.00    +0.222 A 
ATOM     10  C   UNL     1       1.391   8.449  -6.033  0.00  0.00    +0.235 A 
ATOM     11  O   UNL     1       1.227   8.738  -7.207  0.00  0.00    -0.283 OA
ENDROOT
BRANCH   8  12
ATOM     12  C   UNL     1       4.220   8.004  -3.574  0.00  0.00    +0.454 C 
ATOM     13  F   UNL     1       4.567   9.260  -3.067  0.00  0.00    -0.163 F 
ATOM     14  F   UNL     1       4.251   7.059  -2.542  0.00  0.00    -0.163 F 
ATOM     15  F   UNL     1       5.131   7.635  -4.570  0.00  0.00    -0.163 F 
ENDBRANCH   8  12
BRANCH   2  16
ATOM     16  O   UNL     1      -2.876   7.296  -2.607  0.00  0.00    -0.506 OA
ATOM     17  H   UNL     1      -3.231   8.069  -2.147  0.00  0.00    +0.292 HD
ENDBRANCH   2  16
BRANCH   1  18
ATOM     18  C   UNL     1      -0.282   7.184  -1.516  0.00  0.00    -0.035 C 
BRANCH  18  19
ATOM     19  N   UNL     1      -0.133   5.718  -1.403  0.00  0.00    +0.385 N 
ATOM     20  H   UNL     1      -0.939   5.266  -1.851  0.00  0.00    -0.081 HD
BRANCH  19  22
ATOM     21  C   UNL     1       1.028   3.772  -2.320  0.00  0.00    -0.017 C 
ATOM     22  C   UNL     1       1.103   5.282  -2.086  0.00  0.00    -0.081 C 
ENDBRANCH  19  22
BRANCH  19  23
ATOM     23  C   UNL     1      -0.090   5.323   0.021  0.00  0.00    -0.043 C 
BRANCH  23  24
ATOM     24  C   UNL     1      -1.494   5.346   0.570  0.00  0.00    -0.064 A 
ATOM     25  C   UNL     1      -2.325   4.256   0.389  0.00  0.00    +0.002 A 
ATOM     26  C   UNL     1      -3.611   4.277   0.893  0.00  0.00    +0.000 A 
ATOM     27  C   UNL     1      -4.067   5.387   1.578  0.00  0.00    +0.000 A 
ATOM     28  C   UNL     1      -3.238   6.479   1.755  0.00  0.00    +0.000 A 
ATOM     29  C   UNL     1      -1.950   6.456   1.255  0.00  0.00    +0.002 A 
ENDBRANCH  23  24
ENDBRANCH  19  23
ENDBRANCH  18  19
ENDBRANCH   1  18
BRANCH   9  30
ATOM     30  O   UNL     1       3.791   8.652  -6.221  0.00  0.00    -0.448 OA
BRANCH  30  31
ATOM     31  C   UNL     1       4.230   9.937  -6.281  0.00  0.00    +0.132 A 
ATOM     32  C   UNL     1       3.561  10.933  -5.585  0.00  0.00    +0.046 A 
ATOM     33  C   UNL     1       4.012  12.237  -5.644  0.00  0.00    +0.004 A 
ATOM     34  C   UNL     1       5.123  12.552  -6.405  0.00  0.00    +0.001 A 
ATOM     35  C   UNL     1       5.788  11.562  -7.104  0.00  0.00    +0.007 A 
ATOM     36  C   UNL     1       5.344  10.255  -7.044  0.00  0.00    -0.003 A 
BRANCH  36  37
ATOM     37  C   UNL     1       6.070   9.176  -7.806  0.00  0.00    +0.016 C 
ATOM     38  C   UNL     1       6.048   9.505  -9.300  0.00  0.00    +0.012 C 
ATOM     39  C   UNL     1       7.519   9.097  -7.322  0.00  0.00    +0.012 C 
ENDBRANCH  36  37
ENDBRANCH  30  31
ENDBRANCH   9  30
TORSDOF 10
