REMARK  Name = ZINC15034121
REMARK  11 active torsions:
REMARK  status: ('A' for Active; 'I' for Inactive)
REMARK    1  A    between atoms: C_3  and  N_14
REMARK    2  A    between atoms: C_4  and  N_11
REMARK    3  A    between atoms: C_6  and  C_7
REMARK    4  A    between atoms: N_14  and  C_15
REMARK    5  A    between atoms: C_15  and  C_16
REMARK    6  A    between atoms: C_16  and  N_17
REMARK    7  A    between atoms: C_18  and  C_20
REMARK    8  A    between atoms: C_20  and  C_21
REMARK    9  A    between atoms: C_21  and  N_22
REMARK   10  A    between atoms: N_22  and  S_23
REMARK   11  A    between atoms: S_23  and  C_26
REMARK                            x       y       z     vdW  Elec       q    Type
REMARK                         _______ _______ _______ _____ _____    ______ ____
ROOT
ATOM      1  N   UNL     1       4.849   1.307   1.865  0.00  0.00    -0.314 N 
ATOM      2  C   UNL     1       3.698   2.006   1.819  0.00  0.00    +0.214 C 
ATOM      3  O   UNL     1       3.720   3.193   1.570  0.00  0.00    -0.276 OA
ATOM      4  H   UNL     1       4.832   0.357   2.065  0.00  0.00    +0.149 HD
ENDROOT
BRANCH   1   5
ATOM      5  C   UNL     1       6.126   1.979   1.614  0.00  0.00    +0.123 C 
BRANCH   5   6
ATOM      6  C   UNL     1       7.267   0.966   1.727  0.00  0.00    +0.120 C 
BRANCH   6   7
ATOM      7  N   UNL     1       8.544   1.639   1.476  0.00  0.00    -0.341 N 
ATOM      8  H   UNL     1       8.561   2.588   1.276  0.00  0.00    +0.146 HD
BRANCH   7  11
ATOM      9  C   UNL     1      10.908  -1.130   1.975  0.00  0.00    +0.014 A 
ATOM     10  C   UNL     1       9.727  -0.416   1.928  0.00  0.00    +0.026 A 
ATOM     11  C   UNL     1       9.736   0.913   1.524  0.00  0.00    +0.058 A 
ATOM     12  C   UNL     1      10.934   1.518   1.162  0.00  0.00    +0.147 A 
ATOM     13  C   UNL     1      12.112   0.799   1.216  0.00  0.00    +0.047 A 
ATOM     14  C   UNL     1      12.099  -0.524   1.619  0.00  0.00    +0.057 A 
BRANCH  14  15
ATOM     15  C   UNL     1      13.386  -1.306   1.671  0.00  0.00    +0.417 C 
ATOM     16  F   UNL     1      13.122  -2.610   2.104  0.00  0.00    -0.166 F 
ATOM     17  F   UNL     1      13.959  -1.346   0.395  0.00  0.00    -0.166 F 
ATOM     18  F   UNL     1      14.271  -0.690   2.561  0.00  0.00    -0.166 F 
ENDBRANCH  14  15
BRANCH  12  19
ATOM     19  N   UNL     1      10.948   2.932   0.725  0.00  0.00    +0.058 N 
ATOM     20  O   UNL     1      10.037   3.367   0.043  0.00  0.00    -0.126 OA
ATOM     21  O   UNL     1      11.870   3.659   1.047  0.00  0.00    -0.126 OA
ENDBRANCH  12  19
ENDBRANCH   7  11
ENDBRANCH   6   7
ENDBRANCH   5   6
ENDBRANCH   1   5
BRANCH   2  22
ATOM     22  C   UNL     1       2.384   1.315   2.078  0.00  0.00    +0.112 C 
BRANCH  22  23
ATOM     23  C   UNL     1       1.244   2.328   1.965  0.00  0.00    +0.115 C 
BRANCH  23  24
ATOM     24  N   UNL     1      -0.034   1.655   2.216  0.00  0.00    -0.189 NA
ATOM     25  H   UNL     1      -0.083   0.687   2.200  0.00  0.00    +0.148 HD
BRANCH  24  26
ATOM     26  S   UNL     1      -1.394   2.549   2.521  0.00  0.00    +0.059 S 
ATOM     27  O   UNL     1      -2.459   1.623   2.688  0.00  0.00    -0.153 OA
ATOM     28  O   UNL     1      -1.043   3.494   3.522  0.00  0.00    -0.153 OA
BRANCH  26  29
ATOM     29  C   UNL     1      -1.751   3.470   1.062  0.00  0.00    +0.108 A 
ATOM     30  C   UNL     1      -1.214   4.732   0.894  0.00  0.00    +0.031 A 
ATOM     31  C   UNL     1      -1.488   5.454  -0.253  0.00  0.00    +0.043 A 
ATOM     32  C   UNL     1      -2.309   4.918  -1.229  0.00  0.00    +0.159 A 
ATOM     33  C   UNL     1      -2.852   3.653  -1.058  0.00  0.00    +0.160 A 
ATOM     34  C   UNL     1      -2.571   2.931   0.089  0.00  0.00    +0.069 A 
ATOM     35  F   UNL     1      -3.654   3.127  -2.010  0.00  0.00    -0.202 F 
ATOM     36  F   UNL     1      -2.581   5.625  -2.347  0.00  0.00    -0.202 F 
ENDBRANCH  26  29
ENDBRANCH  24  26
ENDBRANCH  23  24
ENDBRANCH  22  23
ENDBRANCH   2  22
TORSDOF 11
