REMARK  Name = ZINC14459624
REMARK  8 active torsions:
REMARK  status: ('A' for Active; 'I' for Inactive)
REMARK    1  A    between atoms: C_1  and  C_2
REMARK    2  A    between atoms: C_2  and  O_3
REMARK    3  A    between atoms: O_3  and  C_4
REMARK    4  A    between atoms: C_4  and  C_6
REMARK    5  A    between atoms: C_19  and  C_22
REMARK    6  A    between atoms: C_26  and  O_29
REMARK    7  A    between atoms: C_27  and  O_28
REMARK    8  A    between atoms: O_29  and  C_30
REMARK                            x       y       z     vdW  Elec       q    Type
REMARK                         _______ _______ _______ _____ _____    ______ ____
ROOT
ATOM      1  C   UNL     1       1.446  -3.951  -1.418  0.00  0.00    +0.059 A 
ATOM      2  C   UNL     1       2.777  -4.037  -1.842  0.00  0.00    +0.017 A 
ATOM      3  C   UNL     1       3.620  -2.978  -1.668  0.00  0.00    +0.024 A 
ATOM      4  C   UNL     1       3.172  -1.803  -1.068  0.00  0.00    +0.031 A 
ATOM      5  C   UNL     1       1.841  -1.718  -0.630  0.00  0.00    -0.019 A 
ATOM      6  C   UNL     1       0.988  -2.779  -0.810  0.00  0.00    +0.021 A 
ATOM      7  C   UNL     1       1.416  -0.459   0.020  0.00  0.00    +0.049 C 
ATOM      8  C   UNL     1       0.002  -0.004   0.002  0.00  0.00    -0.023 C 
ATOM      9  C   UNL     1      -0.016   1.323   0.009  0.00  0.00    -0.030 C 
ATOM     10  C   UNL     1       1.415   1.866  -0.001  0.00  0.00    +0.033 C 
ATOM     11  C   UNL     1       2.177   0.713  -0.669  0.00  0.00    +0.029 C 
ATOM     12  C   UNL     1       3.634   0.530  -0.284  0.00  0.00    +0.109 C 
ATOM     13  N   UNL     1       4.057  -0.737  -0.919  0.00  0.00    -0.336 N 
ATOM     14  H   UNL     1       4.968  -0.827  -1.239  0.00  0.00    +0.147 HD
ENDROOT
BRANCH  12  15
ATOM     15  C   UNL     1       4.459   1.677  -0.809  0.00  0.00    +0.018 A 
ATOM     16  C   UNL     1       5.119   1.557  -2.018  0.00  0.00    +0.009 A 
ATOM     17  C   UNL     1       5.872   2.608  -2.505  0.00  0.00    +0.004 A 
ATOM     18  C   UNL     1       5.978   3.781  -1.780  0.00  0.00    +0.049 A 
ATOM     19  C   UNL     1       5.323   3.906  -0.565  0.00  0.00    +0.162 A 
ATOM     20  C   UNL     1       4.561   2.849  -0.078  0.00  0.00    +0.163 A 
BRANCH  20  21
ATOM     21  O   UNL     1       3.916   2.966   1.114  0.00  0.00    -0.503 OA
ATOM     22  H   UNL     1       4.440   2.679   1.875  0.00  0.00    +0.292 HD
ENDBRANCH  20  21
BRANCH  19  23
ATOM     23  O   UNL     1       5.427   5.058   0.149  0.00  0.00    -0.491 OA
ATOM     24  C   UNL     1       6.226   6.101  -0.413  0.00  0.00    +0.277 C 
ENDBRANCH  19  23
ENDBRANCH  12  15
BRANCH   1  25
ATOM     25  C   UNL     1       0.533  -5.091  -1.612  0.00  0.00    +0.339 C 
ATOM     26  O   UNL     1      -0.622  -5.014  -1.243  0.00  0.00    -0.245 OA
BRANCH  25  27
ATOM     27  O   UNL     1       0.979  -6.220  -2.198  0.00  0.00    -0.461 OA
BRANCH  27  29
ATOM     28  C   UNL     1       0.707  -8.490  -3.036  0.00  0.00    +0.048 C 
ATOM     29  C   UNL     1       0.024  -7.302  -2.356  0.00  0.00    +0.229 C 
ENDBRANCH  27  29
ENDBRANCH  25  27
ENDBRANCH   1  25
TORSDOF 6
