REMARK  Name = ZINC12401399
REMARK  9 active torsions:
REMARK  status: ('A' for Active; 'I' for Inactive)
REMARK    1  A    between atoms: C_1  and  C_2
REMARK    2  A    between atoms: C_2  and  C_3
REMARK    3  A    between atoms: C_2  and  C_4
REMARK    4  A    between atoms: C_4  and  C_5
REMARK    5  A    between atoms: C_13  and  O_28
REMARK    6  A    between atoms: C_14  and  O_26
REMARK    7  A    between atoms: N_21  and  N_22
REMARK    8  A    between atoms: O_26  and  C_27
REMARK    9  A    between atoms: O_28  and  C_29
REMARK                            x       y       z     vdW  Elec       q    Type
REMARK                         _______ _______ _______ _____ _____    ______ ____
ROOT
ATOM      1  C   UNL     1      -2.273  -0.125  -1.386  0.00  0.00    +0.049 C 
ATOM      2  C   UNL     1      -3.788  -0.344  -1.477  0.00  0.00    +0.094 C 
ATOM      3  N   UNL     1      -4.066  -1.780  -1.613  0.00  0.00    -0.294 NA
ATOM      4  C   UNL     1      -5.506  -2.046  -1.483  0.00  0.00    +0.089 C 
ATOM      5  C   UNL     1      -5.710  -3.545  -1.260  0.00  0.00    +0.051 C 
ATOM      6  C   UNL     1      -4.971  -4.323  -2.318  0.00  0.00    -0.038 A 
ATOM      7  C   UNL     1      -5.323  -5.648  -2.530  0.00  0.00    +0.053 A 
ATOM      8  C   UNL     1      -4.670  -6.401  -3.489  0.00  0.00    +0.162 A 
ATOM      9  C   UNL     1      -3.654  -5.822  -4.244  0.00  0.00    +0.162 A 
ATOM     10  C   UNL     1      -3.308  -4.500  -4.030  0.00  0.00    +0.054 A 
ATOM     11  C   UNL     1      -3.966  -3.748  -3.066  0.00  0.00    -0.023 A 
ATOM     12  C   UNL     1      -3.553  -2.312  -2.877  0.00  0.00    +0.093 C 
ATOM     13  C   UNL     1      -2.021  -2.225  -2.885  0.00  0.00    +0.076 C 
ATOM     14  C   UNL     1      -1.625  -0.795  -2.580  0.00  0.00    +0.043 C 
ATOM     15  N   UNL     1      -0.773  -0.174  -3.305  0.00  0.00    -0.188 NA
ENDROOT
BRANCH  15  16
ATOM     16  N   UNL     1      -0.089  -0.855  -4.321  0.00  0.00    -0.191 N 
ATOM     17  C   UNL     1       0.732  -0.180  -5.150  0.00  0.00    +0.317 C 
ATOM     18  O   UNL     1       1.325  -0.771  -6.032  0.00  0.00    -0.251 OA
ATOM     19  N   UNL     1       0.895   1.149  -5.002  0.00  0.00    -0.312 N 
ATOM     20  H   UNL     1      -0.207  -1.812  -4.428  0.00  0.00    +0.179 HD
ATOM     21  H   UNL     1       0.422   1.621  -4.298  0.00  0.00    +0.147 HD
ATOM     22  H   UNL     1       1.486   1.635  -5.598  0.00  0.00    +0.147 HD
ENDBRANCH  15  16
BRANCH   9  23
ATOM     23  O   UNL     1      -3.004  -6.553  -5.189  0.00  0.00    -0.491 OA
ATOM     24  C   UNL     1      -1.973  -5.892  -5.925  0.00  0.00    +0.277 C 
ENDBRANCH   9  23
BRANCH   8  25
ATOM     25  O   UNL     1      -5.018  -7.700  -3.693  0.00  0.00    -0.491 OA
ATOM     26  C   UNL     1      -6.069  -8.225  -2.880  0.00  0.00    +0.277 C 
ENDBRANCH   8  25
BRANCH   1  27
ATOM     27  C   UNL     1      -1.739  -0.745  -0.093  0.00  0.00    +0.013 C 
BRANCH  27  29
ATOM     28  C   UNL     1      -0.060   1.080   0.212  0.00  0.00    +0.007 C 
ATOM     29  C   UNL     1      -0.248  -0.429   0.045  0.00  0.00    -0.017 C 
ATOM     30  C   UNL     1       0.314  -1.152   1.271  0.00  0.00    +0.007 C 
ENDBRANCH  27  29
ENDBRANCH   1  27
TORSDOF 5
