REMARK  Name = ZINC54596893
REMARK  7 active torsions:
REMARK  status: ('A' for Active; 'I' for Inactive)
REMARK    1  A    between atoms: C_1  and  C_2
REMARK    2  A    between atoms: C_2  and  C_3
REMARK    3  A    between atoms: C_2  and  C_4
REMARK    4  A    between atoms: C_2  and  N_5
REMARK    5  A    between atoms: N_5  and  C_6
REMARK    6  A    between atoms: C_6  and  C_7
REMARK    7  A    between atoms: C_10  and  C_12
REMARK                            x       y       z     vdW  Elec       q    Type
REMARK                         _______ _______ _______ _____ _____    ______ ____
ROOT
ATOM      1  C   UNL     1       2.784  -0.463  -2.476  0.00  0.00    -0.020 C 
ATOM      2  C   UNL     1       3.983  -1.394  -2.287  0.00  0.00    +0.010 C 
ATOM      3  C   UNL     1       4.201   0.055  -2.731  0.00  0.00    +0.021 C 
ENDROOT
BRANCH   3   4
ATOM      4  C   UNL     1       4.784   1.012  -1.724  0.00  0.00    -0.039 A 
ATOM      5  C   UNL     1       5.163   2.282  -2.117  0.00  0.00    +0.053 A 
ATOM      6  C   UNL     1       5.699   3.165  -1.192  0.00  0.00    +0.163 A 
ATOM      7  C   UNL     1       5.854   2.770   0.132  0.00  0.00    +0.176 A 
ATOM      8  C   UNL     1       5.474   1.493   0.520  0.00  0.00    +0.063 A 
ATOM      9  C   UNL     1       4.935   0.619  -0.407  0.00  0.00    +0.023 A 
ATOM     10 BR   UNL     1       5.687   0.950   2.319  0.00  0.00    -0.046 Br
ATOM     11  O   UNL     1       6.372   3.623   1.057  0.00  0.00    -0.484 OA
ATOM     12  C   UNL     1       7.085   4.760   0.557  0.00  0.00    +0.270 C 
ATOM     13  C   UNL     1       6.254   5.391  -0.568  0.00  0.00    +0.270 C 
ATOM     14  O   UNL     1       6.071   4.410  -1.595  0.00  0.00    -0.485 OA
ENDBRANCH   3   4
BRANCH   1  15
ATOM     15  C   UNL     1       2.068   0.031  -1.217  0.00  0.00    -0.078 C 
BRANCH  15  16
ATOM     16  N   UNL     1       0.690  -0.478  -1.207  0.00  0.00    +0.382 N 
ATOM     17  H   UNL     1       0.703  -1.487  -1.212  0.00  0.00    -0.085 HD
ATOM     18  H   UNL     1       0.202  -0.144  -2.024  0.00  0.00    -0.085 HD
BRANCH  16  20
ATOM     19  C   UNL     1      -0.019   1.526   0.010  0.00  0.00    -0.011 C 
ATOM     20  C   UNL     1       0.002  -0.004   0.002  0.00  0.00    -0.077 C 
ATOM     21  C   UNL     1       0.742  -0.511   1.242  0.00  0.00    -0.011 C 
ATOM     22  C   UNL     1      -1.433  -0.534   0.013  0.00  0.00    -0.011 C 
ENDBRANCH  16  20
ENDBRANCH  15  16
ENDBRANCH   1  15
TORSDOF 4
