REMARK  Name = ZINC62437360
REMARK  5 active torsions:
REMARK  status: ('A' for Active; 'I' for Inactive)
REMARK    1  A    between atoms: C_4  and  C_7
REMARK    2  A    between atoms: C_7  and  N_8
REMARK    3  A    between atoms: C_9  and  C_11
REMARK    4  A    between atoms: C_17  and  C_19
REMARK    5  A    between atoms: C_19  and  C_20
REMARK                            x       y       z     vdW  Elec       q    Type
REMARK                         _______ _______ _______ _____ _____    ______ ____
ROOT
ATOM      1  C   UNL     1       5.764  -1.853   2.984  0.00  0.00    +0.162 C 
ATOM      2  C   UNL     1       4.735  -2.741   3.714  0.00  0.00    +0.033 C 
ATOM      3  C   UNL     1       5.345  -4.161   3.582  0.00  0.00    +0.021 C 
ATOM      4  C   UNL     1       6.861  -3.860   3.688  0.00  0.00    +0.108 C 
ATOM      5  N   UNL     1       7.043  -2.577   2.977  0.00  0.00    -0.290 N 
ATOM      6  C   UNL     1       8.189  -2.143   2.415  0.00  0.00    +0.221 C 
ATOM      7  O   UNL     1       8.220  -1.069   1.854  0.00  0.00    -0.275 OA
ENDROOT
BRANCH   1   9
ATOM      8  N   UNL     1       4.152  -0.952   1.338  0.00  0.00    -0.310 N 
ATOM      9  C   UNL     1       5.311  -1.601   1.569  0.00  0.00    +0.234 C 
ATOM     10  O   UNL     1       5.989  -1.981   0.638  0.00  0.00    -0.274 OA
ATOM     11  H   UNL     1       3.610  -0.648   2.082  0.00  0.00    +0.149 HD
BRANCH   8  12
ATOM     12  C   UNL     1       3.711  -0.707  -0.038  0.00  0.00    +0.139 C 
BRANCH  12  16
ATOM     13  C   UNL     1      -0.017   1.378   0.010  0.00  0.00    +0.000 A 
ATOM     14  C   UNL     1       1.171   2.086   0.002  0.00  0.00    +0.000 A 
ATOM     15  C   UNL     1       2.377   1.411  -0.013  0.00  0.00    +0.005 A 
ATOM     16  C   UNL     1       2.396   0.029  -0.020  0.00  0.00    -0.030 A 
ATOM     17  C   UNL     1       1.208  -0.679  -0.012  0.00  0.00    +0.005 A 
ATOM     18  C   UNL     1       0.002  -0.004   0.002  0.00  0.00    +0.000 A 
ENDBRANCH  12  16
ENDBRANCH   8  12
ENDBRANCH   1   9
BRANCH   6  19
ATOM     19  C   UNL     1       9.431  -2.993   2.484  0.00  0.00    +0.133 C 
BRANCH  19  20
ATOM     20  C   UNL     1      10.564  -2.286   1.786  0.00  0.00    -0.014 A 
ATOM     21  C   UNL     1      10.944  -2.453   0.509  0.00  0.00    +0.087 A 
ATOM     22  N   UNL     1      12.008  -1.641   0.229  0.00  0.00    -0.360 N 
ATOM     23  H   UNL     1      12.457  -1.587  -0.630  0.00  0.00    +0.165 HD
ATOM     24  C   UNL     1      12.349  -0.912   1.347  0.00  0.00    +0.047 A 
ATOM     25  C   UNL     1      11.454  -1.280   2.369  0.00  0.00    +0.005 A 
ATOM     26  C   UNL     1      11.557  -0.690   3.630  0.00  0.00    +0.030 A 
ATOM     27  C   UNL     1      12.534   0.253   3.864  0.00  0.00    +0.042 A 
ATOM     28  C   UNL     1      13.414   0.617   2.853  0.00  0.00    +0.022 A 
ATOM     29  C   UNL     1      13.331   0.038   1.606  0.00  0.00    +0.027 A 
ATOM     30 CL   UNL     1      12.666   0.989   5.430  0.00  0.00    -0.084 Cl
ENDBRANCH  19  20
ENDBRANCH   6  19
TORSDOF 5
