REMARK  Name = ZINC16429510
REMARK  6 active torsions:
REMARK  status: ('A' for Active; 'I' for Inactive)
REMARK    1  A    between atoms: C_6  and  C_7
REMARK    2  A    between atoms: C_10  and  C_12
REMARK    3  A    between atoms: N_14  and  C_15
REMARK    4  A    between atoms: C_15  and  N_17
REMARK    5  A    between atoms: N_17  and  C_18
REMARK    6  A    between atoms: C_22  and  N_24
REMARK                            x       y       z     vdW  Elec       q    Type
REMARK                         _______ _______ _______ _____ _____    ______ ____
ROOT
ATOM      1  C   UNL     1      -1.217   2.306   0.824  0.00  0.00    +0.285 C 
ATOM      2  O   UNL     1      -2.300   1.867   1.163  0.00  0.00    -0.266 OA
ATOM      3  N   UNL     1      -1.101   3.592   0.439  0.00  0.00    -0.261 N 
ATOM      4  H   UNL     1      -0.238   3.942   0.169  0.00  0.00    +0.157 HD
ENDROOT
BRANCH   1   8
ATOM      5  C   UNL     1       2.033   0.738   0.611  0.00  0.00    +0.136 A 
ATOM      6  C   UNL     1       1.304  -0.327   1.060  0.00  0.00    +0.050 A 
ATOM      7  C   UNL     1      -0.016   0.109   1.205  0.00  0.00    +0.055 A 
ATOM      8  C   UNL     1      -0.039   1.437   0.835  0.00  0.00    +0.190 A 
ATOM      9  O   UNL     1       1.214   1.795   0.480  0.00  0.00    -0.450 OA
BRANCH   5  15
ATOM     10  C   UNL     1       4.226  -0.438   0.502  0.00  0.00    +0.012 A 
ATOM     11  C   UNL     1       5.576  -0.440   0.224  0.00  0.00    +0.016 A 
ATOM     12  C   UNL     1       6.195   0.713  -0.228  0.00  0.00    +0.018 A 
ATOM     13  C   UNL     1       5.463   1.875  -0.407  0.00  0.00    +0.016 A 
ATOM     14  C   UNL     1       4.111   1.889  -0.137  0.00  0.00    +0.012 A 
ATOM     15  C   UNL     1       3.480   0.729   0.319  0.00  0.00    +0.017 A 
ATOM     16 BR   UNL     1       8.049   0.703  -0.600  0.00  0.00    -0.050 Br
ENDBRANCH   5  15
ENDBRANCH   1   8
BRANCH   3  17
ATOM     17  C   UNL     1      -2.186   4.393   0.429  0.00  0.00    +0.141 C 
ATOM     18  S   UNL     1      -3.710   3.775   0.905  0.00  0.00    -0.018 S 
BRANCH  17  19
ATOM     19  N   UNL     1      -2.071   5.679   0.043  0.00  0.00    -0.297 N 
ATOM     20  H   UNL     1      -1.198   6.046  -0.168  0.00  0.00    +0.154 HD
BRANCH  19  21
ATOM     21  C   UNL     1      -3.211   6.486  -0.052  0.00  0.00    +0.035 A 
ATOM     22  C   UNL     1      -3.393   7.303  -1.160  0.00  0.00    +0.026 A 
ATOM     23  C   UNL     1      -4.521   8.094  -1.255  0.00  0.00    +0.042 A 
ATOM     24  C   UNL     1      -5.465   8.081  -0.242  0.00  0.00    +0.154 A 
ATOM     25  C   UNL     1      -5.282   7.271   0.866  0.00  0.00    +0.163 A 
ATOM     26  C   UNL     1      -4.158   6.474   0.963  0.00  0.00    +0.059 A 
ATOM     27  F   UNL     1      -6.566   8.859  -0.334  0.00  0.00    -0.203 F 
BRANCH  25  28
ATOM     28  N   UNL     1      -6.293   7.258   1.948  0.00  0.00    +0.059 N 
ATOM     29  O   UNL     1      -6.133   6.545   2.923  0.00  0.00    -0.126 OA
ATOM     30  O   UNL     1      -7.284   7.960   1.863  0.00  0.00    -0.126 OA
ENDBRANCH  25  28
ENDBRANCH  19  21
ENDBRANCH  17  19
ENDBRANCH   3  17
TORSDOF 6
