REMARK  Name = ZINC19760499
REMARK  7 active torsions:
REMARK  status: ('A' for Active; 'I' for Inactive)
REMARK    1  A    between atoms: C_1  and  C_2
REMARK    2  A    between atoms: C_3  and  C_28
REMARK    3  A    between atoms: C_4  and  C_21
REMARK    4  A    between atoms: C_10  and  C_15
REMARK    5  A    between atoms: C_25  and  O_27
REMARK    6  A    between atoms: C_28  and  O_30
REMARK    7  A    between atoms: O_30  and  C_31
REMARK                            x       y       z     vdW  Elec       q    Type
REMARK                         _______ _______ _______ _____ _____    ______ ____
ROOT
ATOM      1  C   UNL     1      -2.707   6.760  -2.429  0.00  0.00    +0.061 C 
ATOM      2  C   UNL     1      -2.038   6.285  -1.165  0.00  0.00    +0.016 C 
ATOM      3  C   UNL     1      -0.771   5.838  -1.207  0.00  0.00    +0.065 C 
ATOM      4  C   UNL     1      -0.076   5.351   0.030  0.00  0.00    +0.092 C 
ATOM      5  C   UNL     1      -0.785   5.828   1.273  0.00  0.00    +0.024 C 
ATOM      6  C   UNL     1      -2.058   6.273   1.212  0.00  0.00    +0.016 C 
ATOM      7  N   UNL     1      -2.724   6.311   0.017  0.00  0.00    -0.321 N 
ATOM      8  C   UNL     1      -2.779   6.734   2.455  0.00  0.00    +0.059 C 
ATOM      9  C   UNL     1      -1.773   7.332   3.441  0.00  0.00    +0.032 C 
ATOM     10  C   UNL     1      -0.722   6.266   3.770  0.00  0.00    +0.088 C 
ATOM     11  C   UNL     1      -0.084   5.797   2.491  0.00  0.00    +0.162 C 
ATOM     12  O   UNL     1       1.059   5.384   2.511  0.00  0.00    -0.292 OA
ATOM     13  H   UNL     1      -3.823   6.364   0.015  0.00  0.00    +0.152 HD
ENDROOT
BRANCH   9  14
ATOM     14  C   UNL     1      -2.486   7.746   4.702  0.00  0.00    -0.044 A 
ATOM     15  C   UNL     1      -3.171   6.806   5.449  0.00  0.00    +0.004 A 
ATOM     16  C   UNL     1      -3.822   7.186   6.609  0.00  0.00    +0.000 A 
ATOM     17  C   UNL     1      -3.794   8.506   7.016  0.00  0.00    +0.000 A 
ATOM     18  C   UNL     1      -3.112   9.447   6.267  0.00  0.00    +0.000 A 
ATOM     19  C   UNL     1      -2.458   9.067   5.110  0.00  0.00    +0.004 A 
ENDBRANCH   9  14
BRANCH   4  20
ATOM     20  C   UNL     1      -0.051   3.844   0.022  0.00  0.00    -0.032 A 
ATOM     21  C   UNL     1      -1.237   3.133   0.029  0.00  0.00    +0.005 A 
ATOM     22  C   UNL     1      -1.218   1.751   0.017  0.00  0.00    +0.004 A 
ATOM     23  C   UNL     1      -0.013   1.076   0.008  0.00  0.00    +0.045 A 
ATOM     24  C   UNL     1       1.179   1.786   0.000  0.00  0.00    +0.117 A 
ATOM     25  C   UNL     1       1.157   3.174   0.008  0.00  0.00    +0.050 A 
BRANCH  24  26
ATOM     26  O   UNL     1       2.366   1.125  -0.014  0.00  0.00    -0.507 OA
ATOM     27  H   UNL     1       3.310   1.689  -0.020  0.00  0.00    +0.292 HD
ENDBRANCH  24  26
ENDBRANCH   4  20
BRANCH   3  28
ATOM     28  C   UNL     1      -0.080   5.828  -2.441  0.00  0.00    +0.338 C 
ATOM     29  O   UNL     1      -0.633   6.221  -3.451  0.00  0.00    -0.245 OA
BRANCH  28  30
ATOM     30  O   UNL     1       1.192   5.383  -2.498  0.00  0.00    -0.458 OA
BRANCH  30  31
ATOM     31  C   UNL     1       1.829   5.401  -3.777  0.00  0.00    +0.177 C 
ATOM     32  C   UNL     1       1.578   4.072  -4.491  0.00  0.00    +0.044 C 
ATOM     33  C   UNL     1       2.260   4.091  -5.861  0.00  0.00    +0.004 C 
ATOM     34  C   UNL     1       3.765   4.295  -5.678  0.00  0.00    +0.000 C 
ATOM     35  C   UNL     1       4.017   5.624  -4.964  0.00  0.00    +0.004 C 
ATOM     36  C   UNL     1       3.335   5.605  -3.594  0.00  0.00    +0.044 C 
ENDBRANCH  30  31
ENDBRANCH  28  30
ENDBRANCH   3  28
TORSDOF 6
