REMARK  Name = ZINC10186935
REMARK  7 active torsions:
REMARK  status: ('A' for Active; 'I' for Inactive)
REMARK    1  A    between atoms: C_1  and  C_2
REMARK    2  A    between atoms: C_3  and  C_27
REMARK    3  A    between atoms: C_5  and  N_9
REMARK    4  A    between atoms: C_6  and  C_7
REMARK    5  A    between atoms: C_10  and  C_12
REMARK    6  A    between atoms: N_15  and  S_18
REMARK    7  A    between atoms: S_18  and  C_21
REMARK                            x       y       z     vdW  Elec       q    Type
REMARK                         _______ _______ _______ _____ _____    ______ ____
ROOT
ATOM      1  C   UNL     1       2.459  -3.950  -0.044  0.00  0.00    +0.078 C 
ATOM      2  C   UNL     1       3.327  -4.029  -1.302  0.00  0.00    +0.030 C 
ATOM      3  C   UNL     1       4.108  -5.347  -1.297  0.00  0.00    +0.110 C 
ATOM      4  N   UNL     1       3.158  -6.458  -1.148  0.00  0.00    -0.176 NA
ATOM      5  C   UNL     1       2.215  -6.436  -0.021  0.00  0.00    +0.110 C 
ATOM      6  C   UNL     1       1.456  -5.105  -0.041  0.00  0.00    +0.030 C 
ENDROOT
BRANCH   1   8
ATOM      7  N   UNL     1       2.398  -1.477  -0.029  0.00  0.00    -0.279 N 
ATOM      8  C   UNL     1       1.715  -2.639  -0.029  0.00  0.00    +0.221 C 
ATOM      9  O   UNL     1       0.503  -2.630  -0.018  0.00  0.00    -0.275 OA
ATOM     10  H   UNL     1       3.368  -1.484  -0.039  0.00  0.00    +0.155 HD
BRANCH   7  15
ATOM     11  C   UNL     1       1.733   3.542   0.004  0.00  0.00    +0.046 C 
ATOM     12  C   UNL     1       1.284   2.103   0.001  0.00  0.00    -0.021 A 
ATOM     13  C   UNL     1      -0.022   1.777   0.012  0.00  0.00    -0.007 A 
ATOM     14  S   UNL     1       0.002  -0.004   0.002  0.00  0.00    -0.077 S 
ATOM     15  C   UNL     1       1.713  -0.270  -0.016  0.00  0.00    +0.090 A 
ATOM     16  C   UNL     1       2.234   1.018  -0.014  0.00  0.00    +0.083 A 
ATOM     17  C   UNL     1      -1.216   2.696   0.023  0.00  0.00    +0.052 C 
BRANCH  16  18
ATOM     18  C   UNL     1       3.646   1.256  -0.026  0.00  0.00    +0.102 C 
ATOM     19  N   UNL     1       4.766   1.446  -0.036  0.00  0.00    -0.191 NA
ENDBRANCH  16  18
ENDBRANCH   7  15
ENDBRANCH   1   8
BRANCH   4  20
ATOM     20  S   UNL     1       3.152  -7.713  -2.228  0.00  0.00    +0.067 S 
ATOM     21  O   UNL     1       4.447  -7.755  -2.810  0.00  0.00    -0.152 OA
ATOM     22  O   UNL     1       2.583  -8.827  -1.554  0.00  0.00    -0.152 OA
BRANCH  20  23
ATOM     23  C   UNL     1       2.033  -7.283  -3.520  0.00  0.00    +0.144 A 
ATOM     24  C   UNL     1       2.280  -6.621  -4.676  0.00  0.00    +0.038 A 
ATOM     25  C   UNL     1       1.236  -6.392  -5.554  0.00  0.00    +0.030 A 
ATOM     26  C   UNL     1      -0.004  -6.837  -5.230  0.00  0.00    +0.080 A 
ATOM     27  S   UNL     1       0.283  -7.612  -3.648  0.00  0.00    -0.057 S 
ATOM     28 CL   UNL     1      -1.485  -6.696  -6.125  0.00  0.00    -0.076 Cl
ENDBRANCH  20  23
ENDBRANCH   4  20
TORSDOF 5
