REMARK  Name = ZINC04995341
REMARK  6 active torsions:
REMARK  status: ('A' for Active; 'I' for Inactive)
REMARK    1  A    between atoms: C_4  and  O_29
REMARK    2  A    between atoms: C_5  and  C_7
REMARK    3  A    between atoms: N_8  and  N_9
REMARK    4  A    between atoms: C_10  and  C_12
REMARK    5  A    between atoms: C_15  and  O_28
REMARK    6  A    between atoms: C_16  and  C_18
REMARK                            x       y       z     vdW  Elec       q    Type
REMARK                         _______ _______ _______ _____ _____    ______ ____
ROOT
ATOM      1  C   UNL     1       4.844   8.057   0.001  0.00  0.00    +0.039 A 
ATOM      2  C   UNL     1       6.067   7.380  -0.009  0.00  0.00    +0.017 A 
ATOM      3  C   UNL     1       7.246   8.091  -0.022  0.00  0.00    +0.046 A 
ATOM      4  C   UNL     1       7.221   9.481  -0.014  0.00  0.00    +0.121 A 
ATOM      5  C   UNL     1       6.007  10.158   0.001  0.00  0.00    +0.001 A 
ATOM      6  C   UNL     1       4.824   9.454   0.008  0.00  0.00    +0.021 A 
ENDROOT
BRANCH   5   7
ATOM      7  C   UNL     1       5.987  11.665   0.010  0.00  0.00    -0.000 C 
ATOM      8  C   UNL     1       4.537  12.155   0.026  0.00  0.00    +0.015 C 
ATOM      9  C   UNL     1       4.516  13.685   0.035  0.00  0.00    -0.010 C 
ATOM     10  C   UNL     1       5.242  14.198   1.281  0.00  0.00    +0.007 C 
ATOM     11  C   UNL     1       6.691  13.708   1.264  0.00  0.00    -0.010 C 
ATOM     12  C   UNL     1       6.712  12.178   1.255  0.00  0.00    +0.015 C 
ATOM     13  C   UNL     1       7.394  14.235   0.011  0.00  0.00    +0.007 C 
ATOM     14  C   UNL     1       6.668  13.722  -1.234  0.00  0.00    -0.010 C 
ATOM     15  C   UNL     1       5.218  14.212  -1.218  0.00  0.00    +0.007 C 
ATOM     16  C   UNL     1       6.689  12.192  -1.243  0.00  0.00    +0.015 C 
ENDBRANCH   5   7
BRANCH   1  18
ATOM     17  N   UNL     1       3.600   5.951   0.001  0.00  0.00    -0.203 N 
ATOM     18  C   UNL     1       3.579   7.298   0.008  0.00  0.00    +0.263 C 
ATOM     19  O   UNL     1       2.516   7.889   0.021  0.00  0.00    -0.268 OA
ATOM     20  H   UNL     1       4.448   5.480  -0.010  0.00  0.00    +0.178 HD
BRANCH  17  22
ATOM     21  C   UNL     1       2.420   3.933   0.001  0.00  0.00    +0.142 C 
ATOM     22  N   UNL     1       2.399   5.231   0.008  0.00  0.00    -0.187 NA
BRANCH  21  27
ATOM     23  C   UNL     1      -0.013   1.076   0.008  0.00  0.00    +0.001 A 
ATOM     24  C   UNL     1      -1.222   1.749   0.017  0.00  0.00    +0.004 A 
ATOM     25  C   UNL     1      -1.254   3.130   0.031  0.00  0.00    +0.046 A 
ATOM     26  C   UNL     1      -0.071   3.852   0.023  0.00  0.00    +0.125 A 
ATOM     27  C   UNL     1       1.156   3.175   0.008  0.00  0.00    +0.036 A 
ATOM     28  C   UNL     1       1.174   1.779   0.000  0.00  0.00    +0.013 A 
BRANCH  26  29
ATOM     29  O   UNL     1      -0.101   5.210   0.032  0.00  0.00    -0.506 OA
ATOM     30  H   UNL     1      -0.118   5.608  -0.850  0.00  0.00    +0.292 HD
ENDBRANCH  26  29
ENDBRANCH  21  27
ENDBRANCH  17  22
ENDBRANCH   1  18
BRANCH   4  31
ATOM     31  O   UNL     1       8.385  10.179  -0.021  0.00  0.00    -0.506 OA
ATOM     32  H   UNL     1       8.731  10.376   0.861  0.00  0.00    +0.292 HD
ENDBRANCH   4  31
TORSDOF 6
