REMARK  Name = ZINC39318999
REMARK  6 active torsions:
REMARK  status: ('A' for Active; 'I' for Inactive)
REMARK    1  A    between atoms: C_1  and  O_2
REMARK    2  A    between atoms: O_2  and  C_3
REMARK    3  A    between atoms: C_5  and  C_10
REMARK    4  A    between atoms: C_8  and  O_9
REMARK    5  A    between atoms: N_11  and  N_12
REMARK    6  A    between atoms: N_12  and  C_13
REMARK                            x       y       z     vdW  Elec       q    Type
REMARK                         _______ _______ _______ _____ _____    ______ ____
ROOT
ATOM      1  N   UNL     1       3.543   0.539  -6.244  0.00  0.00    -0.238 N 
ATOM      2  H   UNL     1       3.510   1.507  -6.196  0.00  0.00    +0.171 HD
ENDROOT
BRANCH   1   3
ATOM      3  C   UNL     1       4.193  -0.116  -7.382  0.00  0.00    +0.269 C 
ATOM      4  C   UNL     1       5.624  -0.407  -6.991  0.00  0.00    +0.259 C 
ATOM      5  O   UNL     1       5.869  -1.090  -6.017  0.00  0.00    -0.271 OA
ATOM      6  N   UNL     1       6.614   0.096  -7.731  0.00  0.00    -0.281 N 
ATOM      7  C   UNL     1       6.374   0.842  -8.797  0.00  0.00    +0.057 A 
ATOM      8  C   UNL     1       7.446   1.358  -9.558  0.00  0.00    +0.025 A 
ATOM      9  C   UNL     1       7.206   2.123 -10.649  0.00  0.00    +0.002 A 
ATOM     10  C   UNL     1       5.909   2.442 -11.083  0.00  0.00    +0.002 A 
ATOM     11  C   UNL     1       4.813   1.999 -10.428  0.00  0.00    +0.027 A 
ATOM     12  C   UNL     1       4.991   1.162  -9.230  0.00  0.00    +0.059 A 
ATOM     13  N   UNL     1       3.960   0.717  -8.572  0.00  0.00    -0.357 N 
ATOM     14  H   UNL     1       3.059   0.929  -8.861  0.00  0.00    +0.162 HD
ATOM     15  H   UNL     1       7.533  -0.089  -7.481  0.00  0.00    +0.155 HD
ENDBRANCH   1   3
BRANCH   1  17
ATOM     16  C   UNL     1       2.395   0.348  -4.218  0.00  0.00    +0.138 C 
ATOM     17  N   UNL     1       2.970  -0.233  -5.225  0.00  0.00    -0.192 NA
BRANCH  16  20
ATOM     18  C   UNL     1       0.606  -0.608  -1.056  0.00  0.00    +0.162 A 
ATOM     19  C   UNL     1       1.171   0.159  -2.059  0.00  0.00    +0.058 A 
ATOM     20  C   UNL     1       1.791  -0.464  -3.145  0.00  0.00    -0.002 A 
ATOM     21  C   UNL     1       1.837  -1.859  -3.212  0.00  0.00    +0.013 A 
ATOM     22  C   UNL     1       1.271  -2.617  -2.208  0.00  0.00    +0.050 A 
ATOM     23  C   UNL     1       0.661  -1.998  -1.127  0.00  0.00    +0.158 A 
BRANCH  18  25
ATOM     24  C   UNL     1      -0.017   1.425   0.010  0.00  0.00    +0.277 C 
ATOM     25  O   UNL     1       0.002  -0.004   0.002  0.00  0.00    -0.491 OA
ENDBRANCH  18  25
BRANCH  23  26
ATOM     26  O   UNL     1       0.110  -2.749  -0.137  0.00  0.00    -0.503 OA
ATOM     27  H   UNL     1      -0.819  -2.975  -0.285  0.00  0.00    +0.292 HD
ENDBRANCH  23  26
ENDBRANCH  16  20
ENDBRANCH   1  17
TORSDOF 5
