REMARK  Name = ZINC33904517
REMARK  10 active torsions:
REMARK  status: ('A' for Active; 'I' for Inactive)
REMARK    1  A    between atoms: C_1  and  C_2
REMARK    2  A    between atoms: C_3  and  C_33
REMARK    3  A    between atoms: C_4  and  N_32
REMARK    4  A    between atoms: C_9  and  C_10
REMARK    5  A    between atoms: C_13  and  O_16
REMARK    6  A    between atoms: O_16  and  C_17
REMARK    7  A    between atoms: C_17  and  C_18
REMARK    8  A    between atoms: C_21  and  C_24
REMARK    9  A    between atoms: C_27  and  C_31
REMARK   10  A    between atoms: C_28  and  C_29
REMARK                            x       y       z     vdW  Elec       q    Type
REMARK                         _______ _______ _______ _____ _____    ______ ____
ROOT
ATOM      1  C   UNL     1       2.528   2.162   1.853  0.00  0.00    +0.046 C 
ATOM      2  C   UNL     1       3.013   1.920   3.259  0.00  0.00    -0.020 A 
ATOM      3  C   UNL     1       4.345   2.162   3.612  0.00  0.00    +0.095 A 
ATOM      4  C   UNL     1       4.757   1.924   4.938  0.00  0.00    +0.135 A 
ATOM      5  N   UNL     1       3.907   1.477   5.844  0.00  0.00    -0.230 NA
ATOM      6  C   UNL     1       2.632   1.235   5.549  0.00  0.00    +0.092 A 
ATOM      7  C   UNL     1       2.148   1.456   4.242  0.00  0.00    +0.013 A 
ATOM      8  C   UNL     1       0.714   1.104   4.246  0.00  0.00    -0.011 C 
ATOM      9  C   UNL     1      -0.145   1.169   3.165  0.00  0.00    +0.016 C 
ATOM     10  C   UNL     1       0.377   0.686   5.553  0.00  0.00    -0.023 C 
ATOM     11  C   UNL     1       1.500   0.744   6.353  0.00  0.00    +0.081 C 
ATOM     12  C   UNL     1      -0.990   0.237   6.001  0.00  0.00    +0.046 C 
ENDROOT
BRANCH   9  13
ATOM     13  C   UNL     1       0.004   2.237   2.177  0.00  0.00    -0.024 A 
ATOM     14  C   UNL     1      -0.166   1.962   0.811  0.00  0.00    +0.011 A 
ATOM     15  C   UNL     1      -0.026   2.964  -0.107  0.00  0.00    +0.046 A 
ATOM     16  C   UNL     1       0.284   4.255   0.310  0.00  0.00    +0.121 A 
ATOM     17  C   UNL     1       0.453   4.534   1.662  0.00  0.00    +0.046 A 
ATOM     18  C   UNL     1       0.311   3.543   2.591  0.00  0.00    +0.011 A 
BRANCH  16  19
ATOM     19  O   UNL     1       0.422   5.245  -0.607  0.00  0.00    -0.487 OA
BRANCH  19  20
ATOM     20  C   UNL     1       0.741   6.547  -0.112  0.00  0.00    +0.264 C 
BRANCH  20  21
ATOM     21  C   UNL     1       0.854   7.510  -1.266  0.00  0.00    -0.010 A 
ATOM     22  C   UNL     1       2.074   7.695  -1.892  0.00  0.00    +0.008 A 
ATOM     23  C   UNL     1       2.185   8.574  -2.948  0.00  0.00    +0.015 A 
ATOM     24  C   UNL     1       1.061   9.279  -3.388  0.00  0.00    +0.063 A 
ATOM     25  C   UNL     1      -0.168   9.086  -2.752  0.00  0.00    +0.015 A 
ATOM     26  C   UNL     1      -0.265   8.200  -1.700  0.00  0.00    +0.008 A 
BRANCH  24  27
ATOM     27  C   UNL     1       1.172  10.221  -4.517  0.00  0.00    +0.387 C 
ATOM     28  O   UNL     1       2.249  10.388  -5.071  0.00  0.00    -0.241 OA
ATOM     29  O   UNL     1       0.186  10.836  -4.899  0.00  0.00    -0.241 OA
ENDBRANCH  24  27
ENDBRANCH  20  21
ENDBRANCH  19  20
ENDBRANCH  16  19
ENDBRANCH   9  13
BRANCH   4  30
ATOM     30  N   UNL     1       6.074   2.161   5.296  0.00  0.00    -0.342 N 
ATOM     31  H   UNL     1       6.704   2.489   4.635  0.00  0.00    +0.144 HD
ATOM     32  H   UNL     1       6.365   1.999   6.206  0.00  0.00    +0.144 HD
ENDBRANCH   4  30
BRANCH  11  33
ATOM     33  C   UNL     1       1.553   0.398   7.742  0.00  0.00    +0.102 C 
ATOM     34  N   UNL     1       1.594   0.124   8.843  0.00  0.00    -0.191 NA
ENDBRANCH  11  33
BRANCH   3  35
ATOM     35  C   UNL     1       5.277   2.646   2.638  0.00  0.00    +0.103 C 
ATOM     36  N   UNL     1       6.017   3.029   1.865  0.00  0.00    -0.191 NA
ENDBRANCH   3  35
TORSDOF 8
