REMARK  Name = ZINC22928836
REMARK  6 active torsions:
REMARK  status: ('A' for Active; 'I' for Inactive)
REMARK    1  A    between atoms: C_5  and  C_7
REMARK    2  A    between atoms: C_13  and  C_15
REMARK    3  A    between atoms: C_15  and  N_16
REMARK    4  A    between atoms: N_19  and  C_22
REMARK    5  A    between atoms: C_22  and  C_24
REMARK    6  A    between atoms: C_22  and  C_31
REMARK                            x       y       z     vdW  Elec       q    Type
REMARK                         _______ _______ _______ _____ _____    ______ ____
ROOT
ATOM      1  N   UNL     1      -2.178   1.319  -3.604  0.00  0.00    +0.387 N 
ATOM      2  C   UNL     1      -0.866   1.973  -3.500  0.00  0.00    -0.063 C 
ATOM      3  C   UNL     1      -0.110   1.408  -2.296  0.00  0.00    +0.067 C 
ATOM      4  N   UNL     1      -0.902   1.627  -1.077  0.00  0.00    -0.291 NA
ATOM      5  C   UNL     1      -2.214   0.973  -1.180  0.00  0.00    +0.067 C 
ATOM      6  C   UNL     1      -2.970   1.538  -2.385  0.00  0.00    -0.063 C 
ATOM      7  H   UNL     1      -2.010   0.237  -3.710  0.00  0.00    -0.081 HD
ENDROOT
BRANCH   1   8
ATOM      8  C   UNL     1      -2.904   1.781  -4.794  0.00  0.00    +0.019 C 
BRANCH   8  14
ATOM      9  C   UNL     1      -1.922   1.308  -8.489  0.00  0.00    +0.167 C 
ATOM     10  N   UNL     1      -2.597   1.732  -7.248  0.00  0.00    -0.286 N 
ATOM     11  C   UNL     1      -3.744   2.621  -7.412  0.00  0.00    +0.120 C 
ATOM     12  C   UNL     1      -3.554   3.540  -8.659  0.00  0.00    +0.090 C 
ATOM     13  S   UNL     1      -2.773   2.301  -9.788  0.00  0.00    -0.132 S 
ATOM     14  C   UNL     1      -2.182   1.319  -6.034  0.00  0.00    +0.200 C 
ATOM     15  O   UNL     1      -1.228   0.577  -5.939  0.00  0.00    -0.278 OA
BRANCH   9  20
ATOM     16  C   UNL     1      -3.285  -2.205  -8.246  0.00  0.00    +0.001 A 
ATOM     17  C   UNL     1      -2.497  -2.872  -9.166  0.00  0.00    +0.003 A 
ATOM     18  C   UNL     1      -1.523  -2.188  -9.867  0.00  0.00    +0.039 A 
ATOM     19  C   UNL     1      -1.335  -0.834  -9.649  0.00  0.00    +0.129 A 
ATOM     20  C   UNL     1      -2.125  -0.166  -8.728  0.00  0.00    +0.018 A 
ATOM     21  C   UNL     1      -3.095  -0.854  -8.024  0.00  0.00    +0.009 A 
ATOM     22  F   UNL     1      -0.383  -0.164 -10.334  0.00  0.00    -0.205 F 
ENDBRANCH   9  20
ENDBRANCH   8  14
ENDBRANCH   1   8
BRANCH   4  23
ATOM     23  C   UNL     1      -0.176   1.165   0.113  0.00  0.00    +0.173 C 
BRANCH  23  24
ATOM     24  C   UNL     1      -1.017   1.405   1.340  0.00  0.00    -0.021 A 
ATOM     25  C   UNL     1      -1.746   2.574   1.460  0.00  0.00    +0.007 A 
ATOM     26  C   UNL     1      -2.523   2.792   2.582  0.00  0.00    +0.020 A 
ATOM     27  C   UNL     1      -2.561   1.846   3.591  0.00  0.00    +0.041 A 
ATOM     28  C   UNL     1      -1.827   0.680   3.473  0.00  0.00    +0.020 A 
ATOM     29  C   UNL     1      -1.055   0.460   2.348  0.00  0.00    +0.007 A 
ATOM     30 CL   UNL     1      -3.531   2.123   5.004  0.00  0.00    -0.084 Cl
ENDBRANCH  23  24
BRANCH  23  31
ATOM     31  C   UNL     1       1.120   1.924   0.236  0.00  0.00    +0.232 C 
ATOM     32  O   UNL     1       1.410   2.767  -0.586  0.00  0.00    -0.274 OA
ATOM     33  N   UNL     1       1.957   1.666   1.261  0.00  0.00    -0.328 N 
ATOM     34  H   UNL     1       2.903   2.220   1.351  0.00  0.00    +0.145 HD
ATOM     35  H   UNL     1       1.694   0.902   2.007  0.00  0.00    +0.145 HD
ENDBRANCH  23  31
ENDBRANCH   4  23
TORSDOF 6
