REMARK  Name = ZINC66472795
REMARK  9 active torsions:
REMARK  status: ('A' for Active; 'I' for Inactive)
REMARK    1  A    between atoms: C_1  and  C_2
REMARK    2  A    between atoms: C_2  and  C_3
REMARK    3  A    between atoms: C_3  and  C_4
REMARK    4  A    between atoms: C_4  and  N_5
REMARK    5  A    between atoms: C_6  and  C_8
REMARK    6  A    between atoms: C_12  and  C_29
REMARK    7  A    between atoms: N_14  and  C_16
REMARK    8  A    between atoms: C_16  and  C_17
REMARK    9  A    between atoms: N_19  and  C_20
REMARK                            x       y       z     vdW  Elec       q    Type
REMARK                         _______ _______ _______ _____ _____    ______ ____
ROOT
ATOM      1  C   UNL     1      -4.639  -4.498   0.149  0.00  0.00    +0.058 C 
ATOM      2  C   UNL     1      -5.382  -3.985  -1.088  0.00  0.00    +0.009 C 
ATOM      3  C   UNL     1      -4.661  -4.480  -2.345  0.00  0.00    -0.015 C 
ATOM      4  C   UNL     1      -4.577  -6.007  -2.311  0.00  0.00    -0.071 C 
ATOM      5  N   UNL     1      -3.834  -6.433  -1.119  0.00  0.00    +0.388 N 
ATOM      6  C   UNL     1      -4.556  -6.025   0.093  0.00  0.00    -0.065 C 
ATOM      7  C   UNL     1      -3.858  -6.506  -3.565  0.00  0.00    -0.013 C 
ATOM      8  H   UNL     1      -2.919  -6.007  -1.124  0.00  0.00    -0.081 HD
ENDROOT
BRANCH   1  10
ATOM      9  N   UNL     1      -3.074  -2.583   0.226  0.00  0.00    -0.315 N 
ATOM     10  C   UNL     1      -3.248  -3.919   0.177  0.00  0.00    +0.214 C 
ATOM     11  O   UNL     1      -2.284  -4.655   0.155  0.00  0.00    -0.276 OA
ATOM     12  H   UNL     1      -3.845  -1.994   0.243  0.00  0.00    +0.149 HD
BRANCH   9  13
ATOM     13  C   UNL     1      -1.722  -2.021   0.253  0.00  0.00    +0.104 C 
BRANCH  13  14
ATOM     14  C   UNL     1      -1.806  -0.494   0.307  0.00  0.00    +0.018 C 
BRANCH  14  16
ATOM     15  C   UNL     1      -0.477   1.621   0.390  0.00  0.00    +0.004 C 
ATOM     16  C   UNL     1      -0.393   0.094   0.335  0.00  0.00    -0.002 C 
ENDBRANCH  14  16
ENDBRANCH  13  14
ENDBRANCH   9  13
ENDBRANCH   1  10
BRANCH   5  17
ATOM     17  C   UNL     1      -3.689  -7.895  -1.131  0.00  0.00    +0.019 C 
BRANCH  17  18
ATOM     18  C   UNL     1      -2.822  -8.323   0.025  0.00  0.00    +0.197 C 
ATOM     19  O   UNL     1      -2.369  -7.493   0.783  0.00  0.00    -0.278 OA
ATOM     20  N   UNL     1      -2.549  -9.630   0.215  0.00  0.00    -0.306 N 
ATOM     21  H   UNL     1      -2.911 -10.294  -0.392  0.00  0.00    +0.149 HD
BRANCH  20  22
ATOM     22  C   UNL     1      -1.706 -10.046   1.339  0.00  0.00    +0.159 C 
ATOM     23  C   UNL     1      -1.222 -11.480   1.114  0.00  0.00    +0.032 C 
ATOM     24  C   UNL     1      -2.286 -12.303   0.412  0.00  0.00    +0.004 C 
ATOM     25  C   UNL     1      -3.529 -12.540   1.249  0.00  0.00    +0.019 C 
ATOM     26  C   UNL     1      -4.284 -11.231   1.487  0.00  0.00    +0.104 C 
ATOM     27  N   UNL     1      -3.718 -10.570   2.673  0.00  0.00    -0.314 N 
ATOM     28  C   UNL     1      -2.509 -10.001   2.621  0.00  0.00    +0.233 C 
ATOM     29  O   UNL     1      -2.052  -9.453   3.602  0.00  0.00    -0.274 OA
ATOM     30  H   UNL     1      -4.227 -10.544   3.499  0.00  0.00    +0.149 HD
ENDBRANCH  20  22
ENDBRANCH  17  18
ENDBRANCH   5  17
TORSDOF 7
