REMARK  Name = ZINC40172241
REMARK  8 active torsions:
REMARK  status: ('A' for Active; 'I' for Inactive)
REMARK    1  A    between atoms: C_1  and  S_2
REMARK    2  A    between atoms: S_2  and  C_3
REMARK    3  A    between atoms: N_7  and  C_8
REMARK    4  A    between atoms: C_8  and  C_9
REMARK    5  A    between atoms: N_11  and  C_12
REMARK    6  A    between atoms: C_13  and  C_29
REMARK    7  A    between atoms: C_14  and  C_23
REMARK    8  A    between atoms: C_15  and  C_17
REMARK                            x       y       z     vdW  Elec       q    Type
REMARK                         _______ _______ _______ _____ _____    ______ ____
ROOT
ATOM      1  C   UNL     1      -2.362  -4.961  -1.777  0.00  0.00    +0.211 A 
ATOM      2  C   UNL     1      -3.035  -6.095  -1.353  0.00  0.00    +0.121 A 
ATOM      3  C   UNL     1      -4.373  -6.012  -1.968  0.00  0.00    +0.047 A 
ATOM      4  C   UNL     1      -4.377  -4.852  -2.694  0.00  0.00    +0.146 A 
ATOM      5  O   UNL     1      -3.181  -4.247  -2.561  0.00  0.00    -0.439 OA
ENDROOT
BRANCH   4   6
ATOM      6  C   UNL     1      -5.510  -4.344  -3.490  0.00  0.00    +0.018 A 
ATOM      7  C   UNL     1      -6.794  -4.308  -2.939  0.00  0.00    +0.011 A 
ATOM      8  C   UNL     1      -7.848  -3.831  -3.689  0.00  0.00    +0.001 A 
ATOM      9  C   UNL     1      -7.638  -3.389  -4.984  0.00  0.00    +0.000 A 
ATOM     10  C   UNL     1      -6.369  -3.422  -5.535  0.00  0.00    +0.001 A 
ATOM     11  C   UNL     1      -5.303  -3.890  -4.795  0.00  0.00    +0.011 A 
ENDBRANCH   4   6
BRANCH   3  12
ATOM     12  C   UNL     1      -5.482  -6.983  -1.830  0.00  0.00    -0.013 A 
ATOM     13  C   UNL     1      -5.905  -7.726  -2.933  0.00  0.00    +0.008 A 
ATOM     14  C   UNL     1      -6.939  -8.629  -2.798  0.00  0.00    +0.001 A 
ATOM     15  C   UNL     1      -7.556  -8.799  -1.571  0.00  0.00    +0.000 A 
ATOM     16  C   UNL     1      -7.142  -8.066  -0.474  0.00  0.00    +0.001 A 
ATOM     17  C   UNL     1      -6.105  -7.164  -0.595  0.00  0.00    +0.008 A 
ENDBRANCH   3  12
BRANCH   1  20
ATOM     18  C   UNL     1      -0.523  -3.481  -1.919  0.00  0.00    +0.239 C 
ATOM     19  O   UNL     1      -1.174  -2.755  -2.641  0.00  0.00    -0.273 OA
ATOM     20  N   UNL     1      -1.064  -4.620  -1.443  0.00  0.00    -0.254 N 
ATOM     21  H   UNL     1      -0.544  -5.200  -0.866  0.00  0.00    +0.158 HD
BRANCH  18  22
ATOM     22  C   UNL     1       0.891  -3.110  -1.555  0.00  0.00    +0.223 C 
BRANCH  22  27
ATOM     23  C   UNL     1       1.063  -0.594  -1.657  0.00  0.00    +0.193 A 
ATOM     24  N   UNL     1       1.502   0.287  -2.523  0.00  0.00    -0.121 NA
ATOM     25  N   UNL     1       1.971  -0.407  -3.646  0.00  0.00    -0.113 NA
ATOM     26  C   UNL     1       1.803  -1.688  -3.430  0.00  0.00    +0.216 A 
ATOM     27  N   UNL     1       1.242  -1.838  -2.193  0.00  0.00    -0.282 N 
ATOM     28  N   UNL     1       2.141  -2.714  -4.303  0.00  0.00    -0.328 N 
ATOM     29  H   UNL     1       2.541  -2.508  -5.162  0.00  0.00    +0.145 HD
ATOM     30  H   UNL     1       1.977  -3.637  -4.053  0.00  0.00    +0.145 HD
BRANCH  23  32
ATOM     31  C   UNL     1       0.414   1.574   0.023  0.00  0.00    +0.093 C 
ATOM     32  S   UNL     1       0.370  -0.237  -0.077  0.00  0.00    -0.089 S 
ENDBRANCH  23  32
ENDBRANCH  22  27
ENDBRANCH  18  22
ENDBRANCH   1  20
BRANCH   2  33
ATOM     33  C   UNL     1      -2.537  -7.129  -0.497  0.00  0.00    +0.105 C 
ATOM     34  N   UNL     1      -2.142  -7.950   0.182  0.00  0.00    -0.191 NA
ENDBRANCH   2  33
TORSDOF 7
