REMARK  Name = ZINC13634997
REMARK  8 active torsions:
REMARK  status: ('A' for Active; 'I' for Inactive)
REMARK    1  A    between atoms: C_1  and  C_2
REMARK    2  A    between atoms: C_2  and  C_3
REMARK    3  A    between atoms: C_3  and  O_4
REMARK    4  A    between atoms: O_4  and  C_5
REMARK    5  A    between atoms: C_5  and  C_7
REMARK    6  A    between atoms: C_20  and  C_23
REMARK    7  A    between atoms: C_26  and  O_29
REMARK    8  A    between atoms: O_29  and  C_30
REMARK                            x       y       z     vdW  Elec       q    Type
REMARK                         _______ _______ _______ _____ _____    ______ ____
ROOT
ATOM      1  C   UNL     1       1.738  -0.777  -0.175  0.00  0.00    +0.059 A 
ATOM      2  C   UNL     1       0.456  -0.221  -0.121  0.00  0.00    +0.017 A 
ATOM      3  C   UNL     1       0.298   1.133  -0.064  0.00  0.00    +0.024 A 
ATOM      4  C   UNL     1       1.405   1.978  -0.062  0.00  0.00    +0.031 A 
ATOM      5  C   UNL     1       2.694   1.425  -0.104  0.00  0.00    -0.019 A 
ATOM      6  C   UNL     1       2.856   0.063  -0.164  0.00  0.00    +0.021 A 
ATOM      7  C   UNL     1       3.840   2.359  -0.070  0.00  0.00    +0.049 C 
ATOM      8  C   UNL     1       5.158   2.006  -0.657  0.00  0.00    -0.023 C 
ATOM      9  C   UNL     1       5.734   3.116  -1.102  0.00  0.00    -0.030 C 
ATOM     10  C   UNL     1       4.811   4.314  -0.872  0.00  0.00    +0.033 C 
ATOM     11  C   UNL     1       3.432   3.641  -0.856  0.00  0.00    +0.029 C 
ATOM     12  C   UNL     1       2.347   4.299  -0.023  0.00  0.00    +0.105 C 
ATOM     13  N   UNL     1       1.206   3.358  -0.038  0.00  0.00    -0.336 N 
ATOM     14  H   UNL     1       0.301   3.708  -0.033  0.00  0.00    +0.147 HD
ENDROOT
BRANCH  12  15
ATOM     15  C   UNL     1       2.830   4.507   1.389  0.00  0.00    -0.027 A 
ATOM     16  C   UNL     1       2.602   3.537   2.347  0.00  0.00    +0.009 A 
ATOM     17  C   UNL     1       3.048   3.724   3.641  0.00  0.00    +0.046 A 
ATOM     18  C   UNL     1       3.716   4.891   3.982  0.00  0.00    +0.120 A 
ATOM     19  C   UNL     1       3.939   5.865   3.020  0.00  0.00    +0.046 A 
ATOM     20  C   UNL     1       3.496   5.671   1.726  0.00  0.00    +0.009 A 
BRANCH  18  21
ATOM     21  O   UNL     1       4.151   5.080   5.255  0.00  0.00    -0.495 OA
ATOM     22  C   UNL     1       3.886   4.034   6.193  0.00  0.00    +0.277 C 
ENDBRANCH  18  21
ENDBRANCH  12  15
BRANCH   1  23
ATOM     23  C   UNL     1       1.909  -2.239  -0.243  0.00  0.00    +0.339 C 
ATOM     24  O   UNL     1       3.025  -2.719  -0.289  0.00  0.00    -0.245 OA
BRANCH  23  25
ATOM     25  O   UNL     1       0.829  -3.044  -0.253  0.00  0.00    -0.461 OA
BRANCH  25  26
ATOM     26  C   UNL     1       1.073  -4.474  -0.321  0.00  0.00    +0.232 C 
BRANCH  26  28
ATOM     27  C   UNL     1      -0.006  -6.727  -0.394  0.00  0.00    +0.007 C 
ATOM     28  C   UNL     1      -0.263  -5.220  -0.322  0.00  0.00    +0.038 C 
ENDBRANCH  26  28
ENDBRANCH  25  26
ENDBRANCH  23  25
ENDBRANCH   1  23
TORSDOF 6
