REMARK  Name = ZINC01911859
REMARK  10 active torsions:
REMARK  status: ('A' for Active; 'I' for Inactive)
REMARK    1  A    between atoms: C_1  and  C_2
REMARK    2  A    between atoms: C_2  and  O_3
REMARK    3  A    between atoms: O_3  and  C_4
REMARK    4  A    between atoms: C_4  and  C_6
REMARK    5  A    between atoms: C_7  and  N_17
REMARK    6  A    between atoms: C_12  and  C_16
REMARK    7  A    between atoms: C_18  and  C_20
REMARK    8  A    between atoms: C_20  and  S_21
REMARK    9  A    between atoms: S_21  and  C_22
REMARK   10  A    between atoms: C_25  and  C_31
REMARK                            x       y       z     vdW  Elec       q    Type
REMARK                         _______ _______ _______ _____ _____    ______ ____
ROOT
ATOM      1  N   UNL     1       3.630   3.786  -0.209  0.00  0.00    -0.283 N 
ATOM      2  C   UNL     1       3.812   2.546  -0.703  0.00  0.00    +0.227 C 
ATOM      3  O   UNL     1       2.865   1.915  -1.124  0.00  0.00    -0.275 OA
ATOM      4  H   UNL     1       4.394   4.315   0.069  0.00  0.00    +0.155 HD
ENDROOT
BRANCH   1   6
ATOM      5  C   UNL     1       1.917   5.353  -0.916  0.00  0.00    +0.118 A 
ATOM      6  C   UNL     1       2.342   4.311  -0.098  0.00  0.00    +0.058 A 
ATOM      7  C   UNL     1       1.441   3.811   0.838  0.00  0.00    -0.015 A 
ATOM      8  C   UNL     1       0.203   4.384   0.866  0.00  0.00    -0.004 A 
ATOM      9  S   UNL     1       0.242   5.599  -0.353  0.00  0.00    -0.085 S 
ATOM     10  C   UNL     1      -0.937   4.024   1.769  0.00  0.00    +0.046 C 
ATOM     11  C   UNL     1      -0.636   2.662   2.411  0.00  0.00    -0.009 C 
ATOM     12  C   UNL     1       0.795   2.680   2.954  0.00  0.00    +0.008 C 
ATOM     13  C   UNL     1       1.792   2.675   1.795  0.00  0.00    +0.038 C 
ATOM     14  C   UNL     1      -1.617   2.408   3.557  0.00  0.00    +0.008 C 
BRANCH   5  15
ATOM     15  C   UNL     1       2.627   6.035  -1.932  0.00  0.00    +0.348 C 
ATOM     16  O   UNL     1       3.736   5.656  -2.259  0.00  0.00    -0.244 OA
BRANCH  15  17
ATOM     17  O   UNL     1       2.073   7.105  -2.540  0.00  0.00    -0.461 OA
BRANCH  17  19
ATOM     18  C   UNL     1       2.060   8.929  -4.125  0.00  0.00    +0.048 C 
ATOM     19  C   UNL     1       2.846   7.745  -3.557  0.00  0.00    +0.229 C 
ENDBRANCH  17  19
ENDBRANCH  15  17
ENDBRANCH   5  15
ENDBRANCH   1   6
BRANCH   2  20
ATOM     20  C   UNL     1       5.192   1.941  -0.731  0.00  0.00    +0.171 C 
BRANCH  20  21
ATOM     21  S   UNL     1       5.109   0.280  -1.446  0.00  0.00    -0.096 S 
BRANCH  21  22
ATOM     22  C   UNL     1       6.809  -0.176  -1.359  0.00  0.00    +0.109 A 
ATOM     23  C   UNL     1       7.237  -1.453  -1.821  0.00  0.00    +0.040 A 
ATOM     24  C   UNL     1       6.466  -2.530  -2.409  0.00  0.00    +0.029 A 
ATOM     25  C   UNL     1       7.104  -3.666  -2.783  0.00  0.00    +0.022 A 
ATOM     26  S   UNL     1       8.807  -3.341  -2.365  0.00  0.00    -0.069 S 
ATOM     27  C   UNL     1       8.623  -1.705  -1.705  0.00  0.00    +0.113 A 
ATOM     28  N   UNL     1       9.443  -0.809  -1.193  0.00  0.00    -0.228 NA
ATOM     29  C   UNL     1       8.985   0.356  -0.777  0.00  0.00    +0.223 A 
ATOM     30  N   UNL     1       7.703   0.662  -0.859  0.00  0.00    -0.229 NA
BRANCH  25  31
ATOM     31  C   UNL     1       6.527  -4.883  -3.392  0.00  0.00    -0.011 A 
ATOM     32  C   UNL     1       5.156  -4.958  -3.643  0.00  0.00    +0.009 A 
ATOM     33  C   UNL     1       4.624  -6.095  -4.216  0.00  0.00    +0.001 A 
ATOM     34  C   UNL     1       5.445  -7.163  -4.531  0.00  0.00    +0.000 A 
ATOM     35  C   UNL     1       6.804  -7.097  -4.280  0.00  0.00    +0.001 A 
ATOM     36  C   UNL     1       7.349  -5.964  -3.712  0.00  0.00    +0.009 A 
ENDBRANCH  25  31
ENDBRANCH  21  22
ENDBRANCH  20  21
ENDBRANCH   2  20
TORSDOF 8
