REMARK  Name = ZINC39315402
REMARK  7 active torsions:
REMARK  status: ('A' for Active; 'I' for Inactive)
REMARK    1  A    between atoms: C_1  and  C_2
REMARK    2  A    between atoms: C_3  and  C_9
REMARK    3  A    between atoms: C_4  and  O_8
REMARK    4  A    between atoms: C_9  and  C_11
REMARK    5  A    between atoms: C_9  and  C_18
REMARK    6  A    between atoms: C_18  and  C_19
REMARK    7  A    between atoms: C_18  and  C_21
REMARK                            x       y       z     vdW  Elec       q    Type
REMARK                         _______ _______ _______ _____ _____    ______ ____
ROOT
ATOM      1  C   UNL     1      -2.530  -0.346   0.013  0.00  0.00    +0.082 C 
ENDROOT
BRANCH   1   2
ATOM      2  C   UNL     1      -3.209  -0.890   1.244  0.00  0.00    -0.038 A 
ATOM      3  C   UNL     1      -3.260  -2.255   1.458  0.00  0.00    +0.005 A 
ATOM      4  C   UNL     1      -3.882  -2.754   2.587  0.00  0.00    +0.015 A 
ATOM      5  C   UNL     1      -4.452  -1.888   3.503  0.00  0.00    +0.018 A 
ATOM      6  C   UNL     1      -4.400  -0.523   3.288  0.00  0.00    +0.015 A 
ATOM      7  C   UNL     1      -3.774  -0.024   2.161  0.00  0.00    +0.005 A 
ATOM      8 BR   UNL     1      -5.303  -2.571   5.048  0.00  0.00    -0.050 Br
ENDBRANCH   1   2
BRANCH   1  11
ATOM      9  C   UNL     1      -0.018   1.503   0.010  0.00  0.00    +0.067 C 
ATOM     10  C   UNL     1       0.002  -0.004   0.002  0.00  0.00    +0.064 C 
ATOM     11  C   UNL     1      -1.086  -0.777   0.003  0.00  0.00    +0.014 C 
ATOM     12  C   UNL     1      -0.531  -2.190  -0.007  0.00  0.00    +0.283 C 
ATOM     13  N   UNL     1       0.926  -1.973  -0.013  0.00  0.00    -0.151 NA
ATOM     14  N   UNL     1       1.125  -0.756  -0.013  0.00  0.00    -0.156 NA
BRANCH  12  15
ATOM     15  O   UNL     1      -0.947  -2.888  -1.183  0.00  0.00    -0.366 OA
ATOM     16  H   UNL     1      -0.619  -3.796  -1.238  0.00  0.00    +0.212 HD
ENDBRANCH  12  15
ENDBRANCH   1  11
BRANCH   1  17
ATOM     17  C   UNL     1      -3.232  -0.885  -1.236  0.00  0.00    +0.205 C 
BRANCH  17  18
ATOM     18  C   UNL     1      -4.642  -0.465  -1.227  0.00  0.00    +0.082 C 
ATOM     19  N   UNL     1      -5.731  -0.141  -1.219  0.00  0.00    -0.195 NA
ENDBRANCH  17  18
BRANCH  17  20
ATOM     20  C   UNL     1      -2.569  -0.354  -2.438  0.00  0.00    +0.082 C 
ATOM     21  N   UNL     1      -2.058   0.056  -3.366  0.00  0.00    -0.195 NA
ENDBRANCH  17  20
ENDBRANCH   1  17
TORSDOF 6
