REMARK  Name = ZINC67490467
REMARK  7 active torsions:
REMARK  status: ('A' for Active; 'I' for Inactive)
REMARK    1  A    between atoms: C_1  and  C_2
REMARK    2  A    between atoms: C_7  and  N_12
REMARK    3  A    between atoms: C_9  and  C_11
REMARK    4  A    between atoms: C_13  and  C_15
REMARK    5  A    between atoms: N_17  and  C_18
REMARK    6  A    between atoms: C_22  and  S_24
REMARK    7  A    between atoms: S_24  and  C_25
REMARK                            x       y       z     vdW  Elec       q    Type
REMARK                         _______ _______ _______ _____ _____    ______ ____
ROOT
ATOM      1  C   UNL     1       2.780  -4.234   3.615  0.00  0.00    +0.303 C 
ATOM      2  O   UNL     1       2.848  -3.539   4.608  0.00  0.00    -0.265 OA
ATOM      3  N   UNL     1       3.364  -5.449   3.602  0.00  0.00    -0.278 N 
ATOM      4  H   UNL     1       3.253  -6.032   2.835  0.00  0.00    +0.155 HD
ENDROOT
BRANCH   3   5
ATOM      5  C   UNL     1       4.128  -5.869   4.694  0.00  0.00    +0.035 A 
ATOM      6  C   UNL     1       5.258  -6.653   4.493  0.00  0.00    +0.023 A 
ATOM      7  C   UNL     1       6.013  -7.069   5.572  0.00  0.00    +0.003 A 
ATOM      8  C   UNL     1       5.649  -6.708   6.855  0.00  0.00    +0.015 A 
ATOM      9  C   UNL     1       4.520  -5.924   7.064  0.00  0.00    +0.015 A 
ATOM     10  C   UNL     1       3.762  -5.500   5.981  0.00  0.00    +0.038 A 
BRANCH   9  11
ATOM     11  S   UNL     1       4.056  -5.465   8.700  0.00  0.00    -0.056 S 
BRANCH  11  12
ATOM     12  C   UNL     1       5.322  -6.232   9.748  0.00  0.00    +0.404 C 
ATOM     13  F   UNL     1       5.303  -7.619   9.563  0.00  0.00    -0.197 F 
ATOM     14  F   UNL     1       6.582  -5.733   9.397  0.00  0.00    -0.197 F 
ENDBRANCH  11  12
ENDBRANCH   9  11
ENDBRANCH   3   5
BRANCH   1  16
ATOM     15  N   UNL     1       1.468  -2.528   2.421  0.00  0.00    -0.304 N 
ATOM     16  C   UNL     1       2.051  -3.743   2.408  0.00  0.00    +0.300 C 
ATOM     17  O   UNL     1       1.983  -4.438   1.415  0.00  0.00    -0.265 OA
ATOM     18  H   UNL     1       1.522  -1.972   3.214  0.00  0.00    +0.149 HD
BRANCH  15  24
ATOM     19  C   UNL     1      -0.033   1.516   0.005  0.00  0.00    +0.008 C 
ATOM     20  C   UNL     1      -0.014  -0.014   0.003  0.00  0.00    -0.009 C 
ATOM     21  C   UNL     1      -1.450  -0.541   0.025  0.00  0.00    +0.003 C 
ATOM     22  C   UNL     1      -1.432  -2.071   0.023  0.00  0.00    +0.002 C 
ATOM     23  C   UNL     1      -0.684  -2.574   1.260  0.00  0.00    +0.022 C 
ATOM     24  C   UNL     1       0.752  -2.046   1.237  0.00  0.00    +0.076 C 
ATOM     25  C   UNL     1       0.733  -0.517   1.240  0.00  0.00    +0.009 C 
ATOM     26  C   UNL     1       0.026  -0.017   2.501  0.00  0.00    +0.009 C 
ENDBRANCH  15  24
ENDBRANCH   1  16
TORSDOF 5
