REMARK  Name = ZINC05437205
REMARK  7 active torsions:
REMARK  status: ('A' for Active; 'I' for Inactive)
REMARK    1  A    between atoms: C_1  and  O_2
REMARK    2  A    between atoms: O_2  and  C_3
REMARK    3  A    between atoms: C_13  and  O_27
REMARK    4  A    between atoms: C_16  and  O_17
REMARK    5  A    between atoms: C_20  and  C_22
REMARK    6  A    between atoms: C_20  and  O_26
REMARK    7  A    between atoms: C_22  and  C_24
REMARK                            x       y       z     vdW  Elec       q    Type
REMARK                         _______ _______ _______ _____ _____    ______ ____
ROOT
ATOM      1  C   UNL     1      -3.978  11.615   4.536  0.00  0.00    +0.132 A 
ATOM      2  C   UNL     1      -5.253  12.136   4.744  0.00  0.00    +0.046 A 
ATOM      3  C   UNL     1      -6.348  11.299   4.804  0.00  0.00    +0.004 A 
ATOM      4  C   UNL     1      -6.197   9.929   4.659  0.00  0.00    +0.012 A 
ATOM      5  C   UNL     1      -4.934   9.388   4.449  0.00  0.00    +0.037 A 
ATOM      6  C   UNL     1      -3.812  10.236   4.387  0.00  0.00    +0.075 A 
ATOM      7  C   UNL     1      -2.471   9.661   4.164  0.00  0.00    +0.202 C 
ATOM      8  O   UNL     1      -1.474  10.331   4.355  0.00  0.00    -0.286 OA
ATOM      9  C   UNL     1      -2.355   8.263   3.707  0.00  0.00    +0.078 A 
ATOM     10  C   UNL     1      -3.478   7.411   3.771  0.00  0.00    +0.078 A 
ATOM     11  C   UNL     1      -3.362   6.093   3.340  0.00  0.00    +0.132 A 
ATOM     12  C   UNL     1      -2.142   5.612   2.844  0.00  0.00    +0.005 A 
ATOM     13  C   UNL     1      -1.052   6.442   2.776  0.00  0.00    +0.002 A 
ATOM     14  C   UNL     1      -1.152   7.772   3.211  0.00  0.00    +0.132 A 
ATOM     15  C   UNL     1       0.280   5.989   2.235  0.00  0.00    +0.042 C 
ATOM     16  C   UNL     1       0.362   4.465   2.211  0.00  0.00    +0.047 C 
ATOM     17  C   UNL     1      -0.885   3.926   1.501  0.00  0.00    +0.129 C 
ATOM     18  C   UNL     1      -2.094   4.173   2.401  0.00  0.00    +0.081 C 
ATOM     19  C   UNL     1      -4.757   7.928   4.291  0.00  0.00    +0.198 C 
ATOM     20  O   UNL     1      -5.656   7.163   4.586  0.00  0.00    -0.286 OA
ENDROOT
BRANCH   1  22
ATOM     21  C   UNL     1      -3.153  13.840   4.639  0.00  0.00    +0.277 C 
ATOM     22  O   UNL     1      -2.905  12.442   4.478  0.00  0.00    -0.494 OA
ENDBRANCH   1  22
BRANCH  14  23
ATOM     23  O   UNL     1      -0.068   8.584   3.147  0.00  0.00    -0.506 OA
ATOM     24  H   UNL     1       0.481   8.570   3.944  0.00  0.00    +0.292 HD
ENDBRANCH  14  23
BRANCH  17  25
ATOM     25  C   UNL     1      -0.730   2.448   1.253  0.00  0.00    +0.175 C 
ATOM     26  O   UNL     1      -1.171   1.653   2.048  0.00  0.00    -0.293 OA
BRANCH  25  27
ATOM     27  C   UNL     1      -0.025   1.962   0.013  0.00  0.00    +0.157 C 
ATOM     28 BR   UNL     1       0.002  -0.004   0.002  0.00  0.00    -0.084 Br
ENDBRANCH  25  27
ENDBRANCH  17  25
BRANCH  17  29
ATOM     29  O   UNL     1      -1.064   4.607   0.257  0.00  0.00    -0.381 OA
ATOM     30  H   UNL     1      -0.327   4.499  -0.360  0.00  0.00    +0.211 HD
ENDBRANCH  17  29
BRANCH  11  31
ATOM     31  O   UNL     1      -4.436   5.267   3.401  0.00  0.00    -0.506 OA
ATOM     32  H   UNL     1      -4.513   4.782   4.234  0.00  0.00    +0.292 HD
ENDBRANCH  11  31
TORSDOF 6
