REMARK  Name = ZINC09409109
REMARK  12 active torsions:
REMARK  status: ('A' for Active; 'I' for Inactive)
REMARK    1  A    between atoms: C_1  and  C_2
REMARK    2  A    between atoms: C_2  and  C_3
REMARK    3  A    between atoms: C_2  and  O_4
REMARK    4  A    between atoms: O_4  and  C_5
REMARK    5  A    between atoms: C_5  and  C_6
REMARK    6  A    between atoms: C_6  and  C_7
REMARK    7  A    between atoms: C_7  and  N_8
REMARK    8  A    between atoms: C_9  and  C_26
REMARK    9  A    between atoms: C_12  and  C_19
REMARK   10  A    between atoms: C_24  and  O_25
REMARK   11  A    between atoms: C_30  and  O_32
REMARK   12  A    between atoms: O_32  and  C_33
REMARK                            x       y       z     vdW  Elec       q    Type
REMARK                         _______ _______ _______ _____ _____    ______ ____
ROOT
ATOM      1  N   UNL     1      -5.186  -4.278  -1.337  0.00  0.00    -0.285 N 
ATOM      2  C   UNL     1      -5.533  -4.890  -0.048  0.00  0.00    +0.141 C 
ATOM      3  C   UNL     1      -7.036  -4.937  -0.001  0.00  0.00    +0.035 A 
ATOM      4  C   UNL     1      -8.183  -5.295   0.717  0.00  0.00    +0.102 A 
ATOM      5  N   UNL     1      -9.226  -4.967  -0.019  0.00  0.00    -0.173 NA
ATOM      6  N   UNL     1      -8.852  -4.438  -1.130  0.00  0.00    -0.272 N 
ATOM      7  H   UNL     1      -9.450  -4.121  -1.825  0.00  0.00    +0.189 HD
ATOM      8  C   UNL     1      -7.489  -4.388  -1.185  0.00  0.00    +0.126 A 
ATOM      9  C   UNL     1      -6.327  -3.986  -1.987  0.00  0.00    +0.265 C 
ATOM     10  O   UNL     1      -6.388  -3.465  -3.084  0.00  0.00    -0.268 OA
ENDROOT
BRANCH   4  11
ATOM     11  C   UNL     1      -8.218  -5.927   2.059  0.00  0.00    +0.044 A 
ATOM     12  C   UNL     1      -7.031  -6.215   2.727  0.00  0.00    +0.014 A 
ATOM     13  C   UNL     1      -7.068  -6.803   3.976  0.00  0.00    +0.001 A 
ATOM     14  C   UNL     1      -8.282  -7.107   4.566  0.00  0.00    +0.004 A 
ATOM     15  C   UNL     1      -9.466  -6.826   3.911  0.00  0.00    +0.046 A 
ATOM     16  C   UNL     1      -9.442  -6.231   2.660  0.00  0.00    +0.126 A 
BRANCH  16  17
ATOM     17  O   UNL     1     -10.606  -5.948   2.017  0.00  0.00    -0.506 OA
ATOM     18  H   UNL     1     -10.929  -6.666   1.455  0.00  0.00    +0.292 HD
ENDBRANCH  16  17
ENDBRANCH   4  11
BRANCH   2  19
ATOM     19  C   UNL     1      -4.966  -6.283   0.034  0.00  0.00    -0.019 A 
ATOM     20  C   UNL     1      -4.990  -7.106  -1.077  0.00  0.00    +0.006 A 
ATOM     21  C   UNL     1      -4.470  -8.385  -1.005  0.00  0.00    +0.004 A 
ATOM     22  C   UNL     1      -3.925  -8.844   0.178  0.00  0.00    +0.046 A 
ATOM     23  C   UNL     1      -3.899  -8.021   1.295  0.00  0.00    +0.129 A 
ATOM     24  C   UNL     1      -4.417  -6.736   1.218  0.00  0.00    +0.052 A 
BRANCH  23  25
ATOM     25  O   UNL     1      -3.364  -8.471   2.460  0.00  0.00    -0.456 OA
BRANCH  25  26
ATOM     26  C   UNL     1      -2.857  -9.732   2.484  0.00  0.00    +0.128 A 
ATOM     27  C   UNL     1      -1.524  -9.951   2.168  0.00  0.00    +0.046 A 
ATOM     28  C   UNL     1      -1.011 -11.234   2.194  0.00  0.00    +0.004 A 
ATOM     29  C   UNL     1      -1.826 -12.298   2.534  0.00  0.00    +0.000 A 
ATOM     30  C   UNL     1      -3.155 -12.082   2.849  0.00  0.00    +0.004 A 
ATOM     31  C   UNL     1      -3.671 -10.801   2.831  0.00  0.00    +0.046 A 
ENDBRANCH  25  26
ENDBRANCH  23  25
ENDBRANCH   2  19
BRANCH   1  32
ATOM     32  C   UNL     1      -3.830  -4.023  -1.829  0.00  0.00    +0.111 C 
BRANCH  32  33
ATOM     33  C   UNL     1      -3.378  -2.631  -1.381  0.00  0.00    +0.047 C 
BRANCH  33  34
ATOM     34  C   UNL     1      -1.961  -2.365  -1.894  0.00  0.00    +0.161 C 
BRANCH  34  35
ATOM     35  O   UNL     1      -1.540  -1.066  -1.475  0.00  0.00    -0.377 OA
BRANCH  35  37
ATOM     36  C   UNL     1      -0.133   0.799  -2.095  0.00  0.00    +0.037 C 
ATOM     37  C   UNL     1      -0.222  -0.716  -1.905  0.00  0.00    +0.112 C 
ATOM     38  C   UNL     1       0.793  -1.158  -0.848  0.00  0.00    +0.037 C 
ENDBRANCH  35  37
ENDBRANCH  34  35
ENDBRANCH  33  34
ENDBRANCH  32  33
ENDBRANCH   1  32
TORSDOF 10
