REMARK  Name = ZINC39980448
REMARK  7 active torsions:
REMARK  status: ('A' for Active; 'I' for Inactive)
REMARK    1  A    between atoms: C_1  and  C_2
REMARK    2  A    between atoms: C_5  and  S_8
REMARK    3  A    between atoms: S_8  and  N_11
REMARK    4  A    between atoms: C_13  and  N_23
REMARK    5  A    between atoms: N_23  and  C_24
REMARK    6  A    between atoms: C_28  and  C_30
REMARK    7  A    between atoms: C_33  and  N_36
REMARK                            x       y       z     vdW  Elec       q    Type
REMARK                         _______ _______ _______ _____ _____    ______ ____
ROOT
ATOM      1  N   UNL     1       1.679  -4.669   0.334  0.00  0.00    -0.110 NA
ATOM      2  C   UNL     1       1.891  -5.928   0.091  0.00  0.00    +0.192 C 
ATOM      3  C   UNL     1       3.300  -6.449  -0.082  0.00  0.00    +0.237 C 
ATOM      4  N   UNL     1       3.473  -7.885  -0.354  0.00  0.00    -0.359 N 
ATOM      5  C   UNL     1       2.410  -8.636  -0.434  0.00  0.00    +0.063 A 
ATOM      6  C   UNL     1       2.529 -10.076  -0.704  0.00  0.00    +0.027 A 
ATOM      7  C   UNL     1       1.405 -10.822  -0.778  0.00  0.00    +0.002 A 
ATOM      8  C   UNL     1       0.131 -10.257  -0.604  0.00  0.00    +0.002 A 
ATOM      9  C   UNL     1      -0.058  -8.943  -0.353  0.00  0.00    +0.030 A 
ATOM     10  C   UNL     1       1.052  -8.066  -0.254  0.00  0.00    +0.089 A 
ATOM     11  N   UNL     1       0.863  -6.787  -0.005  0.00  0.00    -0.226 NA
ATOM     12  H   UNL     1       4.358  -8.264  -0.473  0.00  0.00    +0.162 HD
ENDROOT
BRANCH   1  13
ATOM     13  S   UNL     1       0.131  -4.113   0.528  0.00  0.00    +0.100 S 
ATOM     14  O   UNL     1      -0.369  -4.709   1.717  0.00  0.00    -0.146 OA
ATOM     15  O   UNL     1      -0.515  -4.262  -0.729  0.00  0.00    -0.146 OA
BRANCH  13  20
ATOM     16  C   UNL     1       0.482   1.816   1.590  0.00  0.00    +0.044 C 
ATOM     17  C   UNL     1       0.395   0.336   1.325  0.00  0.00    -0.050 A 
ATOM     18  C   UNL     1       0.285  -0.129   0.027  0.00  0.00    +0.005 A 
ATOM     19  C   UNL     1       0.205  -1.487  -0.216  0.00  0.00    +0.029 A 
ATOM     20  C   UNL     1       0.234  -2.381   0.838  0.00  0.00    +0.113 A 
ATOM     21  C   UNL     1       0.345  -1.917   2.135  0.00  0.00    +0.029 A 
ATOM     22  C   UNL     1       0.430  -0.559   2.378  0.00  0.00    +0.005 A 
ENDBRANCH  13  20
ENDBRANCH   1  13
BRANCH   3  23
ATOM     23  N   UNL     1       4.046  -6.133   1.138  0.00  0.00    -0.318 N 
ATOM     24  H   UNL     1       3.638  -6.275   2.007  0.00  0.00    +0.148 HD
BRANCH  23  25
ATOM     25  C   UNL     1       5.346  -5.628   1.051  0.00  0.00    +0.029 A 
ATOM     26  C   UNL     1       5.986  -5.565  -0.181  0.00  0.00    +0.023 A 
ATOM     27  C   UNL     1       7.271  -5.066  -0.271  0.00  0.00    +0.002 A 
ATOM     28  C   UNL     1       7.926  -4.626   0.863  0.00  0.00    +0.008 A 
ATOM     29  C   UNL     1       7.292  -4.684   2.102  0.00  0.00    -0.016 A 
ATOM     30  C   UNL     1       5.995  -5.182   2.193  0.00  0.00    +0.031 A 
BRANCH  29  31
ATOM     31  C   UNL     1       7.995  -4.212   3.321  0.00  0.00    -0.018 A 
ATOM     32  C   UNL     1       7.363  -4.275   4.561  0.00  0.00    +0.011 A 
ATOM     33  C   UNL     1       8.021  -3.835   5.691  0.00  0.00    +0.033 A 
ATOM     34  C   UNL     1       9.306  -3.331   5.594  0.00  0.00    +0.126 A 
ATOM     35  C   UNL     1       9.938  -3.265   4.365  0.00  0.00    +0.033 A 
ATOM     36  C   UNL     1       9.291  -3.709   3.229  0.00  0.00    +0.011 A 
BRANCH  34  37
ATOM     37  N   UNL     1      10.007  -2.860   6.810  0.00  0.00    +0.056 N 
ATOM     38  O   UNL     1       9.456  -2.915   7.885  0.00  0.00    -0.126 OA
ATOM     39  O   UNL     1      11.129  -2.419   6.727  0.00  0.00    -0.126 OA
ENDBRANCH  34  37
ENDBRANCH  29  31
ENDBRANCH  23  25
ENDBRANCH   3  23
TORSDOF 6
