REMARK  Name = ZINC05086164
REMARK  7 active torsions:
REMARK  status: ('A' for Active; 'I' for Inactive)
REMARK    1  A    between atoms: C_1  and  C_2
REMARK    2  A    between atoms: C_2  and  O_3
REMARK    3  A    between atoms: O_3  and  C_4
REMARK    4  A    between atoms: C_16  and  C_19
REMARK    5  A    between atoms: N_21  and  C_22
REMARK    6  A    between atoms: C_27  and  C_32
REMARK    7  A    between atoms: C_29  and  C_31
REMARK                            x       y       z     vdW  Elec       q    Type
REMARK                         _______ _______ _______ _____ _____    ______ ____
ROOT
ATOM      1  C   UNL     1      -0.148   1.182   2.380  0.00  0.00    +0.122 A 
ATOM      2  C   UNL     1       0.995   0.390   2.430  0.00  0.00    +0.048 A 
ATOM      3  C   UNL     1       1.552   0.014   3.624  0.00  0.00    +0.032 A 
ATOM      4  C   UNL     1       0.974   0.413   4.851  0.00  0.00    +0.081 A 
ATOM      5  C   UNL     1      -0.188   1.211   4.764  0.00  0.00    +0.044 A 
ATOM      6  C   UNL     1      -0.741   1.590   3.566  0.00  0.00    +0.063 A 
ATOM      7  S   UNL     1      -0.587   1.486   6.474  0.00  0.00    -0.052 S 
ATOM      8  C   UNL     1       0.768   0.555   7.174  0.00  0.00    +0.162 A 
ATOM      9  N   UNL     1       1.395   0.124   6.103  0.00  0.00    -0.225 NA
ATOM     10  N   UNL     1       1.078   0.343   8.503  0.00  0.00    -0.310 N 
ATOM     11  C   UNL     1      -0.058  -0.253   9.219  0.00  0.00    +0.108 C 
ATOM     12  C   UNL     1       0.268  -0.339  10.712  0.00  0.00    +0.032 C 
ATOM     13  C   UNL     1       1.523  -1.194  10.907  0.00  0.00    +0.078 C 
ATOM     14  C   UNL     1       2.678  -0.579  10.112  0.00  0.00    +0.032 C 
ATOM     15  C   UNL     1       2.283  -0.486   8.636  0.00  0.00    +0.108 C 
ENDROOT
BRANCH  13  16
ATOM     16  C   UNL     1       1.883  -1.233  12.370  0.00  0.00    +0.216 C 
ATOM     17  O   UNL     1       2.958  -0.811  12.741  0.00  0.00    -0.276 OA
ATOM     18  N   UNL     1       1.011  -1.737  13.265  0.00  0.00    -0.312 N 
ATOM     19  H   UNL     1       0.152  -2.075  12.968  0.00  0.00    +0.149 HD
BRANCH  18  20
ATOM     20  C   UNL     1       1.361  -1.776  14.687  0.00  0.00    +0.076 C 
ATOM     21  C   UNL     1       2.168  -3.042  14.980  0.00  0.00    +0.022 C 
ATOM     22  C   UNL     1       1.330  -4.273  14.627  0.00  0.00    +0.002 C 
ATOM     23  C   UNL     1       0.051  -4.278  15.467  0.00  0.00    +0.003 C 
ATOM     24  C   UNL     1      -0.755  -3.011  15.175  0.00  0.00    -0.009 C 
ATOM     25  C   UNL     1       0.082  -1.780  15.527  0.00  0.00    +0.009 C 
ATOM     26  C   UNL     1      -0.724  -0.513  15.234  0.00  0.00    +0.009 C 
ATOM     27  C   UNL     1      -2.034  -3.015  16.015  0.00  0.00    +0.008 C 
ENDBRANCH  18  20
ENDBRANCH  13  16
BRANCH   1  28
ATOM     28  O   UNL     1      -0.682   1.547   1.184  0.00  0.00    -0.492 OA
BRANCH  28  30
ATOM     29  C   UNL     1      -0.753   1.593  -1.232  0.00  0.00    +0.048 C 
ATOM     30  C   UNL     1      -0.013   1.086   0.008  0.00  0.00    +0.225 C 
ENDBRANCH  28  30
ENDBRANCH   1  28
TORSDOF 4
