REMARK  Name = ZINC23581941
REMARK  5 active torsions:
REMARK  status: ('A' for Active; 'I' for Inactive)
REMARK    1  A    between atoms: C_1  and  C_2
REMARK    2  A    between atoms: C_2  and  C_3
REMARK    3  A    between atoms: C_6  and  C_9
REMARK    4  A    between atoms: C_19  and  C_21
REMARK    5  A    between atoms: C_22  and  C_26
REMARK                            x       y       z     vdW  Elec       q    Type
REMARK                         _______ _______ _______ _____ _____    ______ ____
ROOT
ATOM      1  C   UNL     1       3.032  -2.881  -4.638  0.00  0.00    +0.097 A 
ATOM      2  C   UNL     1       4.207  -2.250  -5.068  0.00  0.00    +0.018 A 
ATOM      3  C   UNL     1       4.583  -2.813  -6.242  0.00  0.00    +0.043 A 
ATOM      4  N   UNL     1       3.680  -3.762  -6.552  0.00  0.00    -0.281 N 
ATOM      5  H   UNL     1       3.694  -4.326  -7.341  0.00  0.00    +0.189 HD
ATOM      6  N   UNL     1       2.717  -3.797  -5.533  0.00  0.00    -0.173 NA
ATOM      7  C   UNL     1       5.809  -2.418  -7.025  0.00  0.00    +0.074 C 
ATOM      8  C   UNL     1       6.277  -1.037  -6.548  0.00  0.00    +0.114 C 
ATOM      9  N   UNL     1       6.261  -1.003  -5.079  0.00  0.00    -0.290 N 
ATOM     10  C   UNL     1       4.965  -1.134  -4.389  0.00  0.00    +0.147 C 
ATOM     11  C   UNL     1       7.404  -0.856  -4.379  0.00  0.00    +0.284 C 
ATOM     12  O   UNL     1       8.475  -0.860  -4.956  0.00  0.00    -0.267 OA
ENDROOT
BRANCH   1  16
ATOM     13  C   UNL     1       0.876  -2.008  -1.078  0.00  0.00    -0.048 A 
ATOM     14  C   UNL     1       0.194  -2.384  -2.221  0.00  0.00    +0.004 A 
ATOM     15  C   UNL     1       0.889  -2.668  -3.380  0.00  0.00    +0.010 A 
ATOM     16  C   UNL     1       2.279  -2.576  -3.396  0.00  0.00    +0.002 A 
ATOM     17  C   UNL     1       2.960  -2.197  -2.241  0.00  0.00    +0.010 A 
ATOM     18  C   UNL     1       2.255  -1.910  -1.089  0.00  0.00    +0.004 A 
BRANCH  13  20
ATOM     19  C   UNL     1      -0.248  -0.212   0.210  0.00  0.00    +0.009 C 
ATOM     20  C   UNL     1       0.112  -1.699   0.184  0.00  0.00    +0.032 C 
ENDBRANCH  13  20
ENDBRANCH   1  16
BRANCH  11  21
ATOM     21  C   UNL     1       7.356  -0.691  -2.922  0.00  0.00    +0.212 A 
ATOM     22  C   UNL     1       8.420  -0.667  -2.070  0.00  0.00    +0.089 A 
ATOM     23  N   UNL     1       7.941  -0.497  -0.834  0.00  0.00    -0.221 NA
ATOM     24  C   UNL     1       6.638  -0.416  -0.890  0.00  0.00    +0.309 A 
ATOM     25  O   UNL     1       6.247  -0.527  -2.164  0.00  0.00    -0.438 OA
ATOM     26  C   UNL     1       9.871  -0.807  -2.452  0.00  0.00    +0.070 C 
ENDBRANCH  11  21
TORSDOF 3
