REMARK  Name = ZINC31351765
REMARK  21 active torsions:
REMARK  status: ('A' for Active; 'I' for Inactive)
REMARK    1  A    between atoms: C_1  and  C_2
REMARK    2  A    between atoms: C_2  and  C_34
REMARK    3  A    between atoms: C_4  and  C_10
REMARK    4  A    between atoms: C_6  and  C_8
REMARK    5  A    between atoms: C_6  and  C_9
REMARK    6  A    between atoms: C_10  and  O_12
REMARK    7  A    between atoms: O_12  and  C_13
REMARK    8  A    between atoms: C_13  and  C_14
REMARK    9  A    between atoms: C_14  and  C_15
REMARK   10  A    between atoms: C_15  and  C_16
REMARK   11  A    between atoms: C_16  and  C_17
REMARK   12  A    between atoms: C_17  and  C_18
REMARK   13  A    between atoms: C_18  and  C_19
REMARK   14  A    between atoms: C_19  and  C_20
REMARK   15  A    between atoms: C_20  and  O_21
REMARK   16  A    between atoms: O_21  and  C_22
REMARK   17  A    between atoms: C_22  and  C_24
REMARK   18  A    between atoms: C_26  and  C_32
REMARK   19  A    between atoms: C_26  and  C_33
REMARK   20  A    between atoms: C_28  and  C_30
REMARK   21  A    between atoms: C_28  and  C_31
REMARK                            x       y       z     vdW  Elec       q    Type
REMARK                         _______ _______ _______ _____ _____    ______ ____
ROOT
ATOM      1  C   UNL     1      -2.022   9.845  -4.293  0.00  0.00    +0.000 C 
ENDROOT
BRANCH   1   2
ATOM      2  C   UNL     1      -1.139   9.285  -3.177  0.00  0.00    +0.003 C 
BRANCH   2   3
ATOM      3  C   UNL     1      -1.181   7.756  -3.212  0.00  0.00    +0.041 C 
BRANCH   3   4
ATOM      4  C   UNL     1      -0.298   7.195  -2.096  0.00  0.00    +0.232 C 
BRANCH   4   5
ATOM      5  O   UNL     1      -0.338   5.744  -2.130  0.00  0.00    -0.464 OA
BRANCH   5   6
ATOM      6  C   UNL     1       0.389   5.092  -1.208  0.00  0.00    +0.310 C 
ATOM      7  O   UNL     1       1.037   5.714  -0.400  0.00  0.00    -0.251 OA
BRANCH   6  11
ATOM      8  C   UNL     1      -0.944   0.975  -2.269  0.00  0.00    -0.010 C 
ATOM      9  C   UNL     1      -1.042   1.551  -0.852  0.00  0.00    -0.073 C 
ATOM     10  C   UNL     1      -1.021   3.076  -0.918  0.00  0.00    +0.001 C 
ATOM     11  C   UNL     1       0.396   3.583  -1.182  0.00  0.00    +0.095 C 
ATOM     12  C   UNL     1       1.298   3.104  -0.042  0.00  0.00    +0.001 C 
ATOM     13  C   UNL     1       1.320   1.577  -0.002  0.00  0.00    -0.073 C 
ATOM     14  N   UNL     1      -0.012   1.005   0.008  0.00  0.00    +0.386 N 
ATOM     15  C   UNL     1       2.035   1.156   1.301  0.00  0.00    -0.010 C 
ATOM     16  C   UNL     1       2.151   1.040  -1.172  0.00  0.00    -0.010 C 
ATOM     17  C   UNL     1      -2.415   1.130  -0.282  0.00  0.00    -0.010 C 
ATOM     18  H   UNL     1      -0.328   1.088   1.058  0.00  0.00    -0.084 HD
ATOM     19  H   UNL     1       0.152  -0.053  -0.244  0.00  0.00    -0.084 HD
ENDBRANCH   6  11
ENDBRANCH   5   6
ENDBRANCH   4   5
ENDBRANCH   3   4
ENDBRANCH   2   3
ENDBRANCH   1   2
BRANCH   1  20
ATOM     20  C   UNL     1      -1.979  11.374  -4.257  0.00  0.00    +0.000 C 
BRANCH  20  21
ATOM     21  C   UNL     1      -2.862  11.935  -5.374  0.00  0.00    +0.003 C 
BRANCH  21  22
ATOM     22  C   UNL     1      -2.820  13.464  -5.338  0.00  0.00    +0.041 C 
BRANCH  22  23
ATOM     23  C   UNL     1      -3.703  14.025  -6.455  0.00  0.00    +0.232 C 
BRANCH  23  24
ATOM     24  O   UNL     1      -3.663  15.476  -6.421  0.00  0.00    -0.464 OA
BRANCH  24  25
ATOM     25  C   UNL     1      -4.390  16.128  -7.342  0.00  0.00    +0.310 C 
ATOM     26  O   UNL     1      -5.038  15.506  -8.150  0.00  0.00    -0.251 OA
BRANCH  25  27
ATOM     27  C   UNL     1      -4.397  17.638  -7.369  0.00  0.00    +0.095 C 
ATOM     28  C   UNL     1      -4.962  18.162  -6.049  0.00  0.00    +0.001 C 
ATOM     29  C   UNL     1      -5.003  19.688  -6.056  0.00  0.00    -0.073 C 
ATOM     30  N   UNL     1      -5.615  20.232  -7.250  0.00  0.00    +0.386 N 
ATOM     31  C   UNL     1      -5.341  19.642  -8.544  0.00  0.00    -0.073 C 
ATOM     32  C   UNL     1      -5.298  18.117  -8.507  0.00  0.00    +0.001 C 
ATOM     33  C   UNL     1      -4.028  20.177  -9.130  0.00  0.00    -0.010 C 
ATOM     34  C   UNL     1      -6.473  20.053  -9.511  0.00  0.00    -0.010 C 
ATOM     35  C   UNL     1      -3.585  20.239  -5.860  0.00  0.00    -0.010 C 
ATOM     36  C   UNL     1      -5.840  20.137  -4.838  0.00  0.00    -0.010 C 
ATOM     37  H   UNL     1      -6.710  20.172  -7.161  0.00  0.00    -0.084 HD
ATOM     38  H   UNL     1      -5.314  21.283  -7.371  0.00  0.00    -0.084 HD
ENDBRANCH  25  27
ENDBRANCH  24  25
ENDBRANCH  23  24
ENDBRANCH  22  23
ENDBRANCH  21  22
ENDBRANCH  20  21
ENDBRANCH   1  20
TORSDOF 13
