REMARK  Name = ZINC38836521
REMARK  7 active torsions:
REMARK  status: ('A' for Active; 'I' for Inactive)
REMARK    1  A    between atoms: C_4  and  S_7
REMARK    2  A    between atoms: S_7  and  C_8
REMARK    3  A    between atoms: C_8  and  C_9
REMARK    4  A    between atoms: C_9  and  N_10
REMARK    5  A    between atoms: C_11  and  C_13
REMARK    6  A    between atoms: N_18  and  C_20
REMARK    7  A    between atoms: C_20  and  C_21
REMARK                            x       y       z     vdW  Elec       q    Type
REMARK                         _______ _______ _______ _____ _____    ______ ____
ROOT
ATOM      1  C   UNL     1       4.899  -7.271  -0.086  0.00  0.00    +0.058 C 
ATOM      2  C   UNL     1       4.083  -7.583   1.172  0.00  0.00    +0.009 C 
ATOM      3  C   UNL     1       3.755  -9.079   1.198  0.00  0.00    -0.018 C 
ATOM      4  C   UNL     1       5.056  -9.882   1.136  0.00  0.00    -0.078 C 
ATOM      5  N   UNL     1       5.777  -9.558  -0.101  0.00  0.00    +0.383 N 
ATOM      6  C   UNL     1       6.157  -8.141  -0.101  0.00  0.00    -0.066 C 
ATOM      7  H   UNL     1       5.182  -9.745  -0.894  0.00  0.00    -0.081 HD
ENDROOT
BRANCH   1   9
ATOM      8  N   UNL     1       4.342  -4.861  -0.067  0.00  0.00    -0.314 N 
ATOM      9  C   UNL     1       5.292  -5.816  -0.082  0.00  0.00    +0.214 C 
ATOM     10  O   UNL     1       6.464  -5.505  -0.092  0.00  0.00    -0.276 OA
ATOM     11  H   UNL     1       3.404  -5.109  -0.059  0.00  0.00    +0.149 HD
BRANCH   8  12
ATOM     12  C   UNL     1       4.724  -3.447  -0.064  0.00  0.00    +0.115 C 
BRANCH  12  13
ATOM     13  C   UNL     1       3.465  -2.578  -0.046  0.00  0.00    +0.093 C 
BRANCH  13  14
ATOM     14  S   UNL     1       3.939  -0.827  -0.042  0.00  0.00    -0.124 S 
BRANCH  14  18
ATOM     15  C   UNL     1      -0.017   1.379   0.010  0.00  0.00    +0.000 A 
ATOM     16  C   UNL     1       1.169   2.090   0.002  0.00  0.00    +0.001 A 
ATOM     17  C   UNL     1       2.377   1.421  -0.013  0.00  0.00    +0.015 A 
ATOM     18  C   UNL     1       2.400   0.031  -0.021  0.00  0.00    +0.008 A 
ATOM     19  C   UNL     1       1.206  -0.680  -0.013  0.00  0.00    +0.015 A 
ATOM     20  C   UNL     1       0.002  -0.004   0.002  0.00  0.00    +0.001 A 
ENDBRANCH  14  18
ENDBRANCH  13  14
ENDBRANCH  12  13
ENDBRANCH   8  12
ENDBRANCH   1   9
BRANCH   5  21
ATOM     21  C   UNL     1       6.985 -10.388  -0.193  0.00  0.00    -0.043 C 
BRANCH  21  22
ATOM     22  C   UNL     1       6.591 -11.836  -0.328  0.00  0.00    -0.064 A 
ATOM     23  C   UNL     1       6.418 -12.613   0.803  0.00  0.00    +0.003 A 
ATOM     24  C   UNL     1       6.056 -13.941   0.680  0.00  0.00    +0.015 A 
ATOM     25  C   UNL     1       5.867 -14.494  -0.574  0.00  0.00    +0.018 A 
ATOM     26  C   UNL     1       6.041 -13.716  -1.705  0.00  0.00    +0.015 A 
ATOM     27  C   UNL     1       6.398 -12.387  -1.581  0.00  0.00    +0.003 A 
ATOM     28 BR   UNL     1       5.373 -16.311  -0.742  0.00  0.00    -0.050 Br
ENDBRANCH  21  22
ENDBRANCH   5  21
TORSDOF 7
