REMARK  Name = ZINC02745844
REMARK  9 active torsions:
REMARK  status: ('A' for Active; 'I' for Inactive)
REMARK    1  A    between atoms: C_1  and  C_2
REMARK    2  A    between atoms: C_2  and  C_3
REMARK    3  A    between atoms: C_3  and  C_5
REMARK    4  A    between atoms: C_3  and  O_18
REMARK    5  A    between atoms: N_7  and  C_8
REMARK    6  A    between atoms: C_11  and  S_14
REMARK    7  A    between atoms: S_14  and  N_17
REMARK    8  A    between atoms: O_18  and  C_19
REMARK    9  A    between atoms: C_19  and  C_21
REMARK                            x       y       z     vdW  Elec       q    Type
REMARK                         _______ _______ _______ _____ _____    ______ ____
ROOT
ATOM      1  C   UNL     1      -0.601   2.381  -5.684  0.00  0.00    +0.262 C 
ENDROOT
BRANCH   1   2
ATOM      2  C   UNL     1       0.698   1.672  -5.970  0.00  0.00    +0.258 C 
ATOM      3  O   UNL     1       1.597   1.702  -5.156  0.00  0.00    -0.271 OA
ATOM      4  N   UNL     1       0.860   1.003  -7.128  0.00  0.00    -0.282 N 
ATOM      5  H   UNL     1       0.170   1.039  -7.810  0.00  0.00    +0.155 HD
BRANCH   4   6
ATOM      6  C   UNL     1       2.023   0.258  -7.349  0.00  0.00    +0.034 A 
ATOM      7  C   UNL     1       2.546   0.146  -8.631  0.00  0.00    +0.025 A 
ATOM      8  C   UNL     1       3.697  -0.586  -8.845  0.00  0.00    +0.030 A 
ATOM      9  C   UNL     1       4.324  -1.217  -7.785  0.00  0.00    +0.105 A 
ATOM     10  C   UNL     1       3.803  -1.112  -6.509  0.00  0.00    +0.030 A 
ATOM     11  C   UNL     1       2.655  -0.377  -6.287  0.00  0.00    +0.025 A 
BRANCH   9  12
ATOM     12  S   UNL     1       5.789  -2.155  -8.063  0.00  0.00    +0.056 S 
ATOM     13  O   UNL     1       6.377  -1.648  -9.254  0.00  0.00    -0.153 OA
ATOM     14  O   UNL     1       6.487  -2.193  -6.826  0.00  0.00    -0.153 OA
BRANCH  12  15
ATOM     15  N   UNL     1       5.321  -3.709  -8.391  0.00  0.00    -0.204 NA
ATOM     16  H   UNL     1       5.862  -4.266  -8.972  0.00  0.00    +0.144 HD
ATOM     17  H   UNL     1       4.505  -4.062  -8.002  0.00  0.00    +0.144 HD
ENDBRANCH  12  15
ENDBRANCH   9  12
ENDBRANCH   4   6
ENDBRANCH   1   2
BRANCH   1  19
ATOM     18  C   UNL     1      -2.239   4.051  -6.562  0.00  0.00    +0.008 C 
ATOM     19  C   UNL     1      -0.851   3.440  -6.760  0.00  0.00    +0.051 C 
ENDBRANCH   1  19
BRANCH   1  20
ATOM     20  O   UNL     1      -0.527   3.021  -4.383  0.00  0.00    -0.448 OA
BRANCH  20  21
ATOM     21  C   UNL     1      -1.651   3.028  -3.640  0.00  0.00    +0.341 C 
ATOM     22  O   UNL     1      -2.691   2.608  -4.108  0.00  0.00    -0.245 OA
BRANCH  21  23
ATOM     23  C   UNL     1      -1.620   3.547  -2.257  0.00  0.00    +0.073 A 
ATOM     24  C   UNL     1      -1.763   4.932  -1.998  0.00  0.00    +0.015 A 
ATOM     25  C   UNL     1      -1.939   5.859  -3.032  0.00  0.00    +0.011 A 
ATOM     26  C   UNL     1      -2.074   7.182  -2.735  0.00  0.00    +0.001 A 
ATOM     27  C   UNL     1      -2.039   7.625  -1.414  0.00  0.00    +0.002 A 
ATOM     28  C   UNL     1      -1.870   6.750  -0.386  0.00  0.00    +0.028 A 
ATOM     29  C   UNL     1      -1.727   5.376  -0.653  0.00  0.00    +0.072 A 
ATOM     30  N   UNL     1      -1.559   4.496   0.332  0.00  0.00    -0.251 NA
ATOM     31  C   UNL     1      -1.421   3.202   0.115  0.00  0.00    +0.046 A 
ATOM     32  C   UNL     1      -1.449   2.686  -1.174  0.00  0.00    -0.012 A 
ATOM     33  C   UNL     1      -1.303   1.216  -1.466  0.00  0.00    +0.038 C 
ATOM     34  C   UNL     1      -0.706   0.486  -0.265  0.00  0.00    +0.005 C 
ATOM     35  C   UNL     1      -1.516   0.863   0.981  0.00  0.00    +0.006 C 
ATOM     36  C   UNL     1      -1.224   2.321   1.325  0.00  0.00    +0.056 C 
ENDBRANCH  21  23
ENDBRANCH  20  21
ENDBRANCH   1  20
TORSDOF 8
