REMARK  Name = ZINC64984151
REMARK  4 active torsions:
REMARK  status: ('A' for Active; 'I' for Inactive)
REMARK    1  A    between atoms: C_1  and  C_2
REMARK    2  A    between atoms: C_5  and  C_7
REMARK    3  A    between atoms: N_14  and  S_15
REMARK    4  A    between atoms: S_15  and  C_18
REMARK                            x       y       z     vdW  Elec       q    Type
REMARK                         _______ _______ _______ _____ _____    ______ ____
ROOT
ATOM      1  C   UNL     1       1.825  -5.006   1.247  0.00  0.00    +0.116 C 
ATOM      2  C   UNL     1       1.423  -5.535  -0.152  0.00  0.00    +0.026 C 
ATOM      3  C   UNL     1       2.233  -6.711  -0.506  0.00  0.00    +0.002 C 
ATOM      4  C   UNL     1       3.728  -6.433  -0.622  0.00  0.00    +0.001 C 
ATOM      5  C   UNL     1       4.362  -6.524   0.745  0.00  0.00    +0.017 C 
ATOM      6  C   UNL     1       4.380  -5.137   1.413  0.00  0.00    +0.110 C 
ATOM      7  N   UNL     1       3.130  -4.389   1.176  0.00  0.00    -0.168 NA
ENDROOT
BRANCH   1  12
ATOM      8  C   UNL     1      -2.164  -1.059   2.018  0.00  0.00    +0.051 C 
ATOM      9  C   UNL     1      -1.086  -2.110   2.076  0.00  0.00    -0.013 A 
ATOM     10  C   UNL     1      -0.472  -2.645   3.159  0.00  0.00    +0.011 A 
ATOM     11  C   UNL     1       0.501  -3.608   2.971  0.00  0.00    +0.013 A 
ATOM     12  C   UNL     1       0.813  -3.989   1.709  0.00  0.00    +0.009 A 
ATOM     13  S   UNL     1      -0.290  -2.978   0.734  0.00  0.00    -0.097 S 
ENDBRANCH   1  12
BRANCH   7  14
ATOM     14  S   UNL     1       3.227  -2.776   0.814  0.00  0.00    +0.068 S 
ATOM     15  O   UNL     1       4.598  -2.497   0.565  0.00  0.00    -0.152 OA
ATOM     16  O   UNL     1       2.210  -2.513  -0.143  0.00  0.00    -0.152 OA
BRANCH  14  17
ATOM     17  C   UNL     1       2.788  -1.888   2.271  0.00  0.00    +0.144 A 
ATOM     18  C   UNL     1       3.358  -1.930   3.500  0.00  0.00    +0.038 A 
ATOM     19  C   UNL     1       2.841  -1.136   4.507  0.00  0.00    +0.030 A 
ATOM     20  C   UNL     1       1.778  -0.339   4.234  0.00  0.00    +0.080 A 
ATOM     21  S   UNL     1       1.483  -0.693   2.510  0.00  0.00    -0.057 S 
ATOM     22 CL   UNL     1       0.930   0.750   5.287  0.00  0.00    -0.076 Cl
ENDBRANCH  14  17
ENDBRANCH   7  14
TORSDOF 3
