REMARK  Name = ZINC16753243
REMARK  10 active torsions:
REMARK  status: ('A' for Active; 'I' for Inactive)
REMARK    1  A    between atoms: C_1  and  C_2
REMARK    2  A    between atoms: C_2  and  C_4
REMARK    3  A    between atoms: C_2  and  O_18
REMARK    4  A    between atoms: C_4  and  C_6
REMARK    5  A    between atoms: C_15  and  C_17
REMARK    6  A    between atoms: O_18  and  C_19
REMARK    7  A    between atoms: C_19  and  C_21
REMARK    8  A    between atoms: C_24  and  N_29
REMARK    9  A    between atoms: C_26  and  O_27
REMARK   10  A    between atoms: O_27  and  C_28
REMARK                            x       y       z     vdW  Elec       q    Type
REMARK                         _______ _______ _______ _____ _____    ______ ____
ROOT
ATOM      1  C   UNL     1      -0.020   1.520   0.014  0.00  0.00    +0.061 C 
ATOM      2  C   UNL     1       0.002  -0.010   0.004  0.00  0.00    +0.244 C 
ENDROOT
BRANCH   2   3
ATOM      3  C   UNL     1       0.708  -0.495  -1.236  0.00  0.00    +0.203 C 
ATOM      4  O   UNL     1       0.063  -0.872  -2.192  0.00  0.00    -0.288 OA
BRANCH   3   5
ATOM      5  C   UNL     1       2.175  -0.510  -1.288  0.00  0.00    +0.022 A 
ATOM      6  C   UNL     1       2.925  -0.081  -0.185  0.00  0.00    +0.013 A 
ATOM      7  C   UNL     1       4.286  -0.095  -0.235  0.00  0.00    +0.024 A 
ATOM      8  C   UNL     1       4.954  -0.537  -1.384  0.00  0.00    +0.040 A 
ATOM      9  C   UNL     1       4.212  -0.964  -2.479  0.00  0.00    -0.024 A 
ATOM     10  C   UNL     1       2.836  -0.959  -2.437  0.00  0.00    +0.017 A 
ATOM     11  C   UNL     1       5.169  -1.384  -3.572  0.00  0.00    +0.056 C 
ATOM     12  C   UNL     1       6.565  -1.147  -2.974  0.00  0.00    +0.118 C 
ATOM     13  N   UNL     1       6.322  -0.626  -1.626  0.00  0.00    -0.271 N 
ATOM     14  C   UNL     1       7.285  -0.281  -0.748  0.00  0.00    +0.217 C 
ATOM     15  O   UNL     1       6.985   0.228   0.311  0.00  0.00    -0.276 OA
ATOM     16  C   UNL     1       8.733  -0.529  -1.082  0.00  0.00    +0.109 C 
ENDBRANCH   3   5
ENDBRANCH   2   3
BRANCH   2  17
ATOM     17  O   UNL     1      -1.338  -0.506   0.015  0.00  0.00    -0.450 OA
BRANCH  17  18
ATOM     18  C   UNL     1      -1.900  -0.726   1.220  0.00  0.00    +0.343 C 
ATOM     19  O   UNL     1      -1.269  -0.502   2.235  0.00  0.00    -0.245 OA
BRANCH  18  20
ATOM     20  C   UNL     1      -3.277  -1.236   1.308  0.00  0.00    +0.102 A 
ATOM     21  C   UNL     1      -4.004  -1.499   0.141  0.00  0.00    +0.040 A 
ATOM     22  C   UNL     1      -5.282  -1.973   0.223  0.00  0.00    +0.063 A 
ATOM     23  C   UNL     1      -5.871  -2.197   1.467  0.00  0.00    +0.047 A 
ATOM     24  C   UNL     1      -5.163  -1.940   2.633  0.00  0.00    +0.070 A 
ATOM     25  C   UNL     1      -3.865  -1.465   2.562  0.00  0.00    +0.136 A 
ATOM     26 CL   UNL     1      -6.177  -2.298  -1.229  0.00  0.00    -0.082 Cl
BRANCH  23  27
ATOM     27  N   UNL     1      -7.174  -2.679   1.539  0.00  0.00    -0.357 N 
ATOM     28  H   UNL     1      -7.671  -2.859   0.725  0.00  0.00    +0.142 HD
ATOM     29  H   UNL     1      -7.586  -2.835   2.403  0.00  0.00    +0.142 HD
ENDBRANCH  23  27
BRANCH  25  30
ATOM     30  O   UNL     1      -3.166  -1.218   3.698  0.00  0.00    -0.494 OA
ATOM     31  C   UNL     1      -3.830  -1.475   4.937  0.00  0.00    +0.277 C 
ENDBRANCH  25  30
ENDBRANCH  18  20
ENDBRANCH  17  18
ENDBRANCH   2  17
TORSDOF 7
