REMARK  Name = ZINC63873850
REMARK  8 active torsions:
REMARK  status: ('A' for Active; 'I' for Inactive)
REMARK    1  A    between atoms: C_1  and  C_2
REMARK    2  A    between atoms: C_5  and  N_9
REMARK    3  A    between atoms: C_10  and  C_12
REMARK    4  A    between atoms: C_12  and  O_13
REMARK    5  A    between atoms: O_13  and  C_14
REMARK    6  A    between atoms: C_14  and  C_16
REMARK    7  A    between atoms: C_16  and  C_17
REMARK    8  A    between atoms: C_17  and  C_18
REMARK                            x       y       z     vdW  Elec       q    Type
REMARK                         _______ _______ _______ _____ _____    ______ ____
ROOT
ATOM      1  O   UNL     1       1.054  -6.825   2.293  0.00  0.00    -0.455 OA
ENDROOT
BRANCH   1   2
ATOM      2  C   UNL     1       1.220  -8.151   2.421  0.00  0.00    +0.308 C 
ATOM      3  O   UNL     1       0.990  -8.881   1.486  0.00  0.00    -0.251 OA
BRANCH   2   4
ATOM      4  C   UNL     1       1.695  -8.728   3.729  0.00  0.00    +0.125 C 
BRANCH   4   5
ATOM      5  C   UNL     1       1.800 -10.250   3.607  0.00  0.00    +0.044 C 
BRANCH   5   6
ATOM      6  C   UNL     1       2.274 -10.827   4.915  0.00  0.00    -0.041 C 
ATOM      7  C   UNL     1       1.506 -11.327   5.910  0.00  0.00    -0.001 A 
ATOM      8  C   UNL     1       0.054 -11.476   6.065  0.00  0.00    +0.010 A 
ATOM      9  C   UNL     1      -0.431 -12.026   7.202  0.00  0.00    +0.001 A 
ATOM     10  C   UNL     1       0.416 -12.455   8.233  0.00  0.00    +0.002 A 
ATOM     11  C   UNL     1       1.760 -12.351   8.163  0.00  0.00    +0.026 A 
ATOM     12  C   UNL     1       2.379 -11.789   7.013  0.00  0.00    +0.043 A 
ATOM     13  N   UNL     1       3.638 -11.582   6.712  0.00  0.00    -0.380 N 
ATOM     14  C   UNL     1       3.707 -10.971   5.380  0.00  0.00    +0.144 C 
ATOM     15  H   UNL     1       4.398 -11.801   7.274  0.00  0.00    +0.160 HD
ENDBRANCH   5   6
ENDBRANCH   4   5
ENDBRANCH   2   4
ENDBRANCH   1   2
BRANCH   1  16
ATOM     16  C   UNL     1       0.601  -6.347   1.025  0.00  0.00    +0.328 C 
BRANCH  16  18
ATOM     17  N   UNL     1       0.059  -4.172  -0.021  0.00  0.00    -0.281 N 
ATOM     18  C   UNL     1       0.473  -4.846   1.070  0.00  0.00    +0.255 C 
ATOM     19  O   UNL     1       0.743  -4.245   2.088  0.00  0.00    -0.272 OA
ATOM     20  H   UNL     1      -0.225  -4.656  -0.812  0.00  0.00    +0.155 HD
BRANCH  17  25
ATOM     21  C   UNL     1      -0.020   1.503   0.010  0.00  0.00    +0.044 C 
ATOM     22  C   UNL     1       0.001  -0.004   0.002  0.00  0.00    -0.048 A 
ATOM     23  C   UNL     1       1.143  -0.676  -0.396  0.00  0.00    +0.020 A 
ATOM     24  C   UNL     1       1.165  -2.058  -0.405  0.00  0.00    +0.040 A 
ATOM     25  C   UNL     1       0.040  -2.772  -0.013  0.00  0.00    +0.062 A 
ATOM     26  C   UNL     1      -1.105  -2.094   0.386  0.00  0.00    +0.040 A 
ATOM     27  C   UNL     1      -1.119  -0.712   0.397  0.00  0.00    +0.020 A 
ATOM     28 BR   UNL     1      -2.640  -3.060   0.920  0.00  0.00    -0.048 Br
ATOM     29 BR   UNL     1       2.727  -2.975  -0.949  0.00  0.00    -0.048 Br
ENDBRANCH  17  25
ENDBRANCH  16  18
ENDBRANCH   1  16
TORSDOF 7
