REMARK  Name = ZINC52804533
REMARK  10 active torsions:
REMARK  status: ('A' for Active; 'I' for Inactive)
REMARK    1  A    between atoms: C_1  and  C_2
REMARK    2  A    between atoms: C_2  and  C_3
REMARK    3  A    between atoms: C_2  and  O_4
REMARK    4  A    between atoms: O_4  and  C_5
REMARK    5  A    between atoms: C_5  and  C_6
REMARK    6  A    between atoms: C_9  and  C_12
REMARK    7  A    between atoms: C_12  and  N_13
REMARK    8  A    between atoms: C_14  and  C_16
REMARK    9  A    between atoms: C_16  and  N_17
REMARK   10  A    between atoms: C_21  and  C_23
REMARK                            x       y       z     vdW  Elec       q    Type
REMARK                         _______ _______ _______ _____ _____    ______ ____
ROOT
ATOM      1  N   UNL     1       4.431  -2.690   6.319  0.00  0.00    -0.313 N 
ATOM      2  C   UNL     1       5.362  -3.116   7.196  0.00  0.00    +0.197 C 
ATOM      3  O   UNL     1       5.038  -3.416   8.326  0.00  0.00    -0.278 OA
ATOM      4  H   UNL     1       4.691  -2.450   5.415  0.00  0.00    +0.149 HD
ENDROOT
BRANCH   1   5
ATOM      5  C   UNL     1       3.029  -2.591   6.729  0.00  0.00    +0.139 C 
BRANCH   5   9
ATOM      6  C   UNL     1       0.679  -1.185   3.451  0.00  0.00    -0.022 A 
ATOM      7  C   UNL     1       0.877  -2.542   3.628  0.00  0.00    +0.006 A 
ATOM      8  C   UNL     1       1.637  -2.996   4.689  0.00  0.00    +0.005 A 
ATOM      9  C   UNL     1       2.201  -2.095   5.572  0.00  0.00    -0.030 A 
ATOM     10  C   UNL     1       2.004  -0.738   5.394  0.00  0.00    +0.005 A 
ATOM     11  C   UNL     1       1.247  -0.283   4.331  0.00  0.00    +0.006 A 
BRANCH   6  12
ATOM     12  C   UNL     1      -0.150  -0.689   2.294  0.00  0.00    +0.195 C 
BRANCH  12  13
ATOM     13  O   UNL     1       0.693  -0.477   1.160  0.00  0.00    -0.373 OA
BRANCH  13  15
ATOM     14  C   UNL     1      -0.019   1.526   0.010  0.00  0.00    +0.037 C 
ATOM     15  C   UNL     1       0.002  -0.004   0.002  0.00  0.00    +0.113 C 
ATOM     16  C   UNL     1       0.718  -0.497  -1.257  0.00  0.00    +0.037 C 
ENDBRANCH  13  15
ENDBRANCH  12  13
ENDBRANCH   6  12
ENDBRANCH   5   9
ENDBRANCH   1   5
BRANCH   2  17
ATOM     17  C   UNL     1       6.805  -3.218   6.774  0.00  0.00    +0.019 C 
BRANCH  17  18
ATOM     18  N   UNL     1       7.612  -3.702   7.902  0.00  0.00    +0.390 N 
ATOM     19  C   UNL     1       7.223  -5.089   8.233  0.00  0.00    -0.077 C 
ATOM     20  C   UNL     1       8.244  -5.977   7.478  0.00  0.00    -0.020 C 
ATOM     21  C   UNL     1       9.546  -5.145   7.617  0.00  0.00    -0.013 C 
ATOM     22  C   UNL     1       9.039  -3.690   7.531  0.00  0.00    -0.037 C 
ATOM     23  H   UNL     1       7.465  -3.109   8.704  0.00  0.00    -0.080 HD
BRANCH  22  24
ATOM     24  C   UNL     1       9.811  -2.821   8.491  0.00  0.00    -0.054 A 
ATOM     25  C   UNL     1      10.815  -1.989   8.033  0.00  0.00    +0.009 A 
ATOM     26  C   UNL     1      11.489  -1.221   8.923  0.00  0.00    +0.045 A 
ATOM     27  S   UNL     1      10.705  -1.665  10.464  0.00  0.00    -0.105 S 
ATOM     28  C   UNL     1       9.527  -2.841   9.817  0.00  0.00    +0.047 A 
ENDBRANCH  22  24
ENDBRANCH  17  18
ENDBRANCH   2  17
TORSDOF 8
