REMARK  Name = ZINC65743717
REMARK  5 active torsions:
REMARK  status: ('A' for Active; 'I' for Inactive)
REMARK    1  A    between atoms: C_4  and  N_15
REMARK    2  A    between atoms: C_7  and  O_11
REMARK    3  A    between atoms: O_11  and  C_12
REMARK    4  A    between atoms: C_16  and  C_18
REMARK    5  A    between atoms: C_21  and  C_26
REMARK                            x       y       z     vdW  Elec       q    Type
REMARK                         _______ _______ _______ _____ _____    ______ ____
ROOT
ATOM      1  N   UNL     1       3.681   3.408  -0.040  0.00  0.00    -0.281 N 
ATOM      2  C   UNL     1       4.874   4.022   0.080  0.00  0.00    +0.254 C 
ATOM      3  O   UNL     1       5.899   3.366   0.090  0.00  0.00    -0.270 OA
ATOM      4  H   UNL     1       2.869   3.934  -0.110  0.00  0.00    +0.155 HD
ENDROOT
BRANCH   1   8
ATOM      5  C   UNL     1       0.306   1.353   1.417  0.00  0.00    +0.020 A 
ATOM      6  C   UNL     1       1.379   2.062   0.956  0.00  0.00    +0.013 A 
ATOM      7  C   UNL     1       2.471   1.349   0.431  0.00  0.00    +0.025 A 
ATOM      8  C   UNL     1       3.613   2.013  -0.062  0.00  0.00    +0.043 A 
ATOM      9  C   UNL     1       4.661   1.274  -0.568  0.00  0.00    +0.027 A 
ATOM     10  C   UNL     1       4.603  -0.116  -0.595  0.00  0.00    +0.050 A 
ATOM     11  C   UNL     1       3.510  -0.785  -0.123  0.00  0.00    +0.153 A 
ATOM     12  C   UNL     1       2.417  -0.067   0.402  0.00  0.00    +0.114 A 
ATOM     13  N   UNL     1       1.337  -0.700   0.869  0.00  0.00    -0.251 NA
ATOM     14  C   UNL     1       0.316  -0.038   1.359  0.00  0.00    +0.111 A 
BRANCH  11  15
ATOM     15  O   UNL     1       3.476  -2.144  -0.161  0.00  0.00    -0.432 OA
BRANCH  15  16
ATOM     16  C   UNL     1       4.618  -2.807  -0.707  0.00  0.00    +0.541 C 
ATOM     17  F   UNL     1       4.805  -2.398  -2.032  0.00  0.00    -0.166 F 
ATOM     18  F   UNL     1       5.751  -2.480   0.046  0.00  0.00    -0.166 F 
ENDBRANCH  15  16
ENDBRANCH  11  15
ENDBRANCH   1   8
BRANCH   2  19
ATOM     19  C   UNL     1       4.939   5.484   0.197  0.00  0.00    +0.101 A 
ATOM     20  C   UNL     1       6.175   6.140   0.190  0.00  0.00    +0.020 A 
ATOM     21  C   UNL     1       6.207   7.520   0.302  0.00  0.00    +0.030 A 
ATOM     22  C   UNL     1       5.021   8.233   0.419  0.00  0.00    +0.085 A 
ATOM     23  N   UNL     1       3.815   7.585   0.426  0.00  0.00    -0.319 N 
ATOM     24  H   UNL     1       2.996   8.099   0.508  0.00  0.00    +0.169 HD
ATOM     25  C   UNL     1       3.750   6.245   0.313  0.00  0.00    +0.261 A 
ATOM     26  O   UNL     1       2.667   5.686   0.315  0.00  0.00    -0.267 OA
BRANCH  22  27
ATOM     27  C   UNL     1       5.061   9.692   0.537  0.00  0.00    +0.151 A 
ATOM     28  C   UNL     1       3.978  10.518   0.664  0.00  0.00    +0.051 A 
ATOM     29  C   UNL     1       4.478  11.827   0.745  0.00  0.00    +0.042 A 
ATOM     30  C   UNL     1       5.824  11.745   0.666  0.00  0.00    +0.196 A 
ATOM     31  O   UNL     1       6.172  10.456   0.546  0.00  0.00    -0.461 OA
ENDBRANCH  22  27
ENDBRANCH   2  19
TORSDOF 5
