REMARK  Name = ZINC12553267
REMARK  11 active torsions:
REMARK  status: ('A' for Active; 'I' for Inactive)
REMARK    1  A    between atoms: C_1  and  C_2
REMARK    2  A    between atoms: C_5  and  N_9
REMARK    3  A    between atoms: C_7  and  C_8
REMARK    4  A    between atoms: C_10  and  C_30
REMARK    5  A    between atoms: C_11  and  C_26
REMARK    6  A    between atoms: C_12  and  C_17
REMARK    7  A    between atoms: C_20  and  O_25
REMARK    8  A    between atoms: C_21  and  O_23
REMARK    9  A    between atoms: O_23  and  C_24
REMARK   10  A    between atoms: C_26  and  O_28
REMARK   11  A    between atoms: O_28  and  C_29
REMARK                            x       y       z     vdW  Elec       q    Type
REMARK                         _______ _______ _______ _____ _____    ______ ____
ROOT
ATOM      1  N   UNL     1       2.850  -5.385  -0.967  0.00  0.00    -0.255 N 
ATOM      2  C   UNL     1       3.543  -4.410  -1.627  0.00  0.00    +0.027 C 
ATOM      3  C   UNL     1       3.488  -3.121  -1.223  0.00  0.00    +0.078 C 
ATOM      4  C   UNL     1       2.631  -2.796  -0.016  0.00  0.00    +0.141 C 
ATOM      5  N   UNL     1       1.925  -3.919   0.622  0.00  0.00    -0.315 N 
ATOM      6  C   UNL     1       2.079  -5.153   0.103  0.00  0.00    +0.142 C 
ATOM      7  S   UNL     1       1.263  -6.468   0.836  0.00  0.00    -0.018 S 
ATOM      8  C   UNL     1       4.383  -4.777  -2.823  0.00  0.00    +0.062 C 
ATOM      9  H   UNL     1       1.361  -3.774   1.398  0.00  0.00    +0.149 HD
ENDROOT
BRANCH   1  14
ATOM     10  C   UNL     1       3.258 -10.715  -2.870  0.00  0.00    +0.044 C 
ATOM     11  C   UNL     1       3.150  -9.299  -2.365  0.00  0.00    -0.047 A 
ATOM     12  C   UNL     1       4.036  -8.838  -1.407  0.00  0.00    +0.005 A 
ATOM     13  C   UNL     1       3.943  -7.540  -0.947  0.00  0.00    +0.024 A 
ATOM     14  C   UNL     1       2.951  -6.700  -1.437  0.00  0.00    +0.040 A 
ATOM     15  C   UNL     1       2.063  -7.166  -2.397  0.00  0.00    +0.027 A 
ATOM     16  C   UNL     1       2.165  -8.464  -2.858  0.00  0.00    -0.046 A 
ATOM     17  C   UNL     1       1.202  -8.970  -3.901  0.00  0.00    +0.044 C 
ENDBRANCH   1  14
BRANCH   4  18
ATOM     18  C   UNL     1       1.602  -1.779  -0.438  0.00  0.00    -0.019 A 
ATOM     19  C   UNL     1       0.401  -2.197  -0.979  0.00  0.00    +0.009 A 
ATOM     20  C   UNL     1      -0.547  -1.268  -1.366  0.00  0.00    +0.049 A 
ATOM     21  C   UNL     1      -0.295   0.086  -1.208  0.00  0.00    +0.158 A 
ATOM     22  C   UNL     1       0.917   0.506  -0.668  0.00  0.00    +0.162 A 
ATOM     23  C   UNL     1       1.862  -0.430  -0.282  0.00  0.00    +0.055 A 
BRANCH  22  24
ATOM     24  O   UNL     1       1.171   1.834  -0.516  0.00  0.00    -0.491 OA
ATOM     25  C   UNL     1       2.433   2.192   0.050  0.00  0.00    +0.277 C 
ENDBRANCH  22  24
BRANCH  21  26
ATOM     26  O   UNL     1      -1.228   1.001  -1.583  0.00  0.00    -0.503 OA
ATOM     27  H   UNL     1      -1.147   1.291  -2.502  0.00  0.00    +0.292 HD
ENDBRANCH  21  26
ENDBRANCH   4  18
BRANCH   3  28
ATOM     28  C   UNL     1       4.205  -2.110  -1.905  0.00  0.00    +0.339 C 
ATOM     29  O   UNL     1       4.887  -2.395  -2.872  0.00  0.00    -0.245 OA
BRANCH  28  30
ATOM     30  O   UNL     1       4.133  -0.831  -1.483  0.00  0.00    -0.465 OA
ATOM     31  C   UNL     1       4.883   0.138  -2.218  0.00  0.00    +0.280 C 
ENDBRANCH  28  30
ENDBRANCH   3  28
TORSDOF 6
