REMARK  Name = ZINC17654899
REMARK  12 active torsions:
REMARK  status: ('A' for Active; 'I' for Inactive)
REMARK    1  A    between atoms: C_1  and  C_2
REMARK    2  A    between atoms: C_2  and  C_4
REMARK    3  A    between atoms: C_2  and  S_18
REMARK    4  A    between atoms: C_7  and  C_9
REMARK    5  A    between atoms: C_12  and  N_15
REMARK    6  A    between atoms: S_18  and  C_19
REMARK    7  A    between atoms: C_22  and  C_25
REMARK    8  A    between atoms: N_23  and  N_24
REMARK    9  A    between atoms: C_28  and  C_31
REMARK   10  A    between atoms: C_31  and  C_32
REMARK   11  A    between atoms: C_31  and  C_33
REMARK   12  A    between atoms: C_31  and  C_34
REMARK                            x       y       z     vdW  Elec       q    Type
REMARK                         _______ _______ _______ _____ _____    ______ ____
ROOT
ATOM      1  C   UNL     1       0.972   3.718   1.413  0.00  0.00    +0.209 A 
ATOM      2  N   UNL     1       1.933   2.824   1.482  0.00  0.00    -0.121 NA
ATOM      3  N   UNL     1       3.074   3.408   1.575  0.00  0.00    -0.127 NA
ATOM      4  C   UNL     1       2.912   4.710   1.571  0.00  0.00    +0.182 A 
ATOM      5  N   UNL     1       1.561   4.949   1.462  0.00  0.00    -0.224 N 
ENDROOT
BRANCH   4   6
ATOM      6  C   UNL     1       3.979   5.729   1.661  0.00  0.00    +0.021 A 
ATOM      7  C   UNL     1       3.659   7.056   1.953  0.00  0.00    +0.012 A 
ATOM      8  C   UNL     1       4.661   8.001   2.041  0.00  0.00    +0.005 A 
ATOM      9  C   UNL     1       5.979   7.637   1.830  0.00  0.00    -0.042 A 
ATOM     10  C   UNL     1       6.303   6.325   1.535  0.00  0.00    +0.005 A 
ATOM     11  C   UNL     1       5.311   5.370   1.450  0.00  0.00    +0.012 A 
BRANCH   9  12
ATOM     12  C   UNL     1       7.067   8.676   1.922  0.00  0.00    -0.013 C 
ATOM     13  C   UNL     1       7.801   8.766   0.583  0.00  0.00    +0.015 C 
ATOM     14  C   UNL     1       6.449  10.034   2.257  0.00  0.00    +0.015 C 
ATOM     15  C   UNL     1       8.057   8.281   3.020  0.00  0.00    +0.015 C 
ENDBRANCH   9  12
ENDBRANCH   4   6
BRANCH   5  16
ATOM     16  N   UNL     1       0.939   6.164   1.415  0.00  0.00    -0.295 N 
ATOM     17  H   UNL     1       0.700   6.484   2.341  0.00  0.00    +0.163 HD
ATOM     18  H   UNL     1       1.508   6.843   0.932  0.00  0.00    +0.163 HD
ENDBRANCH   5  16
BRANCH   1  19
ATOM     19  S   UNL     1      -0.753   3.389   1.277  0.00  0.00    -0.072 S 
BRANCH  19  21
ATOM     20  C   UNL     1      -0.013   1.086   0.008  0.00  0.00    +0.029 C 
ATOM     21  C   UNL     1      -0.729   1.579   1.267  0.00  0.00    +0.139 C 
BRANCH  21  22
ATOM     22  C   UNL     1      -2.143   1.058   1.278  0.00  0.00    +0.231 A 
ATOM     23  N   UNL     1      -3.131   1.497   0.549  0.00  0.00    -0.111 NA
ATOM     24  N   UNL     1      -4.193   0.821   0.812  0.00  0.00    -0.107 NA
ATOM     25  C   UNL     1      -3.919  -0.075   1.732  0.00  0.00    +0.248 A 
ATOM     26  O   UNL     1      -2.614   0.059   2.044  0.00  0.00    -0.419 OA
BRANCH  25  27
ATOM     27  C   UNL     1      -4.865  -1.049   2.317  0.00  0.00    +0.039 A 
ATOM     28  C   UNL     1      -4.430  -1.952   3.289  0.00  0.00    +0.015 A 
ATOM     29  C   UNL     1      -5.319  -2.856   3.833  0.00  0.00    +0.033 A 
ATOM     30  C   UNL     1      -6.636  -2.874   3.412  0.00  0.00    +0.126 A 
ATOM     31  C   UNL     1      -7.073  -1.986   2.446  0.00  0.00    +0.033 A 
ATOM     32  C   UNL     1      -6.195  -1.074   1.896  0.00  0.00    +0.015 A 
BRANCH  30  33
ATOM     33  N   UNL     1      -7.583  -3.850   3.997  0.00  0.00    +0.056 N 
ATOM     34  O   UNL     1      -8.743  -3.870   3.627  0.00  0.00    -0.126 OA
ATOM     35  O   UNL     1      -7.201  -4.634   4.847  0.00  0.00    -0.126 OA
ENDBRANCH  30  33
ENDBRANCH  25  27
ENDBRANCH  21  22
ENDBRANCH  19  21
ENDBRANCH   1  19
TORSDOF 8
