REMARK  Name = ZINC07098019
REMARK  7 active torsions:
REMARK  status: ('A' for Active; 'I' for Inactive)
REMARK    1  A    between atoms: C_1  and  C_2
REMARK    2  A    between atoms: C_5  and  N_9
REMARK    3  A    between atoms: C_6  and  C_8
REMARK    4  A    between atoms: C_13  and  S_14
REMARK    5  A    between atoms: S_14  and  C_15
REMARK    6  A    between atoms: C_15  and  C_16
REMARK    7  A    between atoms: C_21  and  C_22
REMARK                            x       y       z     vdW  Elec       q    Type
REMARK                         _______ _______ _______ _____ _____    ______ ____
ROOT
ATOM      1  N   UNL     1      -2.459   3.824   0.046  0.00  0.00    -0.277 N 
ATOM      2  C   UNL     1      -2.962   4.642  -0.932  0.00  0.00    +0.230 A 
ATOM      3  N   UNL     1      -4.120   5.072  -0.519  0.00  0.00    -0.137 NA
ATOM      4  N   UNL     1      -4.381   4.595   0.646  0.00  0.00    -0.122 NA
ATOM      5  C   UNL     1      -3.396   3.822   1.042  0.00  0.00    +0.196 A 
ENDROOT
BRANCH   1  10
ATOM      6  C   UNL     1       2.490   1.045  -0.016  0.00  0.00    +0.044 C 
ATOM      7  C   UNL     1       1.176   1.783   0.000  0.00  0.00    -0.050 A 
ATOM      8  C   UNL     1       1.161   3.166   0.007  0.00  0.00    +0.005 A 
ATOM      9  C   UNL     1      -0.042   3.844   0.023  0.00  0.00    +0.027 A 
ATOM     10  C   UNL     1      -1.237   3.137   0.030  0.00  0.00    +0.053 A 
ATOM     11  C   UNL     1      -1.219   1.750   0.017  0.00  0.00    -0.026 A 
ATOM     12  C   UNL     1      -0.013   1.076   0.008  0.00  0.00    +0.008 A 
ATOM     13  C   UNL     1      -2.513   0.978   0.020  0.00  0.00    +0.046 C 
ENDBRANCH   1  10
BRANCH   5  14
ATOM     14  S   UNL     1      -3.300   2.948   2.570  0.00  0.00    -0.081 S 
BRANCH  14  15
ATOM     15  C   UNL     1      -4.873   3.443   3.315  0.00  0.00    +0.113 C 
BRANCH  15  16
ATOM     16  C   UNL     1      -5.013   2.796   4.669  0.00  0.00    -0.020 A 
ATOM     17  C   UNL     1      -5.617   1.561   4.786  0.00  0.00    +0.006 A 
ATOM     18  C   UNL     1      -5.743   0.964   6.028  0.00  0.00    +0.000 A 
ATOM     19  C   UNL     1      -5.273   1.604   7.161  0.00  0.00    +0.001 A 
ATOM     20  C   UNL     1      -4.671   2.841   7.059  0.00  0.00    +0.019 A 
ATOM     21  C   UNL     1      -4.537   3.448   5.808  0.00  0.00    +0.056 A 
BRANCH  21  22
ATOM     22  C   UNL     1      -3.914   4.732   5.694  0.00  0.00    +0.099 C 
ATOM     23  N   UNL     1      -3.421   5.751   5.604  0.00  0.00    -0.191 NA
ENDBRANCH  21  22
ENDBRANCH  15  16
ENDBRANCH  14  15
ENDBRANCH   5  14
TORSDOF 5
