REMARK  Name = ZINC32776007
REMARK  6 active torsions:
REMARK  status: ('A' for Active; 'I' for Inactive)
REMARK    1  A    between atoms: C_1  and  C_2
REMARK    2  A    between atoms: C_2  and  C_4
REMARK    3  A    between atoms: C_2  and  S_19
REMARK    4  A    between atoms: N_6  and  C_7
REMARK    5  A    between atoms: S_19  and  C_20
REMARK    6  A    between atoms: C_23  and  C_26
REMARK                            x       y       z     vdW  Elec       q    Type
REMARK                         _______ _______ _______ _____ _____    ______ ____
ROOT
ATOM      1  C   UNL     1       0.612  -6.981   1.304  0.00  0.00    +0.029 C 
ATOM      2  C   UNL     1       1.554  -7.005   0.099  0.00  0.00    +0.137 C 
ENDROOT
BRANCH   2   3
ATOM      3  C   UNL     1       2.156  -8.380  -0.041  0.00  0.00    +0.230 C 
ATOM      4  O   UNL     1       3.241  -8.620   0.446  0.00  0.00    -0.274 OA
ATOM      5  N   UNL     1       1.489  -9.343  -0.707  0.00  0.00    -0.285 N 
ATOM      6  H   UNL     1       0.469  -9.153  -1.073  0.00  0.00    +0.155 HD
BRANCH   5   7
ATOM      7  C   UNL     1       2.094 -10.586  -0.932  0.00  0.00    +0.035 A 
ATOM      8  C   UNL     1       1.320 -11.741  -0.955  0.00  0.00    +0.025 A 
ATOM      9  C   UNL     1       1.910 -12.969  -1.177  0.00  0.00    +0.029 A 
ATOM     10  C   UNL     1       3.279 -13.052  -1.379  0.00  0.00    +0.067 A 
ATOM     11  C   UNL     1       4.060 -11.894  -1.357  0.00  0.00    +0.069 A 
ATOM     12  C   UNL     1       3.463 -10.662  -1.139  0.00  0.00    +0.051 A 
ATOM     13  N   UNL     1       5.375 -12.291  -1.587  0.00  0.00    -0.306 N 
ATOM     14  H   UNL     1       6.179 -11.540  -1.615  0.00  0.00    +0.170 HD
ATOM     15  C   UNL     1       5.395 -13.628  -1.741  0.00  0.00    +0.325 A 
ATOM     16  O   UNL     1       6.391 -14.294  -1.956  0.00  0.00    -0.247 OA
ATOM     17  N   UNL     1       4.146 -14.117  -1.621  0.00  0.00    -0.306 N 
ATOM     18  H   UNL     1       3.754 -15.143  -1.682  0.00  0.00    +0.170 HD
ENDBRANCH   5   7
ENDBRANCH   2   3
BRANCH   2  19
ATOM     19  S   UNL     1       2.874  -5.791   0.341  0.00  0.00    -0.074 S 
BRANCH  19  20
ATOM     20  C   UNL     1       1.929  -4.304   0.321  0.00  0.00    +0.185 A 
ATOM     21  N   UNL     1       2.413  -3.034   0.457  0.00  0.00    -0.201 NA
ATOM     22  H   UNL     1      -0.127  -4.999   0.030  0.00  0.00    +0.191 HD
ATOM     23  C   UNL     1       1.316  -2.208   0.380  0.00  0.00    +0.183 A 
ATOM     24  N   UNL     1       0.266  -2.977   0.211  0.00  0.00    -0.152 NA
ATOM     25  N   UNL     1       0.626  -4.210   0.172  0.00  0.00    -0.253 N 
BRANCH  23  26
ATOM     26  C   UNL     1       1.319  -0.733   0.470  0.00  0.00    +0.035 A 
ATOM     27  C   UNL     1       2.518  -0.044   0.663  0.00  0.00    +0.013 A 
ATOM     28  C   UNL     1       2.514   1.333   0.747  0.00  0.00    +0.001 A 
ATOM     29  C   UNL     1       1.325   2.032   0.639  0.00  0.00    +0.001 A 
ATOM     30  C   UNL     1       0.132   1.357   0.448  0.00  0.00    +0.016 A 
ATOM     31  C   UNL     1       0.122  -0.021   0.363  0.00  0.00    +0.029 A 
ATOM     32 BR   UNL     1      -1.508  -0.942   0.101  0.00  0.00    -0.050 Br
ENDBRANCH  23  26
ENDBRANCH  19  20
ENDBRANCH   2  19
TORSDOF 5
