REMARK  Name = ZINC36514712
REMARK  13 active torsions:
REMARK  status: ('A' for Active; 'I' for Inactive)
REMARK    1  A    between atoms: C_1  and  C_2
REMARK    2  A    between atoms: C_2  and  C_3
REMARK    3  A    between atoms: C_3  and  C_4
REMARK    4  A    between atoms: C_4  and  C_5
REMARK    5  A    between atoms: C_5  and  C_6
REMARK    6  A    between atoms: C_6  and  N_7
REMARK    7  A    between atoms: N_7  and  C_8
REMARK    8  A    between atoms: C_8  and  C_10
REMARK    9  A    between atoms: C_8  and  C_16
REMARK   10  A    between atoms: N_18  and  C_19
REMARK   11  A    between atoms: C_25  and  C_27
REMARK   12  A    between atoms: C_31  and  O_34
REMARK   13  A    between atoms: C_32  and  O_33
REMARK                            x       y       z     vdW  Elec       q    Type
REMARK                         _______ _______ _______ _____ _____    ______ ____
ROOT
ATOM      1  N   UNL     1       1.966  -4.436   3.561  0.00  0.00    -0.286 N 
ATOM      2  C   UNL     1       3.244  -4.669   3.204  0.00  0.00    +0.251 C 
ATOM      3  O   UNL     1       4.012  -5.183   3.994  0.00  0.00    -0.270 OA
ENDROOT
BRANCH   2   4
ATOM      4  C   UNL     1       3.713  -4.300   1.855  0.00  0.00    +0.082 A 
ATOM      5  C   UNL     1       3.091  -4.837   0.724  0.00  0.00    +0.017 A 
ATOM      6  C   UNL     1       3.531  -4.489  -0.535  0.00  0.00    +0.005 A 
ATOM      7  C   UNL     1       4.589  -3.608  -0.688  0.00  0.00    +0.049 A 
ATOM      8  C   UNL     1       5.215  -3.067   0.422  0.00  0.00    +0.159 A 
ATOM      9  C   UNL     1       4.778  -3.405   1.700  0.00  0.00    +0.171 A 
BRANCH   9  10
ATOM     10  O   UNL     1       5.385  -2.872   2.791  0.00  0.00    -0.503 OA
ATOM     11  H   UNL     1       6.131  -3.394   3.120  0.00  0.00    +0.292 HD
ENDBRANCH   9  10
BRANCH   8  12
ATOM     12  O   UNL     1       6.253  -2.203   0.265  0.00  0.00    -0.503 OA
ATOM     13  H   UNL     1       5.987  -1.275   0.208  0.00  0.00    +0.292 HD
ENDBRANCH   8  12
ENDBRANCH   2   4
BRANCH   1  14
ATOM     14  C   UNL     1       1.013  -3.917   2.576  0.00  0.00    +0.109 C 
BRANCH  14  15
ATOM     15  C   UNL     1       0.956  -2.392   2.676  0.00  0.00    +0.019 C 
BRANCH  15  16
ATOM     16  C   UNL     1      -0.038  -1.850   1.648  0.00  0.00    +0.002 C 
BRANCH  16  17
ATOM     17  C   UNL     1      -0.095  -0.324   1.748  0.00  0.00    -0.000 C 
BRANCH  17  19
ATOM     18  C   UNL     1      -1.147   1.744   0.820  0.00  0.00    +0.004 C 
ATOM     19  C   UNL     1      -1.090   0.218   0.720  0.00  0.00    -0.003 C 
ENDBRANCH  17  19
ENDBRANCH  16  17
ENDBRANCH  15  16
ENDBRANCH  14  15
ENDBRANCH   1  14
BRANCH   1  20
ATOM     20  C   UNL     1       1.528  -4.702   4.933  0.00  0.00    +0.165 C 
BRANCH  20  21
ATOM     21  C   UNL     1       1.739  -6.183   5.258  0.00  0.00    +0.018 C 
ATOM     22  C   UNL     1       1.029  -7.041   4.209  0.00  0.00    +0.006 C 
ATOM     23  C   UNL     1       1.240  -8.521   4.534  0.00  0.00    +0.000 C 
ATOM     24  C   UNL     1       0.663  -8.827   5.918  0.00  0.00    +0.000 C 
ATOM     25  C   UNL     1       1.373  -7.968   6.967  0.00  0.00    +0.000 C 
ATOM     26  C   UNL     1       1.163  -6.488   6.642  0.00  0.00    +0.006 C 
ENDBRANCH  20  21
BRANCH  20  27
ATOM     27  C   UNL     1       2.332  -3.859   5.889  0.00  0.00    +0.234 C 
ATOM     28  O   UNL     1       3.361  -3.335   5.518  0.00  0.00    -0.274 OA
ATOM     29  N   UNL     1       1.907  -3.687   7.157  0.00  0.00    -0.311 N 
ATOM     30  H   UNL     1       1.126  -4.165   7.476  0.00  0.00    +0.149 HD
BRANCH  29  31
ATOM     31  C   UNL     1       2.626  -2.777   8.053  0.00  0.00    +0.073 C 
ATOM     32  C   UNL     1       2.117  -1.349   7.844  0.00  0.00    +0.022 C 
ATOM     33  C   UNL     1       2.868  -0.399   8.779  0.00  0.00    +0.002 C 
ATOM     34  C   UNL     1       2.628  -0.818  10.231  0.00  0.00    +0.000 C 
ATOM     35  C   UNL     1       3.136  -2.246  10.440  0.00  0.00    +0.002 C 
ATOM     36  C   UNL     1       2.386  -3.196   9.504  0.00  0.00    +0.022 C 
ENDBRANCH  29  31
ENDBRANCH  20  27
ENDBRANCH   1  20
TORSDOF 12
