REMARK  Name = ZINC05112052
REMARK  6 active torsions:
REMARK  status: ('A' for Active; 'I' for Inactive)
REMARK    1  A    between atoms: C_1  and  C_2
REMARK    2  A    between atoms: N_10  and  C_22
REMARK    3  A    between atoms: C_11  and  C_13
REMARK    4  A    between atoms: C_16  and  O_21
REMARK    5  A    between atoms: C_17  and  O_19
REMARK    6  A    between atoms: O_19  and  C_20
REMARK                            x       y       z     vdW  Elec       q    Type
REMARK                         _______ _______ _______ _____ _____    ______ ____
ROOT
ATOM      1  C   UNL     1      -0.018   1.503   0.010  0.00  0.00    +0.068 C 
ATOM      2  C   UNL     1       0.002  -0.004   0.002  0.00  0.00    +0.066 A 
ATOM      3  C   UNL     1       0.008  -0.817  -1.124  0.00  0.00    +0.030 A 
ATOM      4  C   UNL     1       0.028  -2.118  -0.651  0.00  0.00    +0.126 A 
ATOM      5  N   UNL     1       0.033  -2.021   0.711  0.00  0.00    -0.272 N 
ATOM      6  H   UNL     1       0.046  -2.773   1.324  0.00  0.00    +0.189 HD
ATOM      7  N   UNL     1       0.023  -0.783   1.056  0.00  0.00    -0.178 NA
ATOM      8  C   UNL     1       0.036  -3.031  -1.798  0.00  0.00    +0.270 C 
ATOM      9  O   UNL     1       0.052  -4.245  -1.718  0.00  0.00    -0.268 OA
ATOM     10  N   UNL     1       0.021  -2.337  -2.950  0.00  0.00    -0.255 N 
ATOM     11  C   UNL     1       0.003  -0.905  -2.626  0.00  0.00    +0.146 C 
ENDROOT
BRANCH  10  12
ATOM     12  C   UNL     1       0.024  -2.885  -4.237  0.00  0.00    +0.038 A 
ATOM     13  C   UNL     1       0.014  -2.053  -5.348  0.00  0.00    +0.024 A 
ATOM     14  C   UNL     1       0.017  -2.597  -6.617  0.00  0.00    +0.017 A 
ATOM     15  C   UNL     1       0.029  -3.971  -6.782  0.00  0.00    +0.018 A 
ATOM     16  C   UNL     1       0.038  -4.803  -5.677  0.00  0.00    +0.017 A 
ATOM     17  C   UNL     1       0.042  -4.264  -4.405  0.00  0.00    +0.024 A 
ATOM     18 BR   UNL     1       0.032  -4.712  -8.522  0.00  0.00    -0.050 Br
ENDBRANCH  10  12
BRANCH  11  19
ATOM     19  C   UNL     1      -1.244  -0.263  -3.178  0.00  0.00    -0.018 A 
ATOM     20  C   UNL     1      -2.439  -0.959  -3.170  0.00  0.00    +0.009 A 
ATOM     21  C   UNL     1      -3.586  -0.375  -3.675  0.00  0.00    +0.049 A 
ATOM     22  C   UNL     1      -3.540   0.910  -4.191  0.00  0.00    +0.158 A 
ATOM     23  C   UNL     1      -2.337   1.610  -4.199  0.00  0.00    +0.162 A 
ATOM     24  C   UNL     1      -1.192   1.021  -3.686  0.00  0.00    +0.055 A 
BRANCH  23  25
ATOM     25  O   UNL     1      -2.287   2.872  -4.704  0.00  0.00    -0.491 OA
ATOM     26  C   UNL     1      -1.018   3.530  -4.680  0.00  0.00    +0.277 C 
ENDBRANCH  23  25
BRANCH  22  27
ATOM     27  O   UNL     1      -4.667   1.485  -4.689  0.00  0.00    -0.503 OA
ATOM     28  H   UNL     1      -5.178   1.979  -4.034  0.00  0.00    +0.292 HD
ENDBRANCH  22  27
ENDBRANCH  11  19
TORSDOF 4
