REMARK  Name = ZINC67064521
REMARK  7 active torsions:
REMARK  status: ('A' for Active; 'I' for Inactive)
REMARK    1  A    between atoms: C_1  and  C_2
REMARK    2  A    between atoms: C_2  and  C_4
REMARK    3  A    between atoms: C_2  and  N_10
REMARK    4  A    between atoms: C_4  and  C_5
REMARK    5  A    between atoms: N_13  and  N_14
REMARK    6  A    between atoms: C_15  and  C_17
REMARK    7  A    between atoms: C_17  and  C_18
REMARK                            x       y       z     vdW  Elec       q    Type
REMARK                         _______ _______ _______ _____ _____    ______ ____
ROOT
ATOM      1  N   UNL     1      -1.372  -0.511   0.012  0.00  0.00    -0.295 N 
ATOM      2  C   UNL     1      -2.051  -0.643  -1.145  0.00  0.00    +0.316 C 
ATOM      3  O   UNL     1      -1.522  -0.341  -2.197  0.00  0.00    -0.251 OA
ATOM      4  N   UNL     1      -3.315  -1.109  -1.135  0.00  0.00    -0.218 N 
ATOM      5  H   UNL     1      -1.794  -0.752   0.852  0.00  0.00    +0.151 HD
ATOM      6  H   UNL     1      -3.804  -1.204  -1.968  0.00  0.00    +0.174 HD
ENDROOT
BRANCH   4   7
ATOM      7  N   UNL     1      -3.924  -1.457   0.078  0.00  0.00    -0.233 N 
ATOM      8  C   UNL     1      -5.189  -1.924   0.087  0.00  0.00    +0.229 C 
ATOM      9  O   UNL     1      -5.799  -2.042  -0.954  0.00  0.00    -0.274 OA
ATOM     10  H   UNL     1      -3.436  -1.363   0.910  0.00  0.00    +0.173 HD
BRANCH   8  11
ATOM     11  C   UNL     1      -5.844  -2.298   1.392  0.00  0.00    +0.101 C 
BRANCH  11  12
ATOM     12  C   UNL     1      -7.266  -2.795   1.124  0.00  0.00    -0.002 C 
ATOM     13  C   UNL     1      -7.210  -4.091   0.313  0.00  0.00    +0.004 C 
ATOM     14  C   UNL     1      -8.632  -4.587   0.045  0.00  0.00    +0.000 C 
ATOM     15  C   UNL     1      -9.340  -4.849   1.376  0.00  0.00    +0.000 C 
ATOM     16  C   UNL     1      -9.396  -3.553   2.187  0.00  0.00    +0.000 C 
ATOM     17  C   UNL     1      -7.974  -3.057   2.455  0.00  0.00    +0.004 C 
ENDBRANCH  11  12
ENDBRANCH   8  11
ENDBRANCH   4   7
BRANCH   1  19
ATOM     18  C   UNL     1      -0.019   1.526   0.010  0.00  0.00    +0.028 C 
ATOM     19  C   UNL     1       0.002  -0.004   0.002  0.00  0.00    +0.076 C 
BRANCH  19  20
ATOM     20  C   UNL     1       0.742  -0.511   1.242  0.00  0.00    +0.057 C 
BRANCH  20  21
ATOM     21  C   UNL     1       0.870  -2.011   1.172  0.00  0.00    -0.039 A 
ATOM     22  C   UNL     1      -0.111  -2.824   1.708  0.00  0.00    +0.011 A 
ATOM     23  C   UNL     1       0.035  -4.169   1.628  0.00  0.00    +0.045 A 
ATOM     24  S   UNL     1       1.596  -4.322   0.776  0.00  0.00    -0.105 S 
ATOM     25  C   UNL     1       1.946  -2.583   0.578  0.00  0.00    +0.049 A 
ENDBRANCH  20  21
ENDBRANCH  19  20
ENDBRANCH   1  19
TORSDOF 6
