REMARK  Name = ZINC59778304
REMARK  7 active torsions:
REMARK  status: ('A' for Active; 'I' for Inactive)
REMARK    1  A    between atoms: C_3  and  N_10
REMARK    2  A    between atoms: C_5  and  N_7
REMARK    3  A    between atoms: C_11  and  C_13
REMARK    4  A    between atoms: C_13  and  C_14
REMARK    5  A    between atoms: C_14  and  S_15
REMARK    6  A    between atoms: S_15  and  C_16
REMARK    7  A    between atoms: C_19  and  C_22
REMARK                            x       y       z     vdW  Elec       q    Type
REMARK                         _______ _______ _______ _____ _____    ______ ____
ROOT
ATOM      1  C   UNL     1       4.567   5.728  -0.329  0.00  0.00    +0.086 C 
ENDROOT
BRANCH   1   2
ATOM      2  C   UNL     1       4.863   4.229  -0.238  0.00  0.00    +0.107 C 
BRANCH   2   4
ATOM      3  N   UNL     1       3.584   2.123  -0.021  0.00  0.00    -0.285 N 
ATOM      4  C   UNL     1       3.569   3.468  -0.116  0.00  0.00    +0.218 C 
ATOM      5  O   UNL     1       2.513   4.065  -0.103  0.00  0.00    -0.275 OA
ATOM      6  H   UNL     1       4.429   1.652   0.045  0.00  0.00    +0.155 HD
BRANCH   3   9
ATOM      7  C   UNL     1       0.112   1.159  -0.752  0.00  0.00    +0.004 A 
ATOM      8  C   UNL     1       1.298   1.867  -0.756  0.00  0.00    +0.023 A 
ATOM      9  C   UNL     1       2.381   1.409  -0.019  0.00  0.00    +0.036 A 
ATOM     10  C   UNL     1       2.269   0.238   0.720  0.00  0.00    +0.056 A 
ATOM     11  C   UNL     1       1.081  -0.466   0.720  0.00  0.00    +0.128 A 
ATOM     12  C   UNL     1       0.003  -0.006  -0.015  0.00  0.00    +0.033 A 
BRANCH  11  13
ATOM     13  N   UNL     1       0.960  -1.713   1.507  0.00  0.00    +0.056 N 
ATOM     14  O   UNL     1       1.901  -2.116   2.150  0.00  0.00    -0.126 OA
ATOM     15  O   UNL     1      -0.080  -2.330   1.508  0.00  0.00    -0.126 OA
ENDBRANCH  11  13
ENDBRANCH   3   9
ENDBRANCH   2   4
ENDBRANCH   1   2
BRANCH   1  16
ATOM     16  S   UNL     1       6.125   6.644  -0.476  0.00  0.00    -0.086 S 
BRANCH  16  17
ATOM     17  C   UNL     1       5.621   8.330  -0.570  0.00  0.00    +0.185 A 
ATOM     18  N   UNL     1       4.382   8.769  -0.535  0.00  0.00    -0.201 NA
ATOM     19  H   UNL     1       7.410   9.385  -0.729  0.00  0.00    +0.191 HD
ATOM     20  C   UNL     1       4.375  10.106  -0.630  0.00  0.00    +0.182 A 
ATOM     21  N   UNL     1       5.614  10.533  -0.726  0.00  0.00    -0.152 NA
ATOM     22  N   UNL     1       6.441   9.399  -0.684  0.00  0.00    -0.253 N 
BRANCH  20  23
ATOM     23  C   UNL     1       3.164  10.965  -0.628  0.00  0.00    +0.021 A 
ATOM     24  C   UNL     1       1.900  10.390  -0.515  0.00  0.00    +0.013 A 
ATOM     25  C   UNL     1       0.777  11.193  -0.513  0.00  0.00    +0.016 A 
ATOM     26  C   UNL     1       0.906  12.567  -0.624  0.00  0.00    +0.018 A 
ATOM     27  C   UNL     1       2.160  13.143  -0.736  0.00  0.00    +0.016 A 
ATOM     28  C   UNL     1       3.289  12.349  -0.733  0.00  0.00    +0.013 A 
ATOM     29 BR   UNL     1      -0.636  13.661  -0.622  0.00  0.00    -0.050 Br
ENDBRANCH  20  23
ENDBRANCH  16  17
ENDBRANCH   1  16
TORSDOF 7
