REMARK  Name = ZINC13998144
REMARK  11 active torsions:
REMARK  status: ('A' for Active; 'I' for Inactive)
REMARK    1  A    between atoms: C_1  and  C_2
REMARK    2  A    between atoms: C_5  and  C_8
REMARK    3  A    between atoms: C_9  and  C_10
REMARK    4  A    between atoms: N_12  and  C_13
REMARK    5  A    between atoms: C_13  and  N_15
REMARK    6  A    between atoms: N_15  and  C_16
REMARK    7  A    between atoms: C_19  and  S_22
REMARK    8  A    between atoms: S_22  and  N_25
REMARK    9  A    between atoms: N_25  and  C_26
REMARK   10  A    between atoms: C_27  and  C_33
REMARK   11  A    between atoms: C_31  and  C_32
REMARK                            x       y       z     vdW  Elec       q    Type
REMARK                         _______ _______ _______ _____ _____    ______ ____
ROOT
ATOM      1  C   UNL     1      -0.316   2.027   0.696  0.00  0.00    +0.033 A 
ATOM      2  C   UNL     1      -1.066   1.002   1.258  0.00  0.00    +0.025 A 
ATOM      3  C   UNL     1      -0.642  -0.307   1.139  0.00  0.00    +0.030 A 
ATOM      4  C   UNL     1       0.528  -0.597   0.461  0.00  0.00    +0.109 A 
ATOM      5  C   UNL     1       1.277   0.421  -0.099  0.00  0.00    +0.030 A 
ATOM      6  C   UNL     1       0.859   1.732   0.016  0.00  0.00    +0.025 A 
ENDROOT
BRANCH   4   7
ATOM      7  S   UNL     1       1.065  -2.269   0.312  0.00  0.00    +0.072 S 
ATOM      8  O   UNL     1       2.448  -2.223  -0.012  0.00  0.00    -0.150 OA
ATOM      9  O   UNL     1       0.573  -2.957   1.454  0.00  0.00    -0.150 OA
BRANCH   7  10
ATOM     10  N   UNL     1       0.292  -2.916  -1.001  0.00  0.00    -0.216 N 
ATOM     11  H   UNL     1      -0.452  -3.526  -0.874  0.00  0.00    +0.174 HD
BRANCH  10  12
ATOM     12  C   UNL     1       0.710  -2.584  -2.292  0.00  0.00    +0.054 A 
ATOM     13  C   UNL     1      -0.052  -1.723  -3.071  0.00  0.00    -0.028 A 
ATOM     14  C   UNL     1       0.366  -1.393  -4.345  0.00  0.00    +0.005 A 
ATOM     15  C   UNL     1       1.538  -1.926  -4.849  0.00  0.00    +0.001 A 
ATOM     16  C   UNL     1       2.297  -2.788  -4.078  0.00  0.00    +0.005 A 
ATOM     17  C   UNL     1       1.887  -3.118  -2.802  0.00  0.00    -0.028 A 
ATOM     18  C   UNL     1       2.714  -4.057  -1.962  0.00  0.00    +0.046 C 
ATOM     19  C   UNL     1      -1.333  -1.145  -2.524  0.00  0.00    +0.046 C 
ENDBRANCH  10  12
ENDBRANCH   7  10
ENDBRANCH   4   7
BRANCH   1  20
ATOM     20  N   UNL     1      -0.742   3.354   0.815  0.00  0.00    -0.297 N 
ATOM     21  H   UNL     1      -0.657   3.960   0.062  0.00  0.00    +0.154 HD
BRANCH  20  22
ATOM     22  C   UNL     1      -1.272   3.791   1.974  0.00  0.00    +0.141 C 
ATOM     23  S   UNL     1      -1.294   2.765   3.345  0.00  0.00    -0.018 S 
BRANCH  22  26
ATOM     24  C   UNL     1      -2.313   5.472   3.215  0.00  0.00    +0.242 C 
ATOM     25  O   UNL     1      -2.329   4.743   4.189  0.00  0.00    -0.270 OA
ATOM     26  N   UNL     1      -1.784   5.035   2.055  0.00  0.00    -0.264 N 
ATOM     27  H   UNL     1      -1.771   5.616   1.279  0.00  0.00    +0.157 HD
BRANCH  24  29
ATOM     28  C   UNL     1      -3.399   7.259   4.464  0.00  0.00    +0.013 C 
ATOM     29  C   UNL     1      -2.869   6.822   3.303  0.00  0.00    +0.068 C 
BRANCH  28  34
ATOM     30  C   UNL     1      -5.582  12.566   4.810  0.00  0.00    +0.044 C 
ATOM     31  C   UNL     1      -5.009  11.175   4.719  0.00  0.00    -0.050 A 
ATOM     32  C   UNL     1      -5.029  10.349   5.830  0.00  0.00    +0.004 A 
ATOM     33  C   UNL     1      -4.508   9.075   5.755  0.00  0.00    +0.008 A 
ATOM     34  C   UNL     1      -3.958   8.618   4.553  0.00  0.00    -0.025 A 
ATOM     35  C   UNL     1      -3.936   9.461   3.437  0.00  0.00    +0.008 A 
ATOM     36  C   UNL     1      -4.466  10.731   3.527  0.00  0.00    +0.004 A 
ENDBRANCH  28  34
ENDBRANCH  24  29
ENDBRANCH  22  26
ENDBRANCH  20  22
ENDBRANCH   1  20
TORSDOF 8
