REMARK  Name = ZINC36730154
REMARK  6 active torsions:
REMARK  status: ('A' for Active; 'I' for Inactive)
REMARK    1  A    between atoms: C_1  and  C_2
REMARK    2  A    between atoms: C_9  and  C_11
REMARK    3  A    between atoms: C_14  and  S_17
REMARK    4  A    between atoms: S_17  and  N_20
REMARK    5  A    between atoms: C_22  and  C_29
REMARK    6  A    between atoms: C_25  and  C_28
REMARK                            x       y       z     vdW  Elec       q    Type
REMARK                         _______ _______ _______ _____ _____    ______ ____
ROOT
ATOM      1  C   UNL     1       0.468  -4.237   2.069  0.00  0.00    +0.037 A 
ATOM      2  C   UNL     1       1.032  -4.862   0.956  0.00  0.00    +0.015 A 
ATOM      3  C   UNL     1       1.049  -6.239   0.877  0.00  0.00    +0.029 A 
ATOM      4  C   UNL     1       0.508  -7.000   1.898  0.00  0.00    +0.106 A 
ATOM      5  C   UNL     1      -0.053  -6.387   3.004  0.00  0.00    +0.029 A 
ATOM      6  C   UNL     1      -0.071  -5.011   3.098  0.00  0.00    +0.015 A 
ENDROOT
BRANCH   1  14
ATOM      7  C   UNL     1      -1.660   1.378   0.876  0.00  0.00    +0.009 C 
ATOM      8  C   UNL     1      -1.566  -0.149   0.901  0.00  0.00    +0.003 C 
ATOM      9  C   UNL     1      -1.942  -0.706  -0.474  0.00  0.00    +0.006 C 
ATOM     10  C   UNL     1      -1.879  -2.235  -0.442  0.00  0.00    +0.019 C 
ATOM     11  C   UNL     1      -0.449  -2.677  -0.116  0.00  0.00    +0.108 C 
ATOM     12  N   UNL     1      -0.027  -2.029   1.134  0.00  0.00    -0.297 N 
ATOM     13  C   UNL     1      -0.132  -0.567   1.243  0.00  0.00    +0.111 C 
ATOM     14  C   UNL     1       0.447  -2.761   2.161  0.00  0.00    +0.247 C 
ATOM     15  O   UNL     1       0.857  -2.209   3.163  0.00  0.00    -0.270 OA
ENDBRANCH   1  14
BRANCH   4  16
ATOM     16  S   UNL     1       0.533  -8.759   1.788  0.00  0.00    +0.061 S 
ATOM     17  O   UNL     1      -0.522  -9.232   2.614  0.00  0.00    -0.153 OA
ATOM     18  O   UNL     1       0.621  -9.079   0.407  0.00  0.00    -0.153 OA
BRANCH  16  19
ATOM     19  N   UNL     1       1.945  -9.273   2.484  0.00  0.00    -0.176 NA
ATOM     20  C   UNL     1       3.165  -9.421   1.680  0.00  0.00    +0.112 C 
ATOM     21  C   UNL     1       4.293  -8.622   2.342  0.00  0.00    +0.002 C 
ATOM     22  C   UNL     1       4.442  -9.069   3.798  0.00  0.00    +0.009 C 
ATOM     23  C   UNL     1       3.142  -8.788   4.555  0.00  0.00    +0.002 C 
ATOM     24  C   UNL     1       2.003  -9.583   3.919  0.00  0.00    +0.112 C 
ATOM     25  C   UNL     1       3.303  -9.204   6.019  0.00  0.00    +0.009 C 
ATOM     26  C   UNL     1       3.956  -7.130   2.296  0.00  0.00    +0.009 C 
ENDBRANCH  16  19
ENDBRANCH   4  16
TORSDOF 3
