REMARK  Name = ZINC15735552
REMARK  4 active torsions:
REMARK  status: ('A' for Active; 'I' for Inactive)
REMARK    1  A    between atoms: C_1  and  C_2
REMARK    2  A    between atoms: C_6  and  C_8
REMARK    3  A    between atoms: N_28  and  C_29
REMARK    4  A    between atoms: C_34  and  C_35
REMARK                            x       y       z     vdW  Elec       q    Type
REMARK                         _______ _______ _______ _____ _____    ______ ____
ROOT
ATOM      1  C   UNL     1       5.995   3.250   0.288  0.00  0.00    +0.155 C 
ATOM      2  C   UNL     1       6.863   4.219  -0.465  0.00  0.00    +0.049 A 
ATOM      3  C   UNL     1       7.560   4.040  -1.597  0.00  0.00    +0.025 A 
ATOM      4  C   UNL     1       8.283   5.228  -1.840  0.00  0.00    +0.020 A 
ATOM      5  C   UNL     1       7.987   6.096  -0.846  0.00  0.00    +0.092 A 
ATOM      6  N   UNL     1       7.100   5.498  -0.018  0.00  0.00    -0.312 N 
ATOM      7  C   UNL     1       6.433   5.963   1.109  0.00  0.00    +0.090 A 
ATOM      8  C   UNL     1       5.106   5.776   1.341  0.00  0.00    +0.005 A 
ATOM      9  C   UNL     1       4.597   6.272   2.559  0.00  0.00    -0.030 A 
ATOM     10  C   UNL     1       5.459   6.920   3.386  0.00  0.00    -0.005 A 
ATOM     11  S   UNL     1       7.010   6.849   2.524  0.00  0.00    -0.075 S 
ATOM     12  C   UNL     1       5.160   7.541   4.711  0.00  0.00    +0.043 C 
ATOM     13  C   UNL     1       3.634   7.656   4.855  0.00  0.00    +0.005 C 
ATOM     14  C   UNL     1       3.002   6.318   4.462  0.00  0.00    +0.005 C 
ATOM     15  C   UNL     1       3.133   6.100   2.954  0.00  0.00    +0.036 C 
ATOM     16  C   UNL     1       4.248   5.063   0.319  0.00  0.00    +0.148 C 
ATOM     17  N   UNL     1       4.563   3.627   0.212  0.00  0.00    -0.268 N 
ATOM     18  C   UNL     1       3.596   2.701   0.059  0.00  0.00    +0.308 C 
ATOM     19  O   UNL     1       3.889   1.524  -0.026  0.00  0.00    -0.252 OA
ATOM     20  N   UNL     1       2.304   3.080   0.001  0.00  0.00    -0.269 N 
ATOM     21  H   UNL     1       2.074   4.022   0.001  0.00  0.00    +0.156 HD
ENDROOT
BRANCH   1  27
ATOM     22  C   UNL     1       9.575   3.664   3.761  0.00  0.00    +0.044 C 
ATOM     23  C   UNL     1       8.133   3.421   3.395  0.00  0.00    -0.050 A 
ATOM     24  C   UNL     1       7.201   3.173   4.385  0.00  0.00    +0.003 A 
ATOM     25  C   UNL     1       5.878   2.951   4.050  0.00  0.00    +0.001 A 
ATOM     26  C   UNL     1       5.488   2.976   2.723  0.00  0.00    +0.006 A 
ATOM     27  C   UNL     1       6.420   3.223   1.733  0.00  0.00    -0.021 A 
ATOM     28  C   UNL     1       7.744   3.441   2.069  0.00  0.00    +0.009 A 
ENDBRANCH   1  27
BRANCH  20  29
ATOM     29  C   UNL     1       1.294   2.113  -0.060  0.00  0.00    +0.038 A 
ATOM     30  C   UNL     1       1.548   0.876  -0.637  0.00  0.00    +0.023 A 
ATOM     31  C   UNL     1       0.549  -0.076  -0.696  0.00  0.00    +0.002 A 
ATOM     32  C   UNL     1      -0.705   0.204  -0.185  0.00  0.00    +0.000 A 
ATOM     33  C   UNL     1      -0.960   1.433   0.395  0.00  0.00    +0.005 A 
ATOM     34  C   UNL     1       0.035   2.389   0.457  0.00  0.00    -0.029 A 
ATOM     35  C   UNL     1      -0.246   3.731   1.083  0.00  0.00    +0.045 C 
ENDBRANCH  20  29
TORSDOF 2
