REMARK  Name = ZINC24515407
REMARK  9 active torsions:
REMARK  status: ('A' for Active; 'I' for Inactive)
REMARK    1  A    between atoms: C_4  and  C_7
REMARK    2  A    between atoms: C_7  and  C_9
REMARK    3  A    between atoms: C_7  and  N_15
REMARK    4  A    between atoms: N_11  and  C_12
REMARK    5  A    between atoms: N_15  and  C_16
REMARK    6  A    between atoms: C_16  and  C_17
REMARK    7  A    between atoms: C_17  and  C_19
REMARK    8  A    between atoms: C_17  and  O_28
REMARK    9  A    between atoms: C_22  and  N_25
REMARK                            x       y       z     vdW  Elec       q    Type
REMARK                         _______ _______ _______ _____ _____    ______ ____
ROOT
ATOM      1  N   UNL     1       1.357   1.660  -2.448  0.00  0.00    +0.391 N 
ATOM      2  H   UNL     1       1.334   2.757  -2.378  0.00  0.00    -0.084 HD
ATOM      3  H   UNL     1       0.329   1.271  -2.467  0.00  0.00    -0.084 HD
ENDROOT
BRANCH   1   4
ATOM      4  C   UNL     1       2.054   1.262  -3.678  0.00  0.00    +0.047 C 
BRANCH   4   8
ATOM      5  C   UNL     1       0.724  -2.616  -4.877  0.00  0.00    +0.000 A 
ATOM      6  C   UNL     1       2.060  -2.279  -4.987  0.00  0.00    +0.000 A 
ATOM      7  C   UNL     1       2.490  -1.024  -4.599  0.00  0.00    +0.002 A 
ATOM      8  C   UNL     1       1.585  -0.106  -4.101  0.00  0.00    -0.053 A 
ATOM      9  C   UNL     1       0.249  -0.445  -3.987  0.00  0.00    +0.002 A 
ATOM     10  C   UNL     1      -0.182  -1.698  -4.380  0.00  0.00    +0.000 A 
ENDBRANCH   4   8
BRANCH   4  11
ATOM     11  C   UNL     1       1.754   2.256  -4.770  0.00  0.00    +0.203 C 
ATOM     12  O   UNL     1       1.030   3.203  -4.545  0.00  0.00    -0.277 OA
ATOM     13  N   UNL     1       2.289   2.093  -5.996  0.00  0.00    -0.314 N 
ATOM     14  H   UNL     1       2.945   1.234  -6.200  0.00  0.00    +0.149 HD
BRANCH  13  15
ATOM     15  C   UNL     1       1.997   3.060  -7.057  0.00  0.00    +0.073 C 
ATOM     16  C   UNL     1       1.673   2.507  -8.447  0.00  0.00    +0.024 C 
ATOM     17  C   UNL     1       3.016   3.195  -8.190  0.00  0.00    +0.024 C 
ENDBRANCH  13  15
ENDBRANCH   4  11
ENDBRANCH   1   4
BRANCH   1  18
ATOM     18  C   UNL     1       2.040   1.127  -1.261  0.00  0.00    -0.045 C 
BRANCH  18  19
ATOM     19  C   UNL     1       1.286   1.562  -0.002  0.00  0.00    +0.128 C 
BRANCH  19  20
ATOM     20  C   UNL     1       2.052   1.121   1.219  0.00  0.00    -0.021 A 
ATOM     21  C   UNL     1       1.956  -0.186   1.661  0.00  0.00    +0.008 A 
ATOM     22  C   UNL     1       2.662  -0.592   2.778  0.00  0.00    +0.033 A 
ATOM     23  C   UNL     1       3.456   0.312   3.459  0.00  0.00    +0.126 A 
ATOM     24  C   UNL     1       3.548   1.619   3.021  0.00  0.00    +0.033 A 
ATOM     25  C   UNL     1       2.846   2.024   1.901  0.00  0.00    +0.008 A 
BRANCH  23  26
ATOM     26  N   UNL     1       4.207  -0.121   4.659  0.00  0.00    +0.056 N 
ATOM     27  O   UNL     1       4.906   0.675   5.260  0.00  0.00    -0.126 OA
ATOM     28  O   UNL     1       4.126  -1.274   5.045  0.00  0.00    -0.126 OA
ENDBRANCH  23  26
ENDBRANCH  19  20
BRANCH  19  29
ATOM     29  O   UNL     1      -0.011   0.963   0.007  0.00  0.00    -0.389 OA
ATOM     30  H   UNL     1      -0.702   1.160   0.840  0.00  0.00    +0.210 HD
ENDBRANCH  19  29
ENDBRANCH  18  19
ENDBRANCH   1  18
TORSDOF 9
