REMARK  Name = ZINC06929300
REMARK  5 active torsions:
REMARK  status: ('A' for Active; 'I' for Inactive)
REMARK    1  A    between atoms: C_1  and  C_2
REMARK    2  A    between atoms: C_10  and  C_11
REMARK    3  A    between atoms: N_13  and  N_14
REMARK    4  A    between atoms: C_15  and  C_17
REMARK    5  A    between atoms: C_18  and  C_19
REMARK                            x       y       z     vdW  Elec       q    Type
REMARK                         _______ _______ _______ _____ _____    ______ ____
ROOT
ATOM      1  N   UNL     1      -0.011   0.966   0.007  0.00  0.00    -0.231 N 
ATOM      2  C   UNL     1       1.147   1.655   0.000  0.00  0.00    +0.253 C 
ATOM      3  O   UNL     1       1.130   2.873   0.007  0.00  0.00    -0.269 OA
ATOM      4  H   UNL     1       0.002  -0.004   0.002  0.00  0.00    +0.173 HD
ENDROOT
BRANCH   1   7
ATOM      5  C   UNL     1      -2.392   0.960   0.019  0.00  0.00    +0.296 C 
ATOM      6  O   UNL     1      -2.375  -0.256   0.012  0.00  0.00    -0.265 OA
ATOM      7  N   UNL     1      -1.234   1.650   0.017  0.00  0.00    -0.228 N 
ATOM      8  H   UNL     1      -1.247   2.620   0.022  0.00  0.00    +0.173 HD
BRANCH   5  18
ATOM      9  C   UNL     1      -5.194  -0.388   0.012  0.00  0.00    +0.048 C 
ATOM     10  C   UNL     1      -4.899   1.090   0.026  0.00  0.00    +0.008 A 
ATOM     11  C   UNL     1      -5.872   2.181   0.042  0.00  0.00    +0.024 A 
ATOM     12  C   UNL     1      -7.268   2.241   0.049  0.00  0.00    +0.012 A 
ATOM     13  C   UNL     1      -7.893   3.456   0.059  0.00  0.00    +0.001 A 
ATOM     14  C   UNL     1      -7.151   4.629   0.061  0.00  0.00    +0.004 A 
ATOM     15  C   UNL     1      -5.774   4.592   0.054  0.00  0.00    +0.047 A 
ATOM     16  C   UNL     1      -5.115   3.368   0.044  0.00  0.00    +0.136 A 
ATOM     17  O   UNL     1      -3.813   3.020   0.036  0.00  0.00    -0.450 OA
ATOM     18  C   UNL     1      -3.674   1.678   0.029  0.00  0.00    +0.195 A 
ENDBRANCH   5  18
ENDBRANCH   1   7
BRANCH   2  19
ATOM     19  C   UNL     1       2.423   0.942  -0.016  0.00  0.00    +0.069 C 
ATOM     20  C   UNL     1       3.583   1.632  -0.023  0.00  0.00    +0.013 C 
BRANCH  20  21
ATOM     21  C   UNL     1       4.866   0.915  -0.040  0.00  0.00    -0.021 A 
ATOM     22  C   UNL     1       4.887  -0.485  -0.047  0.00  0.00    +0.012 A 
ATOM     23  C   UNL     1       6.091  -1.154  -0.062  0.00  0.00    +0.050 A 
ATOM     24  C   UNL     1       7.285  -0.446  -0.069  0.00  0.00    +0.166 A 
ATOM     25  C   UNL     1       7.272   0.950  -0.062  0.00  0.00    +0.167 A 
ATOM     26  C   UNL     1       6.069   1.629  -0.053  0.00  0.00    +0.057 A 
ATOM     27  O   UNL     1       8.562   1.398  -0.071  0.00  0.00    -0.453 OA
ATOM     28  C   UNL     1       9.355   0.275  -0.498  0.00  0.00    +0.466 C 
ATOM     29  O   UNL     1       8.582  -0.868  -0.084  0.00  0.00    -0.453 OA
ENDBRANCH  20  21
ENDBRANCH   2  19
TORSDOF 4
