REMARK  Name = ZINC13500187
REMARK  15 active torsions:
REMARK  status: ('A' for Active; 'I' for Inactive)
REMARK    1  A    between atoms: C_1  and  C_2
REMARK    2  A    between atoms: C_2  and  C_3
REMARK    3  A    between atoms: C_3  and  C_4
REMARK    4  A    between atoms: C_4  and  C_6
REMARK    5  A    between atoms: C_4  and  N_75
REMARK    6  A    between atoms: N_10  and  C_11
REMARK    7  A    between atoms: C_11  and  C_12
REMARK    8  A    between atoms: C_11  and  C_13
REMARK    9  A    between atoms: C_11  and  C_14
REMARK   10  A    between atoms: C_15  and  C_16
REMARK   11  A    between atoms: C_15  and  N_75
REMARK   12  A    between atoms: C_20  and  O_28
REMARK   13  A    between atoms: O_28  and  C_29
REMARK   14  A    between atoms: C_29  and  C_30
REMARK   15  A    between atoms: C_31  and  N_75
REMARK                            x       y       z     vdW  Elec       q    Type
REMARK                         _______ _______ _______ _____ _____    ______ ____
ROOT
ATOM      1  N   UNL     1       1.044   4.043   0.264  0.00  0.00    +0.391 N 
ATOM      2  H   UNL     1       0.729   4.748  -0.412  0.00  0.00    -0.080 HD
ENDROOT
BRANCH   1   3
ATOM      3  C   UNL     1       0.610   2.708  -0.198  0.00  0.00    -0.067 C 
ATOM      4  C   UNL     1       1.262   2.414  -1.550  0.00  0.00    -0.015 C 
ATOM      5  C   UNL     1       0.801   1.043  -2.051  0.00  0.00    -0.002 C 
ATOM      6  C   UNL     1       1.210  -0.032  -1.043  0.00  0.00    -0.000 C 
ATOM      7  C   UNL     1       0.559   0.262   0.309  0.00  0.00    -0.002 C 
ATOM      8  C   UNL     1       1.020   1.632   0.810  0.00  0.00    -0.015 C 
ENDBRANCH   1   3
BRANCH   1   9
ATOM      9  C   UNL     1       2.518   4.091   0.357  0.00  0.00    +0.003 C 
BRANCH   9  10
ATOM     10  C   UNL     1       3.077   4.389  -1.011  0.00  0.00    +0.139 A 
ATOM     11  N   UNL     1       2.534   5.152  -1.929  0.00  0.00    -0.115 NA
ATOM     12  N   UNL     1       3.314   5.156  -2.954  0.00  0.00    -0.023 NA
ATOM     13  N   UNL     1       4.336   4.409  -2.717  0.00  0.00    -0.043 NA
ATOM     14  N   UNL     1       4.226   3.918  -1.529  0.00  0.00    -0.226 N 
BRANCH  14  15
ATOM     15  C   UNL     1       5.175   3.018  -0.869  0.00  0.00    +0.059 C 
ATOM     16  C   UNL     1       4.521   1.651  -0.661  0.00  0.00    +0.036 C 
ATOM     17  C   UNL     1       6.421   2.860  -1.742  0.00  0.00    +0.036 C 
ATOM     18  C   UNL     1       5.574   3.604   0.487  0.00  0.00    +0.036 C 
ENDBRANCH  14  15
ENDBRANCH   9  10
BRANCH   9  19
ATOM     19  C   UNL     1       2.929   5.200   1.328  0.00  0.00    -0.008 C 
BRANCH  19  21
ATOM     20  C   UNL     1       3.121   5.826   3.739  0.00  0.00    +0.004 C 
ATOM     21  C   UNL     1       2.827   4.684   2.764  0.00  0.00    -0.005 C 
ENDBRANCH  19  21
ENDBRANCH   9  19
ENDBRANCH   1   9
BRANCH   1  22
ATOM     22  C   UNL     1       0.445   4.341   1.582  0.00  0.00    -0.036 C 
BRANCH  22  23
ATOM     23  C   UNL     1      -1.052   4.419   1.431  0.00  0.00    +0.001 A 
ATOM     24  C   UNL     1      -1.817   3.334   1.707  0.00  0.00    +0.017 A 
ATOM     25  C   UNL     1      -3.269   3.443   1.550  0.00  0.00    +0.002 A 
ATOM     26  C   UNL     1      -4.107   2.357   1.821  0.00  0.00    +0.055 A 
ATOM     27  C   UNL     1      -5.472   2.494   1.663  0.00  0.00    +0.121 A 
ATOM     28  C   UNL     1      -6.012   3.705   1.236  0.00  0.00    +0.047 A 
ATOM     29  C   UNL     1      -5.197   4.781   0.967  0.00  0.00    +0.030 A 
ATOM     30  C   UNL     1      -3.819   4.665   1.119  0.00  0.00    +0.049 A 
ATOM     31  N   UNL     1      -2.985   5.732   0.855  0.00  0.00    -0.322 N 
ATOM     32  H   UNL     1      -3.365   6.573   0.558  0.00  0.00    +0.169 HD
ATOM     33  C   UNL     1      -1.654   5.624   1.008  0.00  0.00    +0.251 A 
ATOM     34  O   UNL     1      -0.948   6.589   0.770  0.00  0.00    -0.268 OA
BRANCH  27  35
ATOM     35  O   UNL     1      -6.292   1.441   1.924  0.00  0.00    -0.492 OA
BRANCH  35  36
ATOM     36  C   UNL     1      -7.694   1.650   1.740  0.00  0.00    +0.225 C 
ATOM     37  C   UNL     1      -8.450   0.364   2.080  0.00  0.00    +0.048 C 
ENDBRANCH  35  36
ENDBRANCH  27  35
ENDBRANCH  22  23
ENDBRANCH   1  22
TORSDOF 10
