REMARK  Name = ZINC66203529
REMARK  12 active torsions:
REMARK  status: ('A' for Active; 'I' for Inactive)
REMARK    1  A    between atoms: C_1  and  C_2
REMARK    2  A    between atoms: C_2  and  C_3
REMARK    3  A    between atoms: C_3  and  C_5
REMARK    4  A    between atoms: C_3  and  N_6
REMARK    5  A    between atoms: N_6  and  C_7
REMARK    6  A    between atoms: N_6  and  C_8
REMARK    7  A    between atoms: C_8  and  C_9
REMARK    8  A    between atoms: C_9  and  N_10
REMARK    9  A    between atoms: N_13  and  C_14
REMARK   10  A    between atoms: C_18  and  S_20
REMARK   11  A    between atoms: S_20  and  N_23
REMARK   12  A    between atoms: N_23  and  C_24
REMARK                            x       y       z     vdW  Elec       q    Type
REMARK                         _______ _______ _______ _____ _____    ______ ____
ROOT
ATOM      1  N   UNL     1       0.887  -0.898  -6.163  0.00  0.00    -0.301 N 
ATOM      2  C   UNL     1       0.520  -0.677  -7.440  0.00  0.00    +0.304 C 
ATOM      3  O   UNL     1      -0.474  -0.020  -7.682  0.00  0.00    -0.253 OA
ATOM      4  N   UNL     1       1.255  -1.185  -8.450  0.00  0.00    -0.269 N 
ATOM      5  H   UNL     1       1.680  -1.423  -5.970  0.00  0.00    +0.150 HD
ATOM      6  H   UNL     1       2.007  -1.767  -8.258  0.00  0.00    +0.156 HD
ENDROOT
BRANCH   4   7
ATOM      7  C   UNL     1       0.932  -0.873  -9.776  0.00  0.00    +0.037 A 
ATOM      8  C   UNL     1       0.418   0.378 -10.090  0.00  0.00    +0.023 A 
ATOM      9  C   UNL     1       0.101   0.683 -11.399  0.00  0.00    +0.004 A 
ATOM     10  C   UNL     1       0.295  -0.255 -12.396  0.00  0.00    +0.028 A 
ATOM     11  C   UNL     1       0.807  -1.502 -12.086  0.00  0.00    +0.107 A 
ATOM     12  C   UNL     1       1.131  -1.811 -10.780  0.00  0.00    +0.051 A 
BRANCH  11  13
ATOM     13  S   UNL     1       1.051  -2.695 -13.360  0.00  0.00    +0.059 S 
ATOM     14  O   UNL     1       1.029  -3.969 -12.732  0.00  0.00    -0.153 OA
ATOM     15  O   UNL     1       0.164  -2.349 -14.415  0.00  0.00    -0.153 OA
BRANCH  13  16
ATOM     16  N   UNL     1       2.586  -2.481 -13.943  0.00  0.00    -0.187 NA
ATOM     17  H   UNL     1       2.721  -2.189 -14.858  0.00  0.00    +0.148 HD
BRANCH  16  18
ATOM     18  C   UNL     1       3.741  -2.733 -13.076  0.00  0.00    +0.077 C 
ATOM     19  C   UNL     1       4.979  -1.857 -13.277  0.00  0.00    +0.022 C 
ATOM     20  C   UNL     1       4.996  -3.320 -13.725  0.00  0.00    +0.022 C 
ENDBRANCH  16  18
ENDBRANCH  13  16
ENDBRANCH  11  13
ENDBRANCH   4   7
BRANCH   1  21
ATOM     21  C   UNL     1       0.089  -0.347  -5.065  0.00  0.00    +0.087 C 
BRANCH  21  22
ATOM     22  C   UNL     1       0.719  -0.741  -3.728  0.00  0.00    -0.060 C 
BRANCH  22  23
ATOM     23  N   UNL     1      -0.081  -0.188  -2.627  0.00  0.00    +0.381 N 
ATOM     24  C   UNL     1      -0.028   1.279  -2.672  0.00  0.00    -0.096 C 
ATOM     25  H   UNL     1      -1.039  -0.493  -2.721  0.00  0.00    -0.082 HD
BRANCH  23  26
ATOM     26  C   UNL     1       0.458  -0.659  -1.345  0.00  0.00    -0.072 C 
ATOM     27  C   UNL     1       1.941  -0.293  -1.250  0.00  0.00    -0.013 C 
BRANCH  26  29
ATOM     28  C   UNL     1      -1.186  -2.536  -1.228  0.00  0.00    +0.002 C 
ATOM     29  C   UNL     1       0.301  -2.178  -1.251  0.00  0.00    -0.019 C 
ENDBRANCH  26  29
ENDBRANCH  23  26
ENDBRANCH  22  23
ENDBRANCH  21  22
ENDBRANCH   1  21
TORSDOF 9
