REMARK  Name = ZINC65259984
REMARK  6 active torsions:
REMARK  status: ('A' for Active; 'I' for Inactive)
REMARK    1  A    between atoms: C_1  and  O_2
REMARK    2  A    between atoms: O_2  and  C_3
REMARK    3  A    between atoms: C_5  and  C_11
REMARK    4  A    between atoms: C_7  and  O_9
REMARK    5  A    between atoms: O_9  and  C_10
REMARK    6  A    between atoms: N_28  and  C_29
REMARK                            x       y       z     vdW  Elec       q    Type
REMARK                         _______ _______ _______ _____ _____    ______ ____
ROOT
ATOM      1  C   UNL     1      -2.549  -4.148   0.015  0.00  0.00    +0.247 C 
ATOM      2  O   UNL     1      -1.528  -4.798  -0.100  0.00  0.00    -0.270 OA
ATOM      3  N   UNL     1      -3.737  -4.774   0.125  0.00  0.00    -0.295 N 
ATOM      4  C   UNL     1      -4.990  -4.006   0.131  0.00  0.00    +0.108 C 
ATOM      5  C   UNL     1      -5.917  -4.564  -0.954  0.00  0.00    +0.021 C 
ATOM      6  C   UNL     1      -6.104  -6.068  -0.736  0.00  0.00    +0.036 C 
ATOM      7  C   UNL     1      -4.754  -6.773  -0.832  0.00  0.00    +0.102 C 
ATOM      8  C   UNL     1      -3.807  -6.238   0.235  0.00  0.00    +0.141 C 
ATOM      9  C   UNL     1      -4.942  -8.264  -0.643  0.00  0.00    +0.098 C 
ATOM     10  N   UNL     1      -5.582  -8.939  -1.667  0.00  0.00    -0.301 N 
ATOM     11  C   UNL     1      -5.294  -8.547  -2.986  0.00  0.00    +0.053 A 
ATOM     12  C   UNL     1      -5.699  -9.341  -4.047  0.00  0.00    +0.025 A 
ATOM     13  C   UNL     1      -5.422  -8.953  -5.345  0.00  0.00    +0.002 A 
ATOM     14  C   UNL     1      -4.744  -7.772  -5.587  0.00  0.00    +0.002 A 
ATOM     15  C   UNL     1      -4.335  -6.975  -4.534  0.00  0.00    +0.025 A 
ATOM     16  C   UNL     1      -4.604  -7.360  -3.229  0.00  0.00    +0.049 A 
ATOM     17  N   UNL     1      -4.170  -6.559  -2.163  0.00  0.00    -0.329 N 
ATOM     18  N   UNL     1      -4.527  -8.874   0.419  0.00  0.00    -0.372 N 
ATOM     19  H   UNL     1      -3.497  -5.875  -2.301  0.00  0.00    +0.147 HD
ATOM     20  H   UNL     1      -4.081  -8.375   1.122  0.00  0.00    +0.161 HD
ATOM     21  H   UNL     1      -6.206  -9.658  -1.482  0.00  0.00    +0.153 HD
ENDROOT
BRANCH   1  24
ATOM     22  C   UNL     1      -1.579  -0.611  -0.816  0.00  0.00    +0.124 A 
ATOM     23  C   UNL     1      -1.634  -1.995  -0.838  0.00  0.00    +0.059 A 
ATOM     24  C   UNL     1      -2.486  -2.671   0.036  0.00  0.00    +0.044 A 
ATOM     25  C   UNL     1      -3.279  -1.950   0.929  0.00  0.00    +0.059 A 
ATOM     26  C   UNL     1      -3.217  -0.566   0.945  0.00  0.00    +0.124 A 
ATOM     27  C   UNL     1      -2.365   0.102   0.077  0.00  0.00    +0.091 A 
BRANCH  22  29
ATOM     28  C   UNL     1      -0.738   1.475  -1.586  0.00  0.00    +0.277 C 
ATOM     29  O   UNL     1      -0.750   0.049  -1.667  0.00  0.00    -0.495 OA
ENDBRANCH  22  29
BRANCH  26  30
ATOM     30  O   UNL     1      -3.989   0.138   1.814  0.00  0.00    -0.495 OA
ATOM     31  C   UNL     1      -3.875   1.562   1.776  0.00  0.00    +0.277 C 
ENDBRANCH  26  30
ENDBRANCH   1  24
BRANCH  18  32
ATOM     32  C   UNL     1      -4.730 -10.318   0.562  0.00  0.00    +0.080 C 
ATOM     33  C   UNL     1      -6.105 -10.598   1.202  0.00  0.00    +0.024 C 
ATOM     34  C   UNL     1      -5.853 -11.816   2.126  0.00  0.00    +0.002 C 
ATOM     35  C   UNL     1      -4.443 -11.525   2.698  0.00  0.00    +0.002 C 
ATOM     36  C   UNL     1      -3.673 -10.907   1.513  0.00  0.00    +0.024 C 
ENDBRANCH  18  32
TORSDOF 4
