REMARK  Name = ZINC51755809
REMARK  5 active torsions:
REMARK  status: ('A' for Active; 'I' for Inactive)
REMARK    1  A    between atoms: C_1  and  C_2
REMARK    2  A    between atoms: C_2  and  C_22
REMARK    3  A    between atoms: C_6  and  C_11
REMARK    4  A    between atoms: C_11  and  C_13
REMARK    5  A    between atoms: C_11  and  O_21
REMARK                            x       y       z     vdW  Elec       q    Type
REMARK                         _______ _______ _______ _____ _____    ______ ____
ROOT
ATOM      1  C   UNL     1      -0.019   1.526   0.010  0.00  0.00    +0.056 C 
ATOM      2  C   UNL     1       0.002  -0.004   0.002  0.00  0.00    +0.109 C 
ATOM      3  C   UNL     1       0.832  -0.534  -1.191  0.00  0.00    +0.086 C 
ATOM      4  C   UNL     1       2.204  -0.704  -0.568  0.00  0.00    -0.002 A 
ATOM      5  C   UNL     1       3.455  -0.875  -1.119  0.00  0.00    +0.013 A 
ATOM      6  C   UNL     1       4.561  -1.000  -0.297  0.00  0.00    -0.014 A 
ATOM      7  C   UNL     1       4.404  -0.952   1.076  0.00  0.00    +0.010 A 
ATOM      8  C   UNL     1       3.152  -0.784   1.629  0.00  0.00    +0.046 A 
ATOM      9  C   UNL     1       2.033  -0.662   0.809  0.00  0.00    +0.125 A 
ATOM     10  O   UNL     1       0.721  -0.510   1.139  0.00  0.00    -0.486 OA
ATOM     11  C   UNL     1      -1.422  -0.563  -0.031  0.00  0.00    +0.056 C 
ENDROOT
BRANCH   6  12
ATOM     12  C   UNL     1       5.931  -1.187  -0.897  0.00  0.00    +0.175 C 
BRANCH  12  13
ATOM     13  C   UNL     1       6.257  -2.657  -0.954  0.00  0.00    -0.011 A 
ATOM     14  C   UNL     1       6.696  -3.312   0.181  0.00  0.00    +0.045 A 
ATOM     15  C   UNL     1       6.995  -4.663   0.129  0.00  0.00    +0.125 A 
ATOM     16  C   UNL     1       6.855  -5.357  -1.061  0.00  0.00    +0.053 A 
ATOM     17  C   UNL     1       6.416  -4.700  -2.196  0.00  0.00    +0.021 A 
ATOM     18  C   UNL     1       6.112  -3.351  -2.141  0.00  0.00    +0.022 A 
ATOM     19 BR   UNL     1       6.224  -5.646  -3.822  0.00  0.00    -0.050 Br
ATOM     20  F   UNL     1       7.425  -5.304   1.238  0.00  0.00    -0.205 F 
ENDBRANCH  12  13
BRANCH  12  21
ATOM     21  O   UNL     1       6.900  -0.515  -0.089  0.00  0.00    -0.383 OA
ATOM     22  H   UNL     1       6.941  -0.834   0.823  0.00  0.00    +0.211 HD
ENDBRANCH  12  21
ENDBRANCH   6  12
TORSDOF 3
