REMARK  Name = ZINC33266044
REMARK  11 active torsions:
REMARK  status: ('A' for Active; 'I' for Inactive)
REMARK    1  A    between atoms: C_1  and  C_2
REMARK    2  A    between atoms: C_2  and  C_3
REMARK    3  A    between atoms: C_6  and  N_9
REMARK    4  A    between atoms: C_13  and  C_31
REMARK    5  A    between atoms: C_18  and  C_19
REMARK    6  A    between atoms: C_18  and  C_20
REMARK    7  A    between atoms: N_22  and  C_23
REMARK    8  A    between atoms: C_23  and  C_24
REMARK    9  A    between atoms: C_27  and  C_30
REMARK   10  A    between atoms: C_31  and  O_33
REMARK   11  A    between atoms: O_33  and  C_34
REMARK                            x       y       z     vdW  Elec       q    Type
REMARK                         _______ _______ _______ _____ _____    ______ ____
ROOT
ATOM      1  N   UNL     1      -0.813   3.694  -0.334  0.00  0.00    -0.250 N 
ATOM      2  C   UNL     1      -1.112   2.489   0.209  0.00  0.00    +0.271 C 
ATOM      3  O   UNL     1      -2.228   2.227   0.616  0.00  0.00    -0.268 OA
ATOM      4  C   UNL     1      -0.011   1.515   0.280  0.00  0.00    +0.139 A 
ATOM      5  C   UNL     1       0.021   0.180   0.587  0.00  0.00    +0.178 A 
ATOM      6  N   UNL     1       1.309  -0.212   0.501  0.00  0.00    -0.228 NA
ATOM      7  C   UNL     1       2.057   0.809   0.162  0.00  0.00    +0.200 A 
ATOM      8  N   UNL     1       1.293   1.894   0.024  0.00  0.00    -0.323 N 
ATOM      9  C   UNL     1       1.638   3.276  -0.314  0.00  0.00    +0.159 C 
ATOM     10  C   UNL     1       0.452   3.933  -1.020  0.00  0.00    +0.133 C 
ATOM     11  C   UNL     1       0.696   5.442  -1.096  0.00  0.00    +0.044 C 
ENDROOT
BRANCH   1  15
ATOM     12  C   UNL     1      -3.577   6.795  -0.036  0.00  0.00    -0.048 A 
ATOM     13  C   UNL     1      -3.812   5.743  -0.902  0.00  0.00    +0.005 A 
ATOM     14  C   UNL     1      -2.897   4.713  -1.004  0.00  0.00    +0.024 A 
ATOM     15  C   UNL     1      -1.741   4.735  -0.234  0.00  0.00    +0.038 A 
ATOM     16  C   UNL     1      -1.511   5.790   0.639  0.00  0.00    +0.024 A 
ATOM     17  C   UNL     1      -2.427   6.820   0.732  0.00  0.00    +0.005 A 
BRANCH  12  19
ATOM     18  C   UNL     1      -5.602   7.584   1.159  0.00  0.00    +0.009 C 
ATOM     19  C   UNL     1      -4.578   7.917   0.072  0.00  0.00    +0.032 C 
ENDBRANCH  12  19
ENDBRANCH   1  15
BRANCH  10  20
ATOM     20  C   UNL     1       0.355   3.385  -2.421  0.00  0.00    +0.239 C 
ATOM     21  O   UNL     1       1.342   2.938  -2.967  0.00  0.00    -0.273 OA
ATOM     22  N   UNL     1      -0.828   3.391  -3.067  0.00  0.00    -0.309 N 
ATOM     23  H   UNL     1      -1.723   3.796  -2.571  0.00  0.00    +0.149 HD
BRANCH  22  24
ATOM     24  C   UNL     1      -0.922   2.858  -4.428  0.00  0.00    +0.139 C 
BRANCH  24  25
ATOM     25  C   UNL     1      -2.342   2.981  -4.918  0.00  0.00    -0.030 A 
ATOM     26  C   UNL     1      -3.238   1.950  -4.707  0.00  0.00    +0.005 A 
ATOM     27  C   UNL     1      -4.541   2.065  -5.153  0.00  0.00    +0.003 A 
ATOM     28  C   UNL     1      -4.946   3.207  -5.819  0.00  0.00    -0.050 A 
ATOM     29  C   UNL     1      -4.048   4.236  -6.035  0.00  0.00    +0.003 A 
ATOM     30  C   UNL     1      -2.746   4.123  -5.585  0.00  0.00    +0.005 A 
ATOM     31  C   UNL     1      -6.365   3.330  -6.310  0.00  0.00    +0.044 C 
ENDBRANCH  24  25
ENDBRANCH  22  24
ENDBRANCH  10  20
BRANCH   5  32
ATOM     32  C   UNL     1      -1.135  -0.668   0.945  0.00  0.00    +0.360 C 
ATOM     33  O   UNL     1      -2.250  -0.189   0.987  0.00  0.00    -0.243 OA
BRANCH  32  34
ATOM     34  O   UNL     1      -0.952  -1.973   1.224  0.00  0.00    -0.463 OA
ATOM     35  C   UNL     1      -2.132  -2.746   1.568  0.00  0.00    +0.280 C 
ENDBRANCH  32  34
ENDBRANCH   5  32
TORSDOF 7
