REMARK  Name = ZINC14414817
REMARK  7 active torsions:
REMARK  status: ('A' for Active; 'I' for Inactive)
REMARK    1  A    between atoms: C_1  and  C_2
REMARK    2  A    between atoms: C_2  and  C_3
REMARK    3  A    between atoms: C_2  and  N_4
REMARK    4  A    between atoms: N_4  and  S_5
REMARK    5  A    between atoms: S_5  and  C_8
REMARK    6  A    between atoms: C_11  and  N_14
REMARK    7  A    between atoms: C_15  and  C_17
REMARK                            x       y       z     vdW  Elec       q    Type
REMARK                         _______ _______ _______ _____ _____    ______ ____
ROOT
ATOM      1  C   UNL     1      -1.228  -2.271  -2.084  0.00  0.00    +0.105 A 
ATOM      2  C   UNL     1      -0.987  -3.396  -1.317  0.00  0.00    +0.030 A 
ATOM      3  C   UNL     1      -0.304  -4.468  -1.857  0.00  0.00    +0.025 A 
ATOM      4  C   UNL     1       0.140  -4.416  -3.171  0.00  0.00    +0.034 A 
ATOM      5  C   UNL     1      -0.104  -3.284  -3.939  0.00  0.00    +0.025 A 
ATOM      6  C   UNL     1      -0.792  -2.218  -3.395  0.00  0.00    +0.030 A 
ENDROOT
BRANCH   4   7
ATOM      7  N   UNL     1       0.833  -5.500  -3.721  0.00  0.00    -0.285 N 
ATOM      8  C   UNL     1       0.531  -6.756  -3.338  0.00  0.00    +0.223 C 
ATOM      9  O   UNL     1      -0.403  -6.955  -2.590  0.00  0.00    -0.275 OA
ATOM     10  H   UNL     1       1.530  -5.347  -4.378  0.00  0.00    +0.155 HD
BRANCH   8  11
ATOM     11  C   UNL     1       1.355  -7.915  -3.839  0.00  0.00    +0.048 C 
ATOM     12  C   UNL     1       2.809  -7.734  -3.401  0.00  0.00    +0.019 C 
ATOM     13  C   UNL     1       3.645  -8.910  -3.909  0.00  0.00    -0.009 C 
ATOM     14  C   UNL     1       3.096 -10.215  -3.328  0.00  0.00    +0.007 C 
ATOM     15  C   UNL     1       1.642 -10.396  -3.766  0.00  0.00    -0.009 C 
ATOM     16  C   UNL     1       0.806  -9.220  -3.258  0.00  0.00    +0.019 C 
ATOM     17  C   UNL     1       1.572 -10.449  -5.294  0.00  0.00    +0.007 C 
ATOM     18  C   UNL     1       2.120  -9.144  -5.875  0.00  0.00    -0.009 C 
ATOM     19  C   UNL     1       3.575  -8.963  -5.437  0.00  0.00    +0.007 C 
ATOM     20  C   UNL     1       1.285  -7.968  -5.366  0.00  0.00    +0.019 C 
ENDBRANCH   8  11
ENDBRANCH   4   7
BRANCH   1  21
ATOM     21  S   UNL     1      -2.100  -0.905  -1.391  0.00  0.00    +0.059 S 
ATOM     22  O   UNL     1      -1.726   0.240  -2.145  0.00  0.00    -0.153 OA
ATOM     23  O   UNL     1      -1.923  -0.982   0.017  0.00  0.00    -0.153 OA
BRANCH  21  24
ATOM     24  N   UNL     1      -3.711  -1.155  -1.680  0.00  0.00    -0.187 NA
ATOM     25  H   UNL     1      -4.200  -0.551  -2.260  0.00  0.00    +0.148 HD
BRANCH  24  27
ATOM     26  C   UNL     1      -5.076  -1.831   0.234  0.00  0.00    +0.025 C 
ATOM     27  C   UNL     1      -4.399  -2.290  -1.059  0.00  0.00    +0.070 C 
ATOM     28  C   UNL     1      -5.456  -2.835  -2.022  0.00  0.00    +0.025 C 
ENDBRANCH  24  27
ENDBRANCH  21  24
ENDBRANCH   1  21
TORSDOF 5
