REMARK  Name = ZINC04689637
REMARK  7 active torsions:
REMARK  status: ('A' for Active; 'I' for Inactive)
REMARK    1  A    between atoms: C_1  and  C_2
REMARK    2  A    between atoms: C_3  and  N_9
REMARK    3  A    between atoms: N_9  and  N_10
REMARK    4  A    between atoms: C_11  and  C_12
REMARK    5  A    between atoms: C_14  and  O_20
REMARK    6  A    between atoms: C_15  and  O_19
REMARK    7  A    between atoms: O_20  and  C_21
REMARK                            x       y       z     vdW  Elec       q    Type
REMARK                         _______ _______ _______ _____ _____    ______ ____
ROOT
ATOM      1  N   UNL     1       3.639  -2.051  -0.043  0.00  0.00    -0.190 NA
ATOM      2  C   UNL     1       4.772  -2.684  -0.057  0.00  0.00    +0.138 C 
ENDROOT
BRANCH   2   3
ATOM      3  C   UNL     1       4.793  -4.158  -0.064  0.00  0.00    -0.001 A 
ATOM      4  C   UNL     1       6.012  -4.841  -0.079  0.00  0.00    +0.059 A 
ATOM      5  C   UNL     1       6.026  -6.223  -0.086  0.00  0.00    +0.163 A 
ATOM      6  C   UNL     1       4.827  -6.933  -0.078  0.00  0.00    +0.173 A 
ATOM      7  C   UNL     1       3.617  -6.255  -0.064  0.00  0.00    +0.063 A 
ATOM      8  C   UNL     1       3.595  -4.875  -0.051  0.00  0.00    +0.028 A 
ATOM      9 BR   UNL     1       1.993  -7.225  -0.053  0.00  0.00    -0.046 Br
BRANCH   6  10
ATOM     10  O   UNL     1       4.844  -8.293  -0.085  0.00  0.00    -0.503 OA
ATOM     11  H   UNL     1       4.857  -8.690   0.796  0.00  0.00    +0.292 HD
ENDBRANCH   6  10
BRANCH   5  12
ATOM     12  O   UNL     1       7.211  -6.891  -0.101  0.00  0.00    -0.491 OA
ATOM     13  C   UNL     1       8.401  -6.100  -0.108  0.00  0.00    +0.277 C 
ENDBRANCH   5  12
ENDBRANCH   2   3
BRANCH   1  14
ATOM     14  N   UNL     1       3.619  -0.650  -0.036  0.00  0.00    -0.237 N 
ATOM     15  H   UNL     1       4.452  -0.153  -0.041  0.00  0.00    +0.174 HD
BRANCH  14  18
ATOM     16  C   UNL     1       3.672   2.195  -0.021  0.00  0.00    +0.047 C 
ATOM     17  C   UNL     1       2.379   1.420  -0.013  0.00  0.00    -0.010 A 
ATOM     18  C   UNL     1       2.401   0.030  -0.021  0.00  0.00    +0.053 A 
ATOM     19  C   UNL     1       1.206  -0.680  -0.013  0.00  0.00    +0.025 A 
ATOM     20  C   UNL     1       0.002  -0.004   0.002  0.00  0.00    +0.003 A 
ATOM     21  C   UNL     1      -0.017   1.378   0.010  0.00  0.00    +0.020 A 
ATOM     22  C   UNL     1       1.171   2.090   0.002  0.00  0.00    +0.046 A 
ATOM     23 CL   UNL     1       1.142   3.826   0.012  0.00  0.00    -0.083 Cl
ENDBRANCH  14  18
ENDBRANCH   1  14
TORSDOF 5
