REMARK  Name = ZINC23558403
REMARK  11 active torsions:
REMARK  status: ('A' for Active; 'I' for Inactive)
REMARK    1  A    between atoms: C_1  and  C_2
REMARK    2  A    between atoms: C_2  and  C_3
REMARK    3  A    between atoms: C_3  and  N_4
REMARK    4  A    between atoms: C_5  and  N_33
REMARK    5  A    between atoms: C_6  and  C_13
REMARK    6  A    between atoms: C_13  and  C_15
REMARK    7  A    between atoms: C_15  and  S_16
REMARK    8  A    between atoms: S_16  and  C_17
REMARK    9  A    between atoms: N_29  and  C_30
REMARK   10  A    between atoms: C_30  and  C_31
REMARK   11  A    between atoms: C_31  and  C_32
REMARK                            x       y       z     vdW  Elec       q    Type
REMARK                         _______ _______ _______ _____ _____    ______ ____
ROOT
ATOM      1  C   UNL     1      -0.744   8.201   0.130  0.00  0.00    +0.157 C 
ENDROOT
BRANCH   1   2
ATOM      2  C   UNL     1      -1.077   9.671   0.104  0.00  0.00    +0.182 C 
ATOM      3  O   UNL     1      -0.186  10.496   0.086  0.00  0.00    -0.291 OA
BRANCH   2   6
ATOM      4  N   UNL     1      -4.082  11.805   0.186  0.00  0.00    -0.281 N 
ATOM      5  C   UNL     1      -2.763  11.449   0.200  0.00  0.00    +0.116 A 
ATOM      6  C   UNL     1      -2.425  10.089   0.100  0.00  0.00    +0.120 A 
ATOM      7  C   UNL     1      -3.520   9.115  -0.004  0.00  0.00    +0.266 A 
ATOM      8  O   UNL     1      -3.286   7.924  -0.089  0.00  0.00    -0.267 OA
ATOM      9  N   UNL     1      -4.790   9.569  -0.003  0.00  0.00    -0.274 N 
ATOM     10  H   UNL     1      -5.628   8.860  -0.080  0.00  0.00    +0.173 HD
ATOM     11  C   UNL     1      -5.052  10.883   0.090  0.00  0.00    +0.331 A 
ATOM     12  O   UNL     1      -6.211  11.251   0.087  0.00  0.00    -0.246 OA
BRANCH   5  13
ATOM     13  N   UNL     1      -1.792  12.397   0.304  0.00  0.00    -0.344 N 
ATOM     14  H   UNL     1      -0.733  12.101   0.315  0.00  0.00    +0.144 HD
ATOM     15  H   UNL     1      -2.067  13.460   0.378  0.00  0.00    +0.144 HD
ENDBRANCH   5  13
BRANCH   4  16
ATOM     16  C   UNL     1      -4.444  13.221   0.284  0.00  0.00    +0.128 C 
BRANCH  16  18
ATOM     17  C   UNL     1      -4.987  15.083   1.859  0.00  0.00    +0.005 C 
ATOM     18  C   UNL     1      -4.609  13.604   1.756  0.00  0.00    +0.018 C 
ENDBRANCH  16  18
ENDBRANCH   4  16
ENDBRANCH   2   6
ENDBRANCH   1   2
BRANCH   1  19
ATOM     19  S   UNL     1       1.054   7.991   0.129  0.00  0.00    -0.080 S 
BRANCH  19  20
ATOM     20  C   UNL     1       1.156   6.232   0.161  0.00  0.00    +0.173 A 
ATOM     21  N   UNL     1       0.048   5.518   0.177  0.00  0.00    -0.216 NA
ATOM     22  C   UNL     1       0.098   4.190   0.201  0.00  0.00    +0.117 A 
ATOM     23  C   UNL     1       1.312   3.489   0.209  0.00  0.00    +0.076 A 
ATOM     24  C   UNL     1       1.210   2.021   0.233  0.00  0.00    -0.023 A 
ATOM     25  C   UNL     1      -0.027   1.498   0.250  0.00  0.00    -0.004 A 
ATOM     26  S   UNL     1      -1.120   2.901   0.223  0.00  0.00    -0.073 S 
ATOM     27  C   UNL     1      -0.008  -0.006   0.280  0.00  0.00    +0.043 C 
ATOM     28  C   UNL     1       1.429  -0.367   0.717  0.00  0.00    +0.010 C 
ATOM     29  C   UNL     1       2.219   0.869   0.246  0.00  0.00    +0.037 C 
ATOM     30  C   UNL     1       2.498   4.288   0.192  0.00  0.00    +0.263 A 
ATOM     31  O   UNL     1       3.598   3.763   0.197  0.00  0.00    -0.267 OA
ATOM     32  N   UNL     1       2.380   5.629   0.169  0.00  0.00    -0.287 N 
BRANCH  32  33
ATOM     33  C   UNL     1       3.589   6.457   0.152  0.00  0.00    +0.127 C 
BRANCH  33  34
ATOM     34  C   UNL     1       4.006   6.720  -1.296  0.00  0.00    +0.018 C 
ATOM     35  C   UNL     1       5.269   7.585  -1.314  0.00  0.00    +0.005 C 
ENDBRANCH  33  34
ENDBRANCH  32  33
ENDBRANCH  19  20
ENDBRANCH   1  19
TORSDOF 9
