REMARK  Name = ZINC38745289
REMARK  5 active torsions:
REMARK  status: ('A' for Active; 'I' for Inactive)
REMARK    1  A    between atoms: C_4  and  C_7
REMARK    2  A    between atoms: C_9  and  C_13
REMARK    3  A    between atoms: C_17  and  C_22
REMARK    4  A    between atoms: C_22  and  O_23
REMARK    5  A    between atoms: O_23  and  C_24
REMARK                            x       y       z     vdW  Elec       q    Type
REMARK                         _______ _______ _______ _____ _____    ______ ____
ROOT
ATOM      1  C   UNL     1       5.782  -3.012   1.181  0.00  0.00    +0.182 C 
ATOM      2  N   UNL     1       7.253  -3.229   1.192  0.00  0.00    -0.265 N 
ATOM      3  N   UNL     1       7.655  -4.427   1.703  0.00  0.00    -0.221 N 
ATOM      4  C   UNL     1       8.810  -4.967   2.240  0.00  0.00    +0.189 A 
ATOM      5  N   UNL     1       8.579  -6.216   2.515  0.00  0.00    -0.128 NA
ATOM      6  N   UNL     1       7.365  -6.518   2.213  0.00  0.00    -0.121 NA
ATOM      7  C   UNL     1       6.766  -5.471   1.740  0.00  0.00    +0.211 A 
ATOM      8  S   UNL     1       5.246  -4.777   1.121  0.00  0.00    -0.058 S 
ATOM      9  H   UNL     1       7.648  -3.076   0.276  0.00  0.00    +0.168 HD
ENDROOT
BRANCH   1  12
ATOM     10  C   UNL     1       3.699  -0.689  -0.037  0.00  0.00    +0.091 C 
ATOM     11  C   UNL     1       3.832  -2.029  -0.051  0.00  0.00    +0.034 C 
ATOM     12  C   UNL     1       5.335  -2.245  -0.065  0.00  0.00    +0.185 C 
ATOM     13  N   UNL     1       5.871  -0.874  -0.056  0.00  0.00    -0.177 NA
ATOM     14  N   UNL     1       4.919  -0.090  -0.047  0.00  0.00    -0.154 NA
BRANCH  10  18
ATOM     15  C   UNL     1      -0.017   1.379   0.010  0.00  0.00    +0.000 A 
ATOM     16  C   UNL     1       1.169   2.092   0.002  0.00  0.00    +0.001 A 
ATOM     17  C   UNL     1       2.377   1.426  -0.013  0.00  0.00    +0.010 A 
ATOM     18  C   UNL     1       2.402   0.033  -0.021  0.00  0.00    +0.002 A 
ATOM     19  C   UNL     1       1.205  -0.680  -0.013  0.00  0.00    +0.010 A 
ATOM     20  C   UNL     1       0.002  -0.004   0.002  0.00  0.00    +0.001 A 
ENDBRANCH  10  18
ENDBRANCH   1  12
BRANCH   4  21
ATOM     21  C   UNL     1      10.108  -4.236   2.465  0.00  0.00    +0.306 C 
BRANCH  21  22
ATOM     22  O   UNL     1      10.108  -3.656   3.772  0.00  0.00    -0.483 OA
BRANCH  22  23
ATOM     23  C   UNL     1      11.214  -2.955   4.136  0.00  0.00    +0.139 A 
ATOM     24  C   UNL     1      12.276  -2.825   3.253  0.00  0.00    +0.048 A 
ATOM     25  C   UNL     1      13.399  -2.112   3.625  0.00  0.00    +0.023 A 
ATOM     26  C   UNL     1      13.467  -1.530   4.879  0.00  0.00    +0.043 A 
ATOM     27  C   UNL     1      12.410  -1.659   5.762  0.00  0.00    +0.043 A 
ATOM     28  C   UNL     1      11.281  -2.366   5.391  0.00  0.00    +0.084 A 
ATOM     29 CL   UNL     1       9.951  -2.521   6.496  0.00  0.00    -0.080 Cl
ATOM     30 CL   UNL     1      14.881  -0.636   5.344  0.00  0.00    -0.083 Cl
ENDBRANCH  22  23
ENDBRANCH  21  22
ENDBRANCH   4  21
TORSDOF 5
