REMARK  Name = ZINC27557842
REMARK  16 active torsions:
REMARK  status: ('A' for Active; 'I' for Inactive)
REMARK    1  A    between atoms: C_1  and  C_2
REMARK    2  A    between atoms: C_2  and  C_4
REMARK    3  A    between atoms: C_2  and  N_11
REMARK    4  A    between atoms: N_11  and  C_12
REMARK    5  A    between atoms: N_11  and  C_13
REMARK    6  A    between atoms: C_13  and  C_14
REMARK    7  A    between atoms: N_16  and  C_17
REMARK    8  A    between atoms: N_16  and  C_21
REMARK    9  A    between atoms: C_17  and  C_18
REMARK   10  A    between atoms: C_18  and  C_19
REMARK   11  A    between atoms: C_18  and  C_20
REMARK   12  A    between atoms: C_22  and  N_34
REMARK   13  A    between atoms: N_23  and  C_30
REMARK   14  A    between atoms: C_30  and  C_31
REMARK   15  A    between atoms: C_31  and  C_32
REMARK   16  A    between atoms: C_31  and  C_33
REMARK                            x       y       z     vdW  Elec       q    Type
REMARK                         _______ _______ _______ _____ _____    ______ ____
ROOT
ATOM      1  C   UNL     1      -2.561  -2.586   0.070  0.00  0.00    +0.203 C 
ATOM      2  O   UNL     1      -3.379  -1.759   0.416  0.00  0.00    -0.277 OA
ATOM      3  N   UNL     1      -2.947  -3.856  -0.173  0.00  0.00    -0.266 N 
ENDROOT
BRANCH   3   4
ATOM      4  C   UNL     1      -4.315  -4.199  -0.124  0.00  0.00    +0.140 A 
ATOM      5  C   UNL     1      -4.777  -5.113   0.801  0.00  0.00    +0.127 A 
ATOM      6  N   UNL     1      -6.116  -5.427   0.824  0.00  0.00    -0.280 N 
ATOM      7  C   UNL     1      -6.965  -4.850  -0.045  0.00  0.00    +0.331 A 
ATOM      8  O   UNL     1      -8.146  -5.141  -0.008  0.00  0.00    -0.246 OA
ATOM      9  N   UNL     1      -6.534  -3.957  -0.953  0.00  0.00    -0.273 N 
ATOM     10  H   UNL     1      -7.166  -3.555  -1.568  0.00  0.00    +0.173 HD
ATOM     11  C   UNL     1      -5.233  -3.611  -1.014  0.00  0.00    +0.277 A 
ATOM     12  O   UNL     1      -4.852  -2.797  -1.839  0.00  0.00    -0.266 OA
BRANCH   5  13
ATOM     13  N   UNL     1      -3.909  -5.703   1.688  0.00  0.00    -0.343 N 
ATOM     14  H   UNL     1      -2.987  -5.406   1.736  0.00  0.00    +0.144 HD
ATOM     15  H   UNL     1      -4.218  -6.417   2.268  0.00  0.00    +0.144 HD
ENDBRANCH   5  13
BRANCH   6  16
ATOM     16  C   UNL     1      -6.620  -6.396   1.801  0.00  0.00    +0.131 C 
BRANCH  16  17
ATOM     17  C   UNL     1      -7.029  -5.664   3.081  0.00  0.00    +0.003 C 
ATOM     18  C   UNL     1      -7.670  -6.657   4.053  0.00  0.00    +0.009 C 
ATOM     19  C   UNL     1      -5.792  -5.041   3.730  0.00  0.00    +0.009 C 
ENDBRANCH  16  17
ENDBRANCH   6  16
ENDBRANCH   3   4
BRANCH   1  20
ATOM     20  C   UNL     1      -1.114  -2.195  -0.088  0.00  0.00    +0.020 C 
BRANCH  20  21
ATOM     21  N   UNL     1      -0.953  -0.773   0.242  0.00  0.00    +0.388 N 
ATOM     22  C   UNL     1      -1.260  -0.561   1.663  0.00  0.00    -0.095 C 
ATOM     23  H   UNL     1      -1.582  -0.223  -0.323  0.00  0.00    -0.081 HD
BRANCH  21  25
ATOM     24  C   UNL     1       0.600   1.119   0.317  0.00  0.00    -0.008 C 
ATOM     25  C   UNL     1       0.432  -0.362  -0.027  0.00  0.00    -0.041 C 
BRANCH  25  26
ATOM     26  C   UNL     1       0.746  -0.579  -1.484  0.00  0.00    -0.061 A 
ATOM     27  C   UNL     1      -0.199  -0.278  -2.447  0.00  0.00    +0.005 A 
ATOM     28  C   UNL     1       0.088  -0.476  -3.784  0.00  0.00    +0.038 A 
ATOM     29  C   UNL     1       1.324  -0.976  -4.160  0.00  0.00    +0.123 A 
ATOM     30  C   UNL     1       2.270  -1.277  -3.194  0.00  0.00    +0.038 A 
ATOM     31  C   UNL     1       1.982  -1.073  -1.858  0.00  0.00    +0.005 A 
ATOM     32  F   UNL     1       1.606  -1.171  -5.466  0.00  0.00    -0.205 F 
ENDBRANCH  25  26
ENDBRANCH  21  25
ENDBRANCH  20  21
ENDBRANCH   1  20
BRANCH   3  33
ATOM     33  C   UNL     1      -1.946  -4.879  -0.487  0.00  0.00    +0.117 C 
BRANCH  33  34
ATOM     34  C   UNL     1      -1.623  -4.833  -1.982  0.00  0.00    +0.001 C 
ATOM     35  C   UNL     1      -0.460  -5.781  -2.282  0.00  0.00    +0.009 C 
ATOM     36  C   UNL     1      -2.853  -5.267  -2.783  0.00  0.00    +0.009 C 
ENDBRANCH  33  34
ENDBRANCH   3  33
TORSDOF 10
