REMARK  Name = ZINC19372226
REMARK  7 active torsions:
REMARK  status: ('A' for Active; 'I' for Inactive)
REMARK    1  A    between atoms: C_1  and  O_2
REMARK    2  A    between atoms: O_2  and  C_3
REMARK    3  A    between atoms: C_9  and  C_13
REMARK    4  A    between atoms: C_13  and  C_15
REMARK    5  A    between atoms: C_13  and  O_28
REMARK    6  A    between atoms: C_15  and  N_16
REMARK    7  A    between atoms: N_19  and  C_22
REMARK                            x       y       z     vdW  Elec       q    Type
REMARK                         _______ _______ _______ _____ _____    ______ ____
ROOT
ATOM      1  C   UNL     1       1.683  -0.425  -1.603  0.00  0.00    +0.160 C 
ENDROOT
BRANCH   1   8
ATOM      2  C   UNL     1       1.368   2.508  -5.262  0.00  0.00    +0.121 A 
ATOM      3  C   UNL     1       0.917   3.774  -4.897  0.00  0.00    +0.047 A 
ATOM      4  C   UNL     1       0.623   4.062  -3.583  0.00  0.00    +0.030 A 
ATOM      5  C   UNL     1       0.769   3.081  -2.607  0.00  0.00    +0.047 A 
ATOM      6  C   UNL     1       1.218   1.800  -2.974  0.00  0.00    +0.009 A 
ATOM      7  C   UNL     1       1.514   1.520  -4.310  0.00  0.00    +0.056 A 
ATOM      8  C   UNL     1       1.263   1.017  -1.737  0.00  0.00    +0.007 A 
ATOM      9  C   UNL     1       0.860   1.826  -0.744  0.00  0.00    +0.089 A 
ATOM     10  N   UNL     1       0.560   3.063  -1.244  0.00  0.00    -0.360 N 
ATOM     11  H   UNL     1       0.203   3.968  -0.731  0.00  0.00    +0.165 HD
BRANCH   2  13
ATOM     12  C   UNL     1       1.487   3.310  -7.498  0.00  0.00    +0.277 C 
ATOM     13  O   UNL     1       1.660   2.243  -6.564  0.00  0.00    -0.495 OA
ENDBRANCH   2  13
ENDBRANCH   1   8
BRANCH   1  14
ATOM     14  O   UNL     1       1.072  -0.993  -0.443  0.00  0.00    -0.386 OA
ATOM     15  H   UNL     1       1.262  -2.044  -0.181  0.00  0.00    +0.210 HD
ENDBRANCH   1  14
BRANCH   1  16
ATOM     16  C   UNL     1       3.204  -0.502  -1.468  0.00  0.00    +0.120 C 
BRANCH  16  17
ATOM     17  N   UNL     1       3.615  -1.908  -1.351  0.00  0.00    -0.303 NA
ATOM     18  C   UNL     1       4.958  -2.018  -0.766  0.00  0.00    +0.066 C 
ATOM     19  C   UNL     1       5.315  -3.495  -0.588  0.00  0.00    -0.063 C 
ATOM     20  N   UNL     1       5.254  -4.172  -1.891  0.00  0.00    +0.383 N 
ATOM     21  C   UNL     1       3.910  -4.063  -2.476  0.00  0.00    -0.063 C 
ATOM     22  C   UNL     1       3.554  -2.585  -2.654  0.00  0.00    +0.066 C 
ATOM     23  H   UNL     1       5.961  -3.670  -2.567  0.00  0.00    -0.081 HD
BRANCH  20  24
ATOM     24  C   UNL     1       5.664  -5.578  -1.773  0.00  0.00    -0.068 C 
ATOM     25  C   UNL     1       4.750  -6.295  -0.778  0.00  0.00    -0.015 C 
ATOM     26  C   UNL     1       5.176  -7.759  -0.656  0.00  0.00    -0.002 C 
ATOM     27  C   UNL     1       6.623  -7.829  -0.161  0.00  0.00    -0.000 C 
ATOM     28  C   UNL     1       7.537  -7.112  -1.157  0.00  0.00    -0.002 C 
ATOM     29  C   UNL     1       7.110  -5.648  -1.279  0.00  0.00    -0.015 C 
ENDBRANCH  20  24
ENDBRANCH  16  17
ENDBRANCH   1  16
TORSDOF 6
