REMARK  Name = ZINC39979925
REMARK  7 active torsions:
REMARK  status: ('A' for Active; 'I' for Inactive)
REMARK    1  A    between atoms: C_1  and  N_2
REMARK    2  A    between atoms: C_3  and  C_21
REMARK    3  A    between atoms: C_6  and  S_7
REMARK    4  A    between atoms: S_7  and  C_8
REMARK    5  A    between atoms: C_19  and  O_20
REMARK    6  A    between atoms: C_26  and  O_27
REMARK    7  A    between atoms: O_27  and  C_28
REMARK                            x       y       z     vdW  Elec       q    Type
REMARK                         _______ _______ _______ _____ _____    ______ ____
ROOT
ATOM      1  C   UNL     1       0.116   1.459  -0.003  0.00  0.00    +0.153 C 
ATOM      2  N   UNL     1       0.061  -0.005  -0.004  0.00  0.00    -0.305 N 
ATOM      3  C   UNL     1      -0.087  -0.831  -1.094  0.00  0.00    +0.168 A 
ATOM      4  N   UNL     1      -0.085  -2.065  -0.646  0.00  0.00    -0.128 NA
ATOM      5  N   UNL     1       0.053  -2.067   0.632  0.00  0.00    -0.122 NA
ATOM      6  C   UNL     1       0.152  -0.835   1.078  0.00  0.00    +0.192 A 
ENDROOT
BRANCH   3   7
ATOM      7  C   UNL     1      -0.223  -0.409  -2.504  0.00  0.00    +0.062 A 
ATOM      8  C   UNL     1       0.645   0.544  -3.038  0.00  0.00    +0.035 A 
ATOM      9  C   UNL     1       0.513   0.934  -4.355  0.00  0.00    +0.042 A 
ATOM     10  C   UNL     1      -0.480   0.384  -5.149  0.00  0.00    +0.023 A 
ATOM     11  C   UNL     1      -1.346  -0.560  -4.630  0.00  0.00    +0.048 A 
ATOM     12  C   UNL     1      -1.221  -0.967  -3.312  0.00  0.00    +0.131 A 
ATOM     13 CL   UNL     1       1.594   2.119  -5.019  0.00  0.00    -0.084 Cl
BRANCH  12  14
ATOM     14  O   UNL     1      -2.068  -1.899  -2.803  0.00  0.00    -0.494 OA
ATOM     15  C   UNL     1      -3.061  -2.425  -3.686  0.00  0.00    +0.277 C 
ENDBRANCH  12  14
ENDBRANCH   3   7
BRANCH   6  16
ATOM     16  S   UNL     1       0.359  -0.344   2.757  0.00  0.00    -0.073 S 
BRANCH  16  17
ATOM     17  C   UNL     1       0.404  -1.911   3.670  0.00  0.00    +0.140 C 
ATOM     18  C   UNL     1       0.734  -1.628   5.115  0.00  0.00    +0.029 C 
ATOM     19  C   UNL     1       1.136  -2.852   5.879  0.00  0.00    +0.039 C 
ATOM     20  C   UNL     1       0.016  -3.767   6.262  0.00  0.00    -0.022 A 
ATOM     21  C   UNL     1       0.154  -4.413   7.488  0.00  0.00    +0.006 A 
ATOM     22  C   UNL     1      -0.803  -5.288   7.951  0.00  0.00    +0.000 A 
ATOM     23  C   UNL     1      -1.928  -5.537   7.185  0.00  0.00    +0.002 A 
ATOM     24  C   UNL     1      -2.082  -4.906   5.977  0.00  0.00    +0.028 A 
ATOM     25  C   UNL     1      -1.111  -4.002   5.491  0.00  0.00    +0.071 A 
ATOM     26  N   UNL     1      -1.403  -3.440   4.303  0.00  0.00    -0.216 NA
ATOM     27  C   UNL     1      -0.908  -2.595   3.521  0.00  0.00    +0.201 C 
BRANCH  27  28
ATOM     28  O   UNL     1      -1.639  -2.275   2.433  0.00  0.00    -0.495 OA
ATOM     29  H   UNL     1      -2.483  -2.741   2.376  0.00  0.00    +0.293 HD
ENDBRANCH  27  28
ENDBRANCH  16  17
ENDBRANCH   6  16
TORSDOF 5
