REMARK  Name = ZINC34708025
REMARK  3 active torsions:
REMARK  status: ('A' for Active; 'I' for Inactive)
REMARK    1  A    between atoms: C_5  and  C_7
REMARK    2  A    between atoms: C_7  and  N_8
REMARK    3  A    between atoms: C_24  and  C_27
REMARK                            x       y       z     vdW  Elec       q    Type
REMARK                         _______ _______ _______ _____ _____    ______ ____
ROOT
ATOM      1  N   UNL     1      -0.321  -3.225   0.186  0.00  0.00    +0.384 N 
ATOM      2  C   UNL     1      -0.461  -2.677   1.542  0.00  0.00    -0.059 C 
ATOM      3  C   UNL     1       0.278  -3.581   2.535  0.00  0.00    +0.089 C 
ATOM      4  N   UNL     1      -0.226  -4.954   2.380  0.00  0.00    -0.304 N 
ATOM      5  C   UNL     1      -0.275  -5.526   1.025  0.00  0.00    +0.089 C 
ATOM      6  C   UNL     1      -0.987  -4.531   0.103  0.00  0.00    -0.059 C 
ATOM      7  C   UNL     1      -0.640  -5.682   3.469  0.00  0.00    +0.206 A 
ATOM      8  N   UNL     1      -1.813  -5.424   3.986  0.00  0.00    -0.215 NA
ATOM      9  C   UNL     1      -2.292  -6.099   5.061  0.00  0.00    +0.078 A 
ATOM     10  C   UNL     1      -3.548  -5.811   5.599  0.00  0.00    +0.028 A 
ATOM     11  C   UNL     1      -4.002  -6.517   6.691  0.00  0.00    +0.002 A 
ATOM     12  C   UNL     1      -3.226  -7.514   7.266  0.00  0.00    +0.001 A 
ATOM     13  C   UNL     1      -1.983  -7.817   6.753  0.00  0.00    +0.014 A 
ATOM     14  C   UNL     1      -1.505  -7.116   5.649  0.00  0.00    +0.045 A 
ATOM     15  C   UNL     1      -0.191  -7.394   5.059  0.00  0.00    +0.173 A 
ATOM     16  N   UNL     1       0.190  -6.650   3.965  0.00  0.00    -0.246 N 
ATOM     17  C   UNL     1       1.432  -7.114   3.620  0.00  0.00    +0.171 A 
ATOM     18  N   UNL     1       1.737  -8.074   4.469  0.00  0.00    -0.128 NA
ATOM     19  N   UNL     1       0.785  -8.232   5.321  0.00  0.00    -0.128 NA
ATOM     20  H   UNL     1       0.659  -3.334  -0.030  0.00  0.00    -0.081 HD
ENDROOT
BRANCH  17  21
ATOM     21  C   UNL     1       2.272  -6.630   2.505  0.00  0.00    +0.020 A 
ATOM     22  C   UNL     1       2.662  -7.506   1.490  0.00  0.00    +0.013 A 
ATOM     23  C   UNL     1       3.445  -7.048   0.451  0.00  0.00    +0.021 A 
ATOM     24  C   UNL     1       3.845  -5.722   0.414  0.00  0.00    +0.041 A 
ATOM     25  C   UNL     1       3.461  -4.849   1.418  0.00  0.00    +0.021 A 
ATOM     26  C   UNL     1       2.673  -5.294   2.458  0.00  0.00    +0.013 A 
ATOM     27 CL   UNL     1       4.831  -5.153  -0.897  0.00  0.00    -0.084 Cl
ENDBRANCH  17  21
BRANCH   1  28
ATOM     28  C   UNL     1      -0.934  -2.302  -0.778  0.00  0.00    -0.041 C 
BRANCH  28  33
ATOM     29  C   UNL     1       0.036   1.280  -0.086  0.00  0.00    +0.000 A 
ATOM     30  C   UNL     1       1.221   1.387  -0.790  0.00  0.00    +0.001 A 
ATOM     31  C   UNL     1       1.710   0.300  -1.490  0.00  0.00    +0.020 A 
ATOM     32  C   UNL     1       1.012  -0.895  -1.487  0.00  0.00    +0.042 A 
ATOM     33  C   UNL     1      -0.173  -1.001  -0.782  0.00  0.00    -0.046 A 
ATOM     34  C   UNL     1      -0.661   0.087  -0.082  0.00  0.00    +0.003 A 
ATOM     35 CL   UNL     1       1.624  -2.260  -2.367  0.00  0.00    -0.083 Cl
ENDBRANCH  28  33
ENDBRANCH   1  28
TORSDOF 3
