REMARK  Name = ZINC39992744
REMARK  8 active torsions:
REMARK  status: ('A' for Active; 'I' for Inactive)
REMARK    1  A    between atoms: C_1  and  O_2
REMARK    2  A    between atoms: O_2  and  C_3
REMARK    3  A    between atoms: C_3  and  C_5
REMARK    4  A    between atoms: C_9  and  N_10
REMARK    5  A    between atoms: C_11  and  C_13
REMARK    6  A    between atoms: C_13  and  C_27
REMARK    7  A    between atoms: C_14  and  C_15
REMARK    8  A    between atoms: C_18  and  C_20
REMARK                            x       y       z     vdW  Elec       q    Type
REMARK                         _______ _______ _______ _____ _____    ______ ____
ROOT
ATOM      1  N   UNL     1       2.827  -2.276   0.084  0.00  0.00    -0.275 N 
ATOM      2  C   UNL     1       3.768  -3.119   0.553  0.00  0.00    +0.259 C 
ATOM      3  O   UNL     1       3.643  -4.320   0.394  0.00  0.00    -0.269 OA
ATOM      4  H   UNL     1       2.927  -1.319   0.211  0.00  0.00    +0.156 HD
ENDROOT
BRANCH   1   9
ATOM      5  C   UNL     1       0.659  -2.063  -1.123  0.00  0.00    +0.091 A 
ATOM      6  C   UNL     1      -0.388  -2.830  -1.776  0.00  0.00    -0.021 A 
ATOM      7  C   UNL     1      -0.188  -4.165  -1.760  0.00  0.00    -0.004 A 
ATOM      8  S   UNL     1       1.345  -4.379  -0.903  0.00  0.00    -0.077 S 
ATOM      9  C   UNL     1       1.718  -2.775  -0.578  0.00  0.00    +0.087 A 
ATOM     10  C   UNL     1      -1.080  -5.216  -2.344  0.00  0.00    +0.043 C 
ATOM     11  C   UNL     1      -2.447  -4.581  -2.636  0.00  0.00    +0.005 C 
ATOM     12  C   UNL     1      -2.231  -3.260  -3.379  0.00  0.00    +0.005 C 
ATOM     13  C   UNL     1      -1.619  -2.224  -2.434  0.00  0.00    +0.037 C 
BRANCH   5  14
ATOM     14  C   UNL     1       0.601  -0.603  -1.048  0.00  0.00    +0.342 C 
ATOM     15  O   UNL     1       1.094   0.071  -1.933  0.00  0.00    -0.245 OA
BRANCH  14  17
ATOM     16  C   UNL     1      -0.017   1.425   0.010  0.00  0.00    +0.280 C 
ATOM     17  O   UNL     1       0.002  -0.004   0.002  0.00  0.00    -0.464 OA
ENDBRANCH  14  17
ENDBRANCH   5  14
ENDBRANCH   1   9
BRANCH   2  18
ATOM     18  C   UNL     1       4.944  -2.591   1.254  0.00  0.00    +0.117 C 
ATOM     19  C   UNL     1       5.913  -3.460   1.737  0.00  0.00    +0.070 C 
BRANCH  19  20
ATOM     20  C   UNL     1       7.038  -2.954   2.408  0.00  0.00    +0.130 A 
ATOM     21  C   UNL     1       8.079  -3.706   2.933  0.00  0.00    +0.050 A 
ATOM     22  C   UNL     1       8.976  -2.807   3.508  0.00  0.00    +0.050 A 
ATOM     23  C   UNL     1       8.458  -1.543   3.317  0.00  0.00    +0.136 A 
ATOM     24  O   UNL     1       7.297  -1.651   2.650  0.00  0.00    -0.455 OA
BRANCH  23  25
ATOM     25  C   UNL     1       9.079  -0.282   3.766  0.00  0.00    +0.018 A 
ATOM     26  C   UNL     1      10.301  -0.303   4.444  0.00  0.00    +0.011 A 
ATOM     27  C   UNL     1      10.876   0.879   4.860  0.00  0.00    +0.002 A 
ATOM     28  C   UNL     1      10.246   2.085   4.609  0.00  0.00    +0.015 A 
ATOM     29  C   UNL     1       9.035   2.115   3.938  0.00  0.00    +0.019 A 
ATOM     30  C   UNL     1       8.451   0.940   3.510  0.00  0.00    +0.026 A 
ATOM     31 BR   UNL     1       8.183   3.769   3.601  0.00  0.00    -0.050 Br
ENDBRANCH  23  25
ENDBRANCH  19  20
BRANCH  18  32
ATOM     32  C   UNL     1       5.091  -1.179   1.442  0.00  0.00    +0.104 C 
ATOM     33  N   UNL     1       5.207  -0.059   1.590  0.00  0.00    -0.191 NA
ENDBRANCH  18  32
ENDBRANCH   2  18
TORSDOF 7
