REMARK  Name = ZINC12040986
REMARK  13 active torsions:
REMARK  status: ('A' for Active; 'I' for Inactive)
REMARK    1  A    between atoms: C_1  and  C_2
REMARK    2  A    between atoms: C_2  and  C_3
REMARK    3  A    between atoms: C_2  and  C_4
REMARK    4  A    between atoms: C_2  and  O_35
REMARK    5  A    between atoms: C_5  and  C_6
REMARK    6  A    between atoms: C_9  and  C_12
REMARK    7  A    between atoms: C_12  and  N_71
REMARK    8  A    between atoms: C_15  and  C_18
REMARK    9  A    between atoms: C_18  and  C_26
REMARK   10  A    between atoms: N_21  and  C_25
REMARK   11  A    between atoms: C_26  and  C_27
REMARK   12  A    between atoms: C_31  and  O_33
REMARK   13  A    between atoms: O_33  and  C_34
REMARK                            x       y       z     vdW  Elec       q    Type
REMARK                         _______ _______ _______ _____ _____    ______ ____
ROOT
ATOM      1  C   UNL     1       0.974  -0.522   0.973  0.00  0.00    -0.078 C 
ATOM      2  C   UNL     1       1.073  -2.043   0.835  0.00  0.00    -0.013 C 
ATOM      3  C   UNL     1      -0.304  -2.664   1.083  0.00  0.00    +0.018 C 
ATOM      4  C   UNL     1      -1.308  -2.072   0.091  0.00  0.00    -0.013 C 
ATOM      5  C   UNL     1      -1.338  -0.550   0.250  0.00  0.00    -0.078 C 
ATOM      6  N   UNL     1       0.011  -0.012  -0.026  0.00  0.00    +0.382 N 
ATOM      7  H   UNL     1       0.306  -0.317  -0.960  0.00  0.00    -0.081 HD
ENDROOT
BRANCH   3   8
ATOM      8  C   UNL     1      -0.226  -4.180   0.888  0.00  0.00    +0.119 C 
ATOM      9  C   UNL     1      -1.585  -4.816   1.105  0.00  0.00    +0.247 C 
ATOM     10  O   UNL     1      -2.245  -4.805   2.122  0.00  0.00    -0.273 OA
ATOM     11  N   UNL     1      -1.906  -5.397  -0.068  0.00  0.00    -0.227 N 
ATOM     12  C   UNL     1      -0.950  -5.218  -0.986  0.00  0.00    +0.309 C 
ATOM     13  O   UNL     1      -1.013  -5.649  -2.121  0.00  0.00    -0.252 OA
ATOM     14  N   UNL     1       0.090  -4.506  -0.513  0.00  0.00    -0.284 N 
ATOM     15  C   UNL     1      -3.150  -6.132  -0.309  0.00  0.00    +0.143 C 
ATOM     16  H   UNL     1       0.891  -4.257  -1.000  0.00  0.00    +0.151 HD
BRANCH   8  17
ATOM     17  C   UNL     1       0.811  -4.790   1.833  0.00  0.00    +0.070 C 
BRANCH  17  18
ATOM     18  C   UNL     1       0.957  -6.260   1.537  0.00  0.00    -0.041 A 
ATOM     19  C   UNL     1       0.162  -7.180   2.197  0.00  0.00    +0.004 A 
ATOM     20  C   UNL     1       0.289  -8.529   1.923  0.00  0.00    +0.004 A 
ATOM     21  C   UNL     1       1.220  -8.963   0.998  0.00  0.00    +0.045 A 
ATOM     22  C   UNL     1       2.022  -8.043   0.339  0.00  0.00    +0.120 A 
ATOM     23  C   UNL     1       1.888  -6.689   0.611  0.00  0.00    +0.049 A 
BRANCH  22  24
ATOM     24  O   UNL     1       2.938  -8.467  -0.571  0.00  0.00    -0.495 OA
ATOM     25  C   UNL     1       3.020  -9.875  -0.800  0.00  0.00    +0.277 C 
ENDBRANCH  22  24
ENDBRANCH  17  18
ENDBRANCH   8  17
ENDBRANCH   3   8
BRANCH   6  26
ATOM     26  C   UNL     1      -0.018   1.465   0.010  0.00  0.00    -0.043 C 
BRANCH  26  30
ATOM     27  C   UNL     1       3.994   2.946  -0.020  0.00  0.00    +0.025 A 
ATOM     28  C   UNL     1       3.325   2.709  -1.222  0.00  0.00    +0.017 A 
ATOM     29  C   UNL     1       2.031   2.231  -1.205  0.00  0.00    +0.003 A 
ATOM     30  C   UNL     1       1.396   1.986  -0.001  0.00  0.00    -0.064 A 
ATOM     31  C   UNL     1       2.051   2.224   1.194  0.00  0.00    +0.003 A 
ATOM     32  C   UNL     1       3.348   2.697   1.191  0.00  0.00    +0.017 A 
BRANCH  27  34
ATOM     33  C   UNL     1       6.438   3.849  -0.039  0.00  0.00    -0.063 C 
ATOM     34  C   UNL     1       5.337   3.442  -0.030  0.00  0.00    -0.063 C 
BRANCH  33  36
ATOM     35  C   UNL     1       8.310   4.529   1.390  0.00  0.00    +0.055 C 
ATOM     36  C   UNL     1       7.818   4.360  -0.049  0.00  0.00    +0.121 C 
ATOM     37  C   UNL     1       8.723   3.369  -0.784  0.00  0.00    +0.055 C 
BRANCH  36  38
ATOM     38  O   UNL     1       7.854   5.623  -0.716  0.00  0.00    -0.377 OA
ATOM     39  H   UNL     1       8.735   6.019  -0.761  0.00  0.00    +0.211 HD
ENDBRANCH  36  38
ENDBRANCH  33  36
ENDBRANCH  27  34
ENDBRANCH  26  30
ENDBRANCH   6  26
TORSDOF 9
