REMARK  Name = ZINC28465812
REMARK  3 active torsions:
REMARK  status: ('A' for Active; 'I' for Inactive)
REMARK    1  A    between atoms: C_4  and  O_7
REMARK    2  A    between atoms: O_7  and  C_8
REMARK    3  A    between atoms: C_11  and  C_14
REMARK                            x       y       z     vdW  Elec       q    Type
REMARK                         _______ _______ _______ _____ _____    ______ ____
ROOT
ATOM      1  C   UNL     1       2.347   1.323  -0.072  0.00  0.00    +0.141 C 
ATOM      2  C   UNL     1       2.376  -0.190  -0.054  0.00  0.00    +0.046 C 
ATOM      3  C   UNL     1       1.189  -0.856  -0.071  0.00  0.00    +0.052 C 
ATOM      4  C   UNL     1       1.464  -2.318  -0.050  0.00  0.00    +0.007 A 
ATOM      5  C   UNL     1       0.642  -3.431  -0.055  0.00  0.00    +0.010 A 
ATOM      6  C   UNL     1       1.202  -4.705  -0.030  0.00  0.00    +0.001 A 
ATOM      7  C   UNL     1       2.570  -4.863  -0.001  0.00  0.00    +0.001 A 
ATOM      8  C   UNL     1       3.405  -3.750   0.004  0.00  0.00    +0.012 A 
ATOM      9  C   UNL     1       2.859  -2.482  -0.021  0.00  0.00    +0.031 A 
ATOM     10  C   UNL     1       3.446  -1.113  -0.023  0.00  0.00    +0.194 C 
ATOM     11  O   UNL     1       4.631  -0.840  -0.002  0.00  0.00    -0.287 OA
ATOM     12  N   UNL     1       0.004  -0.158  -0.102  0.00  0.00    -0.268 N 
ATOM     13  C   UNL     1      -0.071   1.177  -0.117  0.00  0.00    +0.305 C 
ATOM     14  O   UNL     1      -1.168   1.700  -0.150  0.00  0.00    -0.252 OA
ATOM     15  N   UNL     1       1.021   1.965  -0.103  0.00  0.00    -0.288 N 
ATOM     16  H   UNL     1      -0.953  -0.700  -0.116  0.00  0.00    +0.156 HD
ATOM     17  H   UNL     1       0.941   3.062  -0.115  0.00  0.00    +0.151 HD
ENDROOT
BRANCH   1  21
ATOM     18  C   UNL     1       4.536   2.643  -3.496  0.00  0.00    +0.128 A 
ATOM     19  C   UNL     1       5.133   2.653  -2.244  0.00  0.00    +0.046 A 
ATOM     20  C   UNL     1       4.423   2.227  -1.138  0.00  0.00    +0.009 A 
ATOM     21  C   UNL     1       3.119   1.789  -1.279  0.00  0.00    -0.022 A 
ATOM     22  C   UNL     1       2.524   1.773  -2.527  0.00  0.00    +0.009 A 
ATOM     23  C   UNL     1       3.227   2.204  -3.635  0.00  0.00    +0.046 A 
BRANCH  18  24
ATOM     24  O   UNL     1       5.232   3.062  -4.585  0.00  0.00    -0.456 OA
BRANCH  24  28
ATOM     25  C   UNL     1       4.010   6.535  -6.446  0.00  0.00    +0.000 A 
ATOM     26  C   UNL     1       5.016   5.770  -7.006  0.00  0.00    +0.004 A 
ATOM     27  C   UNL     1       5.427   4.607  -6.385  0.00  0.00    +0.046 A 
ATOM     28  C   UNL     1       4.830   4.207  -5.198  0.00  0.00    +0.128 A 
ATOM     29  C   UNL     1       3.816   4.974  -4.641  0.00  0.00    +0.046 A 
ATOM     30  C   UNL     1       3.413   6.139  -5.263  0.00  0.00    +0.004 A 
ENDBRANCH  24  28
ENDBRANCH  18  24
ENDBRANCH   1  21
TORSDOF 3
