REMARK  Name = ZINC02280986
REMARK  11 active torsions:
REMARK  status: ('A' for Active; 'I' for Inactive)
REMARK    1  A    between atoms: C_1  and  C_2
REMARK    2  A    between atoms: C_2  and  O_3
REMARK    3  A    between atoms: O_3  and  C_4
REMARK    4  A    between atoms: C_4  and  C_6
REMARK    5  A    between atoms: C_6  and  C_7
REMARK    6  A    between atoms: C_6  and  N_11
REMARK    7  A    between atoms: C_6  and  N_24
REMARK    8  A    between atoms: N_11  and  C_12
REMARK    9  A    between atoms: C_13  and  C_21
REMARK   10  A    between atoms: N_27  and  C_28
REMARK   11  A    between atoms: N_27  and  C_29
REMARK                            x       y       z     vdW  Elec       q    Type
REMARK                         _______ _______ _______ _____ _____    ______ ____
ROOT
ATOM      1  C   UNL     1       1.176   1.704   0.041  0.00  0.00    +0.297 C 
ENDROOT
BRANCH   1   2
ATOM      2  N   UNL     1       2.332   0.844   0.305  0.00  0.00    -0.262 N 
ATOM      3  C   UNL     1       3.576   1.364   0.292  0.00  0.00    +0.304 C 
ATOM      4  O   UNL     1       3.733   2.561   0.144  0.00  0.00    -0.253 OA
ATOM      5  N   UNL     1       4.645   0.558   0.442  0.00  0.00    -0.292 N 
ATOM      6  C   UNL     1       5.997   1.123   0.428  0.00  0.00    +0.133 C 
ATOM      7  C   UNL     1       4.456  -0.884   0.620  0.00  0.00    +0.133 C 
ATOM      8  H   UNL     1       2.203  -0.099   0.490  0.00  0.00    +0.153 HD
ENDBRANCH   1   2
BRANCH   1   9
ATOM      9  C   UNL     1       1.260   2.247  -1.387  0.00  0.00    +0.438 C 
ATOM     10  F   UNL     1       0.241   3.184  -1.590  0.00  0.00    -0.166 F 
ATOM     11  F   UNL     1       2.503   2.860  -1.581  0.00  0.00    -0.166 F 
ATOM     12  F   UNL     1       1.113   1.194  -2.296  0.00  0.00    -0.166 F 
ENDBRANCH   1   9
BRANCH   1  13
ATOM     13  C   UNL     1       1.171   2.853   1.016  0.00  0.00    +0.359 C 
ATOM     14  O   UNL     1       2.163   3.104   1.659  0.00  0.00    -0.246 OA
BRANCH  13  15
ATOM     15  O   UNL     1       0.065   3.598   1.170  0.00  0.00    -0.462 OA
BRANCH  15  17
ATOM     16  C   UNL     1      -1.212   5.418   2.164  0.00  0.00    +0.048 C 
ATOM     17  C   UNL     1       0.133   4.688   2.127  0.00  0.00    +0.229 C 
ENDBRANCH  15  17
ENDBRANCH  13  15
ENDBRANCH   1  13
BRANCH   1  18
ATOM     18  N   UNL     1      -0.056   0.927   0.196  0.00  0.00    -0.301 N 
ATOM     19  H   UNL     1      -0.009  -0.025   0.377  0.00  0.00    +0.149 HD
BRANCH  18  20
ATOM     20  C   UNL     1      -1.285   1.549   0.079  0.00  0.00    +0.080 A 
ATOM     21  C   UNL     1      -2.547   1.015   0.305  0.00  0.00    +0.068 A 
ATOM     22  C   UNL     1      -3.691   1.893   0.113  0.00  0.00    -0.023 A 
ATOM     23  C   UNL     1      -3.392   3.148  -0.282  0.00  0.00    -0.005 A 
ATOM     24  S   UNL     1      -1.625   3.181  -0.392  0.00  0.00    -0.078 S 
ATOM     25  C   UNL     1      -4.355   4.261  -0.562  0.00  0.00    +0.043 C 
ATOM     26  C   UNL     1      -5.761   3.660  -0.698  0.00  0.00    +0.005 C 
ATOM     27  C   UNL     1      -6.006   2.709   0.477  0.00  0.00    +0.005 C 
ATOM     28  C   UNL     1      -5.136   1.460   0.326  0.00  0.00    +0.037 C 
BRANCH  21  29
ATOM     29  C   UNL     1      -2.720  -0.377   0.724  0.00  0.00    +0.244 C 
ATOM     30  O   UNL     1      -2.737  -0.659   1.909  0.00  0.00    -0.270 OA
ATOM     31  N   UNL     1      -2.860  -1.347  -0.201  0.00  0.00    -0.325 N 
ATOM     32  H   UNL     1      -2.846  -1.123  -1.144  0.00  0.00    +0.145 HD
ATOM     33  H   UNL     1      -2.974  -2.270   0.077  0.00  0.00    +0.145 HD
ENDBRANCH  21  29
ENDBRANCH  18  20
ENDBRANCH   1  18
TORSDOF 8
