REMARK  Name = ZINC12894715
REMARK  10 active torsions:
REMARK  status: ('A' for Active; 'I' for Inactive)
REMARK    1  A    between atoms: C_2  and  C_3
REMARK    2  A    between atoms: C_3  and  N_4
REMARK    3  A    between atoms: C_5  and  C_7
REMARK    4  A    between atoms: C_7  and  S_8
REMARK    5  A    between atoms: S_8  and  C_9
REMARK    6  A    between atoms: C_11  and  C_27
REMARK    7  A    between atoms: C_12  and  N_14
REMARK    8  A    between atoms: C_15  and  C_17
REMARK    9  A    between atoms: C_17  and  O_18
REMARK   10  A    between atoms: O_18  and  C_19
REMARK                            x       y       z     vdW  Elec       q    Type
REMARK                         _______ _______ _______ _____ _____    ______ ____
ROOT
ATOM      1  C   UNL     1      -0.022   1.758   0.012  0.00  0.00    +0.137 A 
ATOM      2  N   UNL     1       0.990   2.604   0.007  0.00  0.00    -0.231 NA
ATOM      3  C   UNL     1       0.787   3.922   0.015  0.00  0.00    +0.101 A 
ATOM      4  C   UNL     1      -0.501   4.399   0.030  0.00  0.00    +0.100 A 
ATOM      5  S   UNL     1      -1.423   2.867   0.023  0.00  0.00    -0.045 S 
ENDROOT
BRANCH   3   6
ATOM      6  C   UNL     1       1.934   4.859   0.009  0.00  0.00    +0.003 A 
ATOM      7  C   UNL     1       1.847   6.068  -0.681  0.00  0.00    +0.010 A 
ATOM      8  C   UNL     1       2.917   6.939  -0.679  0.00  0.00    +0.001 A 
ATOM      9  C   UNL     1       4.079   6.610  -0.004  0.00  0.00    +0.000 A 
ATOM     10  C   UNL     1       4.173   5.410   0.679  0.00  0.00    +0.001 A 
ATOM     11  C   UNL     1       3.108   4.533   0.688  0.00  0.00    +0.010 A 
ENDBRANCH   3   6
BRANCH   4  12
ATOM     12  N   UNL     1      -0.963   5.715   0.040  0.00  0.00    -0.275 N 
ATOM     13  C   UNL     1      -2.287   5.965   0.054  0.00  0.00    +0.255 C 
ATOM     14  O   UNL     1      -3.078   5.044   0.057  0.00  0.00    -0.272 OA
ATOM     15  H   UNL     1      -0.331   6.451   0.038  0.00  0.00    +0.155 HD
BRANCH  13  16
ATOM     16  C   UNL     1      -2.786   7.387   0.065  0.00  0.00    +0.325 C 
BRANCH  16  17
ATOM     17  O   UNL     1      -4.215   7.390   0.079  0.00  0.00    -0.481 OA
BRANCH  17  18
ATOM     18  C   UNL     1      -4.829   8.603   0.090  0.00  0.00    +0.140 A 
ATOM     19  C   UNL     1      -4.072   9.765   0.089  0.00  0.00    +0.048 A 
ATOM     20  C   UNL     1      -4.698  10.996   0.101  0.00  0.00    +0.023 A 
ATOM     21  C   UNL     1      -6.080  11.072   0.114  0.00  0.00    +0.043 A 
ATOM     22  C   UNL     1      -6.837   9.914   0.116  0.00  0.00    +0.043 A 
ATOM     23  C   UNL     1      -6.215   8.680   0.098  0.00  0.00    +0.084 A 
ATOM     24 CL   UNL     1      -7.166   7.227   0.092  0.00  0.00    -0.080 Cl
ATOM     25 CL   UNL     1      -6.863  12.621   0.129  0.00  0.00    -0.083 Cl
ENDBRANCH  17  18
ENDBRANCH  16  17
ENDBRANCH  13  16
ENDBRANCH   4  12
BRANCH   1  26
ATOM     26  S   UNL     1       0.002  -0.004   0.002  0.00  0.00    -0.089 S 
BRANCH  26  27
ATOM     27  C   UNL     1      -1.776  -0.343   0.017  0.00  0.00    +0.172 C 
BRANCH  27  29
ATOM     28  N   UNL     1      -3.259  -2.322   0.021  0.00  0.00    -0.311 N 
ATOM     29  C   UNL     1      -2.004  -1.832   0.011  0.00  0.00    +0.224 C 
ATOM     30  O   UNL     1      -1.057  -2.590  -0.002  0.00  0.00    -0.275 OA
ATOM     31  H   UNL     1      -4.016  -1.716   0.031  0.00  0.00    +0.149 HD
BRANCH  28  32
ATOM     32  C   UNL     1      -3.481  -3.770   0.015  0.00  0.00    +0.131 C 
BRANCH  32  34
ATOM     33  C   UNL     1      -5.492  -4.809  -0.901  0.00  0.00    +0.005 C 
ATOM     34  C   UNL     1      -4.961  -4.052   0.028  0.00  0.00    -0.016 C 
ENDBRANCH  32  34
ENDBRANCH  28  32
ENDBRANCH  27  29
ENDBRANCH  26  27
ENDBRANCH   1  26
TORSDOF 10
