REMARK  Name = ZINC03231226
REMARK  7 active torsions:
REMARK  status: ('A' for Active; 'I' for Inactive)
REMARK    1  A    between atoms: C_1  and  C_2
REMARK    2  A    between atoms: C_2  and  O_3
REMARK    3  A    between atoms: O_3  and  C_4
REMARK    4  A    between atoms: C_4  and  C_6
REMARK    5  A    between atoms: C_7  and  C_22
REMARK    6  A    between atoms: C_10  and  N_11
REMARK    7  A    between atoms: C_12  and  C_14
REMARK                            x       y       z     vdW  Elec       q    Type
REMARK                         _______ _______ _______ _____ _____    ______ ____
ROOT
ATOM      1  C   UNL     1       4.326  -4.474  -0.072  0.00  0.00    +0.095 A 
ATOM      2  C   UNL     1       4.330  -5.925  -0.080  0.00  0.00    +0.006 A 
ATOM      3  C   UNL     1       3.119  -6.538  -0.068  0.00  0.00    +0.056 A 
ATOM      4  S   UNL     1       1.970  -5.178  -0.041  0.00  0.00    -0.080 S 
ATOM      5  C   UNL     1       3.084  -3.853  -0.055  0.00  0.00    +0.087 A 
ENDROOT
BRANCH   2   6
ATOM      6  C   UNL     1       5.593  -6.699  -0.098  0.00  0.00    +0.002 A 
ATOM      7  C   UNL     1       5.909  -7.499  -1.196  0.00  0.00    +0.010 A 
ATOM      8  C   UNL     1       7.088  -8.214  -1.209  0.00  0.00    +0.001 A 
ATOM      9  C   UNL     1       7.954  -8.148  -0.132  0.00  0.00    +0.001 A 
ATOM     10  C   UNL     1       7.645  -7.360   0.963  0.00  0.00    +0.020 A 
ATOM     11  C   UNL     1       6.469  -6.636   0.986  0.00  0.00    +0.049 A 
ATOM     12 CL   UNL     1       6.082  -5.649   2.361  0.00  0.00    -0.083 Cl
ENDBRANCH   2   6
BRANCH   5  13
ATOM     13  N   UNL     1       2.803  -2.497  -0.044  0.00  0.00    -0.275 N 
ATOM     14  C   UNL     1       1.524  -2.074  -0.027  0.00  0.00    +0.255 C 
ATOM     15  O   UNL     1       0.615  -2.884  -0.021  0.00  0.00    -0.269 OA
ATOM     16  H   UNL     1       3.528  -1.852  -0.049  0.00  0.00    +0.156 HD
BRANCH  14  17
ATOM     17  C   UNL     1       1.227  -0.639  -0.016  0.00  0.00    +0.075 A 
ATOM     18  C   UNL     1       0.002  -0.004   0.002  0.00  0.00    +0.024 A 
ATOM     19  C   UNL     1      -0.017   1.391   0.010  0.00  0.00    -0.036 A 
ATOM     20  C   UNL     1       1.189   2.019   0.002  0.00  0.00    -0.006 A 
ATOM     21  S   UNL     1       2.354   0.743  -0.021  0.00  0.00    -0.088 S 
ATOM     22  C   UNL     1       1.043   3.516   0.017  0.00  0.00    +0.043 C 
ATOM     23  C   UNL     1      -0.412   3.761   0.472  0.00  0.00    +0.010 C 
ATOM     24  C   UNL     1      -1.110   2.462   0.020  0.00  0.00    +0.036 C 
ENDBRANCH  14  17
ENDBRANCH   5  13
BRANCH   1  25
ATOM     25  C   UNL     1       5.569  -3.704  -0.084  0.00  0.00    +0.342 C 
ATOM     26  O   UNL     1       6.099  -3.389   0.965  0.00  0.00    -0.245 OA
BRANCH  25  27
ATOM     27  O   UNL     1       6.128  -3.343  -1.258  0.00  0.00    -0.461 OA
BRANCH  27  29
ATOM     28  C   UNL     1       7.822  -2.277  -2.612  0.00  0.00    +0.048 C 
ATOM     29  C   UNL     1       7.342  -2.592  -1.194  0.00  0.00    +0.229 C 
ENDBRANCH  27  29
ENDBRANCH  25  27
ENDBRANCH   1  25
TORSDOF 6
