REMARK  Name = ZINC05787774
REMARK  5 active torsions:
REMARK  status: ('A' for Active; 'I' for Inactive)
REMARK    1  A    between atoms: C_1  and  C_2
REMARK    2  A    between atoms: C_6  and  C_7
REMARK    3  A    between atoms: N_9  and  N_10
REMARK    4  A    between atoms: C_11  and  C_13
REMARK    5  A    between atoms: C_13  and  C_14
REMARK                            x       y       z     vdW  Elec       q    Type
REMARK                         _______ _______ _______ _____ _____    ______ ____
ROOT
ATOM      1  N   UNL     1      -6.329   1.169   1.513  0.00  0.00    -0.234 N 
ATOM      2  C   UNL     1      -5.045   1.513   1.289  0.00  0.00    +0.230 C 
ATOM      3  O   UNL     1      -4.457   2.214   2.085  0.00  0.00    -0.274 OA
ATOM      4  H   UNL     1      -6.799   0.608   0.875  0.00  0.00    +0.173 HD
ENDROOT
BRANCH   1   7
ATOM      5  C   UNL     1      -8.268   1.276   2.889  0.00  0.00    +0.267 C 
ATOM      6  O   UNL     1      -8.858   0.573   2.090  0.00  0.00    -0.268 OA
ATOM      7  N   UNL     1      -6.984   1.621   2.665  0.00  0.00    -0.230 N 
ATOM      8  H   UNL     1      -6.515   2.181   3.302  0.00  0.00    +0.173 HD
BRANCH   5  14
ATOM      9  C   UNL     1     -11.203   0.678   3.686  0.00  0.00    +0.045 C 
ATOM     10  C   UNL     1     -10.258   1.518   4.506  0.00  0.00    -0.031 A 
ATOM     11  C   UNL     1     -10.648   2.083   5.694  0.00  0.00    +0.011 A 
ATOM     12  C   UNL     1      -9.760   2.838   6.393  0.00  0.00    +0.046 A 
ATOM     13  S   UNL     1      -8.332   2.779   5.412  0.00  0.00    -0.092 S 
ATOM     14  C   UNL     1      -8.954   1.749   4.095  0.00  0.00    +0.078 A 
ENDBRANCH   5  14
ENDBRANCH   1   7
BRANCH   2  15
ATOM     15  C   UNL     1      -4.340   1.027   0.049  0.00  0.00    +0.104 C 
BRANCH  15  16
ATOM     16  C   UNL     1      -2.904   1.556   0.038  0.00  0.00    -0.020 C 
ATOM     17  C   UNL     1      -2.188   1.063  -1.221  0.00  0.00    +0.011 C 
ATOM     18  C   UNL     1      -0.753   1.593  -1.232  0.00  0.00    -0.010 C 
ATOM     19  C   UNL     1      -0.013   1.086   0.008  0.00  0.00    +0.007 C 
ATOM     20  C   UNL     1      -0.729   1.579   1.267  0.00  0.00    -0.010 C 
ATOM     21  C   UNL     1      -2.164   1.050   1.278  0.00  0.00    +0.011 C 
ATOM     22  C   UNL     1      -0.750   3.109   1.275  0.00  0.00    +0.007 C 
ATOM     23  C   UNL     1      -1.490   3.616   0.036  0.00  0.00    -0.010 C 
ATOM     24  C   UNL     1      -0.773   3.123  -1.223  0.00  0.00    +0.007 C 
ATOM     25  C   UNL     1      -2.925   3.086   0.047  0.00  0.00    +0.011 C 
ENDBRANCH  15  16
ENDBRANCH   2  15
TORSDOF 4
