REMARK  Name = ZINC52440866
REMARK  5 active torsions:
REMARK  status: ('A' for Active; 'I' for Inactive)
REMARK    1  A    between atoms: C_1  and  N_2
REMARK    2  A    between atoms: N_2  and  C_3
REMARK    3  A    between atoms: N_2  and  C_14
REMARK    4  A    between atoms: C_3  and  C_4
REMARK    5  A    between atoms: C_14  and  C_15
REMARK                            x       y       z     vdW  Elec       q    Type
REMARK                         _______ _______ _______ _____ _____    ______ ____
ROOT
ATOM      1  C   UNL     1      -0.059  -0.109   2.429  0.00  0.00    -0.060 A 
ATOM      2  C   UNL     1       0.189   1.100   3.052  0.00  0.00    +0.005 A 
ATOM      3  C   UNL     1      -0.516   1.452   4.187  0.00  0.00    +0.049 A 
ATOM      4  C   UNL     1      -1.475   0.594   4.704  0.00  0.00    +0.162 A 
ATOM      5  C   UNL     1      -1.726  -0.620   4.076  0.00  0.00    +0.162 A 
ATOM      6  C   UNL     1      -1.018  -0.966   2.935  0.00  0.00    +0.051 A 
ATOM      7  O   UNL     1      -2.669  -1.473   4.562  0.00  0.00    -0.485 OA
ATOM      8  C   UNL     1      -3.097  -1.258   5.912  0.00  0.00    +0.270 C 
ATOM      9  C   UNL     1      -3.370   0.241   6.096  0.00  0.00    +0.270 C 
ATOM     10  O   UNL     1      -2.158   0.954   5.825  0.00  0.00    -0.485 OA
ENDROOT
BRANCH   1  11
ATOM     11  C   UNL     1       0.713  -0.491   1.192  0.00  0.00    -0.043 C 
BRANCH  11  13
ATOM     12  C   UNL     1      -0.018   1.465   0.010  0.00  0.00    -0.095 C 
ATOM     13  N   UNL     1       0.002  -0.004   0.002  0.00  0.00    +0.384 N 
ATOM     14  H   UNL     1      -0.945  -0.353   0.009  0.00  0.00    -0.081 HD
BRANCH  13  15
ATOM     15  C   UNL     1       0.690  -0.478  -1.207  0.00  0.00    -0.036 C 
BRANCH  15  16
ATOM     16  C   UNL     1      -0.106  -0.083  -2.424  0.00  0.00    -0.028 C 
ATOM     17  C   UNL     1       0.396   0.767  -3.288  0.00  0.00    +0.018 C 
ATOM     18 BR   UNL     1      -1.827  -0.814  -2.707  0.00  0.00    -0.058 Br
ENDBRANCH  15  16
ENDBRANCH  13  15
ENDBRANCH  11  13
ENDBRANCH   1  11
TORSDOF 4
