REMARK  Name = ZINC38564261
REMARK  12 active torsions:
REMARK  status: ('A' for Active; 'I' for Inactive)
REMARK    1  A    between atoms: C_1  and  O_2
REMARK    2  A    between atoms: O_2  and  C_3
REMARK    3  A    between atoms: C_5  and  C_13
REMARK    4  A    between atoms: C_7  and  O_11
REMARK    5  A    between atoms: C_8  and  O_9
REMARK    6  A    between atoms: O_9  and  C_10
REMARK    7  A    between atoms: O_11  and  C_12
REMARK    8  A    between atoms: C_15  and  C_27
REMARK    9  A    between atoms: N_29  and  C_30
REMARK   10  A    between atoms: C_30  and  C_31
REMARK   11  A    between atoms: C_31  and  C_33
REMARK   12  A    between atoms: C_31  and  O_39
REMARK                            x       y       z     vdW  Elec       q    Type
REMARK                         _______ _______ _______ _____ _____    ______ ____
ROOT
ATOM      1  C   UNL     1      -4.850   0.223   0.038  0.00  0.00    +0.076 C 
ATOM      2  N   UNL     1      -4.814   1.534   0.133  0.00  0.00    -0.244 NA
ATOM      3  C   UNL     1      -5.895   2.311   0.291  0.00  0.00    +0.126 C 
ATOM      4  C   UNL     1      -7.130   1.770   0.658  0.00  0.00    +0.039 C 
ATOM      5  C   UNL     1      -7.216   0.386   0.647  0.00  0.00    -0.008 C 
ATOM      6  C   UNL     1      -8.066  -0.526   1.213  0.00  0.00    +0.004 A 
ATOM      7  C   UNL     1      -9.338  -0.389   1.816  0.00  0.00    +0.010 A 
ATOM      8  C   UNL     1      -9.900  -1.519   2.334  0.00  0.00    +0.001 A 
ATOM      9  C   UNL     1      -9.285  -2.771   2.292  0.00  0.00    +0.002 A 
ATOM     10  C   UNL     1      -8.074  -2.993   1.711  0.00  0.00    +0.026 A 
ATOM     11  C   UNL     1      -7.426  -1.869   1.126  0.00  0.00    +0.044 A 
ATOM     12  N   UNL     1      -6.300  -1.803   0.457  0.00  0.00    -0.372 N 
ATOM     13  C   UNL     1      -6.168  -0.459  -0.066  0.00  0.00    +0.160 C 
ATOM     14  H   UNL     1      -5.668  -2.527   0.331  0.00  0.00    +0.161 HD
ENDROOT
BRANCH   1  17
ATOM     15  C   UNL     1      -1.287  -0.784   0.630  0.00  0.00    +0.166 A 
ATOM     16  C   UNL     1      -2.455  -0.047   0.641  0.00  0.00    +0.059 A 
ATOM     17  C   UNL     1      -3.608  -0.555   0.027  0.00  0.00    +0.006 A 
ATOM     18  C   UNL     1      -3.570  -1.810  -0.596  0.00  0.00    +0.059 A 
ATOM     19  C   UNL     1      -2.399  -2.540  -0.604  0.00  0.00    +0.166 A 
ATOM     20  C   UNL     1      -1.253  -2.029   0.004  0.00  0.00    +0.204 A 
BRANCH  15  22
ATOM     21  C   UNL     1      -0.274   0.990   1.847  0.00  0.00    +0.277 C 
ATOM     22  O   UNL     1      -0.168  -0.292   1.225  0.00  0.00    -0.491 OA
ENDBRANCH  15  22
BRANCH  20  23
ATOM     23  O   UNL     1      -0.100  -2.748  -0.010  0.00  0.00    -0.488 OA
ATOM     24  C   UNL     1       0.115  -3.651   1.077  0.00  0.00    +0.277 C 
ENDBRANCH  20  23
BRANCH  19  25
ATOM     25  O   UNL     1      -2.361  -3.758  -1.208  0.00  0.00    -0.491 OA
ATOM     26  C   UNL     1      -3.570  -4.219  -1.815  0.00  0.00    +0.277 C 
ENDBRANCH  19  25
ENDBRANCH   1  17
BRANCH   3  27
ATOM     27  C   UNL     1      -5.778   3.770   0.072  0.00  0.00    +0.262 C 
ATOM     28  O   UNL     1      -6.751   4.485   0.212  0.00  0.00    -0.269 OA
ATOM     29  N   UNL     1      -4.593   4.306  -0.282  0.00  0.00    -0.307 N 
ATOM     30  H   UNL     1      -3.817   3.735  -0.394  0.00  0.00    +0.149 HD
BRANCH  29  31
ATOM     31  C   UNL     1      -4.478   5.750  -0.499  0.00  0.00    +0.140 C 
BRANCH  31  32
ATOM     32  C   UNL     1      -3.039   6.094  -0.888  0.00  0.00    +0.162 C 
BRANCH  32  33
ATOM     33  C   UNL     1      -2.920   7.580  -1.111  0.00  0.00    -0.018 A 
ATOM     34  C   UNL     1      -2.685   8.422  -0.041  0.00  0.00    +0.006 A 
ATOM     35  C   UNL     1      -2.576   9.785  -0.245  0.00  0.00    +0.000 A 
ATOM     36  C   UNL     1      -2.702  10.305  -1.520  0.00  0.00    +0.000 A 
ATOM     37  C   UNL     1      -2.935   9.463  -2.590  0.00  0.00    +0.000 A 
ATOM     38  C   UNL     1      -3.040   8.099  -2.387  0.00  0.00    +0.006 A 
ENDBRANCH  32  33
BRANCH  32  39
ATOM     39  O   UNL     1      -2.153   5.697   0.161  0.00  0.00    -0.386 OA
ATOM     40  H   UNL     1      -2.330   6.128   1.008  0.00  0.00    +0.210 HD
ENDBRANCH  32  39
ENDBRANCH  31  32
ENDBRANCH  29  31
ENDBRANCH   3  27
TORSDOF 9
