REMARK  Name = ZINC38788882
REMARK  4 active torsions:
REMARK  status: ('A' for Active; 'I' for Inactive)
REMARK    1  A    between atoms: C_1  and  C_2
REMARK    2  A    between atoms: C_6  and  C_15
REMARK    3  A    between atoms: C_15  and  N_16
REMARK    4  A    between atoms: N_16  and  C_17
REMARK                            x       y       z     vdW  Elec       q    Type
REMARK                         _______ _______ _______ _____ _____    ______ ____
ROOT
ATOM      1  C   UNL     1      -0.018   1.503   0.010  0.00  0.00    +0.045 C 
ATOM      2  C   UNL     1       0.002  -0.004   0.002  0.00  0.00    -0.031 A 
ATOM      3  C   UNL     1       0.005  -0.662  -1.185  0.00  0.00    +0.014 A 
ATOM      4  C   UNL     1       0.025  -2.126  -1.181  0.00  0.00    -0.007 A 
ATOM      5  C   UNL     1       0.030  -2.828  -2.349  0.00  0.00    -0.003 C 
ATOM      6  C   UNL     1       0.051  -4.341  -2.251  0.00  0.00    +0.115 C 
ATOM      7  C   UNL     1       0.066  -4.947  -0.866  0.00  0.00    +0.226 C 
ATOM      8  O   UNL     1       0.084  -6.156  -0.729  0.00  0.00    -0.275 OA
ATOM      9  N   UNL     1       0.060  -4.159   0.196  0.00  0.00    -0.284 N 
ATOM     10  C   UNL     1       0.041  -2.829   0.114  0.00  0.00    +0.042 A 
ATOM     11  C   UNL     1       0.036  -2.054   1.287  0.00  0.00    +0.044 A 
ATOM     12  C   UNL     1       0.023  -0.695   1.216  0.00  0.00    +0.046 A 
ATOM     13 CL   UNL     1       0.025   0.217   2.694  0.00  0.00    -0.083 Cl
ATOM     14  H   UNL     1       0.070  -4.569   1.075  0.00  0.00    +0.155 HD
ENDROOT
BRANCH   6  15
ATOM     15  C   UNL     1       1.290  -4.842  -2.995  0.00  0.00    +0.118 C 
BRANCH  15  16
ATOM     16  N   UNL     1       1.283  -6.306  -3.025  0.00  0.00    -0.343 N 
ATOM     17  H   UNL     1       0.558  -6.796  -2.608  0.00  0.00    +0.146 HD
BRANCH  16  18
ATOM     18  C   UNL     1       2.323  -6.998  -3.656  0.00  0.00    +0.031 A 
ATOM     19  C   UNL     1       3.365  -6.297  -4.249  0.00  0.00    +0.027 A 
ATOM     20  C   UNL     1       4.392  -6.979  -4.872  0.00  0.00    +0.051 A 
ATOM     21  C   UNL     1       4.386  -8.364  -4.907  0.00  0.00    +0.166 A 
ATOM     22  C   UNL     1       3.343  -9.070  -4.313  0.00  0.00    +0.168 A 
ATOM     23  C   UNL     1       2.316  -8.386  -3.684  0.00  0.00    +0.072 A 
ATOM     24  O   UNL     1       3.568 -10.406  -4.483  0.00  0.00    -0.453 OA
ATOM     25  C   UNL     1       4.543 -10.501  -5.539  0.00  0.00    +0.466 C 
ATOM     26  O   UNL     1       5.265  -9.258  -5.450  0.00  0.00    -0.453 OA
ENDBRANCH  16  18
ENDBRANCH  15  16
ENDBRANCH   6  15
TORSDOF 3
