REMARK  Name = ZINC59158856
REMARK  7 active torsions:
REMARK  status: ('A' for Active; 'I' for Inactive)
REMARK    1  A    between atoms: C_1  and  C_2
REMARK    2  A    between atoms: C_2  and  C_4
REMARK    3  A    between atoms: C_2  and  S_22
REMARK    4  A    between atoms: N_6  and  N_7
REMARK    5  A    between atoms: C_8  and  C_9
REMARK    6  A    between atoms: S_22  and  C_23
REMARK    7  A    between atoms: C_23  and  C_24
REMARK                            x       y       z     vdW  Elec       q    Type
REMARK                         _______ _______ _______ _____ _____    ______ ____
ROOT
ATOM      1  N   UNL     1       2.756  -0.983   2.379  0.00  0.00    -0.188 NA
ATOM      2  C   UNL     1       4.054  -0.998   2.399  0.00  0.00    +0.138 C 
ENDROOT
BRANCH   2   3
ATOM      3  C   UNL     1       4.767  -1.486   3.593  0.00  0.00    -0.005 A 
ATOM      4  C   UNL     1       4.048  -1.939   4.703  0.00  0.00    +0.010 A 
ATOM      5  C   UNL     1       4.713  -2.394   5.817  0.00  0.00    +0.009 A 
ATOM      6  C   UNL     1       6.111  -2.406   5.845  0.00  0.00    -0.014 A 
ATOM      7  C   UNL     1       6.826  -1.953   4.737  0.00  0.00    -0.035 A 
ATOM      8  C   UNL     1       6.165  -1.503   3.618  0.00  0.00    +0.014 A 
ATOM      9  C   UNL     1       8.294  -2.084   5.058  0.00  0.00    +0.071 C 
ATOM     10  C   UNL     1       8.367  -2.654   6.454  0.00  0.00    -0.035 A 
ATOM     11  C   UNL     1       7.060  -2.837   6.901  0.00  0.00    -0.014 A 
ATOM     12  C   UNL     1       6.840  -3.357   8.177  0.00  0.00    +0.009 A 
ATOM     13  C   UNL     1       7.912  -3.685   8.982  0.00  0.00    +0.001 A 
ATOM     14  C   UNL     1       9.205  -3.499   8.529  0.00  0.00    +0.000 A 
ATOM     15  C   UNL     1       9.431  -2.984   7.264  0.00  0.00    +0.004 A 
ENDBRANCH   2   3
BRANCH   1  18
ATOM     16  C   UNL     1       0.731  -0.503   1.223  0.00  0.00    +0.245 C 
ATOM     17  O   UNL     1       0.105  -0.891   2.187  0.00  0.00    -0.273 OA
ATOM     18  N   UNL     1       2.079  -0.519   1.244  0.00  0.00    -0.206 N 
ATOM     19  H   UNL     1       2.579  -0.208   0.473  0.00  0.00    +0.177 HD
BRANCH  16  21
ATOM     20  C   UNL     1      -0.019   1.526   0.010  0.00  0.00    +0.029 C 
ATOM     21  C   UNL     1       0.002  -0.004   0.002  0.00  0.00    +0.131 C 
BRANCH  21  22
ATOM     22  S   UNL     1      -1.700  -0.632   0.015  0.00  0.00    -0.144 S 
BRANCH  22  23
ATOM     23  C   UNL     1      -2.384  -0.077  -1.571  0.00  0.00    +0.105 C 
BRANCH  23  24
ATOM     24  C   UNL     1      -3.814  -0.539  -1.690  0.00  0.00    -0.038 A 
ATOM     25  C   UNL     1      -4.098  -1.768  -2.254  0.00  0.00    +0.004 A 
ATOM     26  C   UNL     1      -5.410  -2.192  -2.364  0.00  0.00    +0.000 A 
ATOM     27  C   UNL     1      -6.436  -1.386  -1.908  0.00  0.00    +0.000 A 
ATOM     28  C   UNL     1      -6.152  -0.157  -1.343  0.00  0.00    +0.000 A 
ATOM     29  C   UNL     1      -4.840   0.265  -1.230  0.00  0.00    +0.004 A 
ENDBRANCH  23  24
ENDBRANCH  22  23
ENDBRANCH  21  22
ENDBRANCH  16  21
ENDBRANCH   1  18
TORSDOF 6
