REMARK  Name = ZINC39631777
REMARK  13 active torsions:
REMARK  status: ('A' for Active; 'I' for Inactive)
REMARK    1  A    between atoms: C_1  and  C_2
REMARK    2  A    between atoms: C_2  and  C_4
REMARK    3  A    between atoms: C_2  and  N_11
REMARK    4  A    between atoms: C_4  and  C_5
REMARK    5  A    between atoms: C_5  and  C_6
REMARK    6  A    between atoms: C_6  and  C_7
REMARK    7  A    between atoms: C_7  and  C_8
REMARK    8  A    between atoms: C_7  and  C_9
REMARK    9  A    between atoms: C_7  and  O_10
REMARK   10  A    between atoms: C_12  and  C_14
REMARK   11  A    between atoms: C_25  and  C_27
REMARK   12  A    between atoms: C_29  and  O_34
REMARK   13  A    between atoms: O_34  and  C_35
REMARK                            x       y       z     vdW  Elec       q    Type
REMARK                         _______ _______ _______ _____ _____    ______ ____
ROOT
ATOM      1  C   UNL     1      -4.044  -0.858  -1.063  0.00  0.00    +0.100 C 
ATOM      2  C   UNL     1      -3.822  -2.325  -0.631  0.00  0.00    +0.121 C 
ATOM      3  N   UNL     1      -4.708  -3.114  -1.519  0.00  0.00    -0.296 N 
ATOM      4  C   UNL     1      -4.593  -2.451  -2.840  0.00  0.00    +0.115 C 
ATOM      5  C   UNL     1      -4.550  -0.945  -2.513  0.00  0.00    -0.004 C 
ATOM      6  C   UNL     1      -5.947  -0.341  -2.623  0.00  0.00    -0.010 C 
ATOM      7  C   UNL     1      -6.404  -0.388  -4.083  0.00  0.00    -0.082 C 
ATOM      8  N   UNL     1      -5.458   0.361  -4.919  0.00  0.00    +0.379 N 
ATOM      9  C   UNL     1      -4.139  -0.281  -4.880  0.00  0.00    -0.082 C 
ATOM     10  C   UNL     1      -3.585  -0.230  -3.454  0.00  0.00    -0.010 C 
ATOM     11  C   UNL     1      -5.450  -4.192  -1.197  0.00  0.00    +0.248 C 
ATOM     12  O   UNL     1      -6.055  -4.794  -2.063  0.00  0.00    -0.270 OA
ATOM     13  H   UNL     1      -5.794   0.380  -5.870  0.00  0.00    -0.086 HD
ATOM     14  H   UNL     1      -5.381   1.306  -4.573  0.00  0.00    -0.086 HD
ENDROOT
BRANCH  11  15
ATOM     15  C   UNL     1      -5.529  -4.643   0.208  0.00  0.00    +0.054 A 
ATOM     16  C   UNL     1      -4.412  -4.544   1.039  0.00  0.00    +0.059 A 
ATOM     17  C   UNL     1      -4.493  -4.968   2.354  0.00  0.00    +0.121 A 
ATOM     18  C   UNL     1      -5.683  -5.490   2.845  0.00  0.00    +0.047 A 
ATOM     19  C   UNL     1      -6.790  -5.589   2.024  0.00  0.00    +0.019 A 
ATOM     20  C   UNL     1      -6.723  -5.164   0.712  0.00  0.00    +0.030 A 
ATOM     21 BR   UNL     1      -8.243  -5.295  -0.405  0.00  0.00    -0.050 Br
BRANCH  17  22
ATOM     22  O   UNL     1      -3.407  -4.874   3.166  0.00  0.00    -0.495 OA
ATOM     23  C   UNL     1      -3.561  -5.330   4.512  0.00  0.00    +0.277 C 
ENDBRANCH  17  22
ENDBRANCH  11  15
BRANCH   1  25
ATOM     24  N   UNL     1      -2.759   1.234  -0.758  0.00  0.00    -0.312 N 
ATOM     25  C   UNL     1      -2.748  -0.091  -1.005  0.00  0.00    +0.218 C 
ATOM     26  O   UNL     1      -1.695  -0.667  -1.181  0.00  0.00    -0.275 OA
ATOM     27  H   UNL     1      -3.601   1.694  -0.617  0.00  0.00    +0.149 HD
BRANCH  24  29
ATOM     28  C   UNL     1      -1.088   2.395  -2.115  0.00  0.00    +0.028 C 
ATOM     29  C   UNL     1      -1.498   1.978  -0.701  0.00  0.00    +0.070 C 
BRANCH  29  30
ATOM     30  C   UNL     1      -1.682   3.227   0.165  0.00  0.00    +0.022 C 
BRANCH  30  31
ATOM     31  C   UNL     1      -1.970   2.808   1.608  0.00  0.00    +0.005 C 
BRANCH  31  32
ATOM     32  C   UNL     1      -2.154   4.056   2.474  0.00  0.00    +0.034 C 
BRANCH  32  33
ATOM     33  C   UNL     1      -2.442   3.638   3.917  0.00  0.00    +0.061 C 
ATOM     34  C   UNL     1      -2.749   4.880   4.756  0.00  0.00    +0.041 C 
ATOM     35  C   UNL     1      -3.646   2.694   3.944  0.00  0.00    +0.041 C 
BRANCH  33  36
ATOM     36  O   UNL     1      -1.300   2.969   4.456  0.00  0.00    -0.389 OA
ATOM     37  H   UNL     1      -0.498   3.509   4.470  0.00  0.00    +0.210 HD
ENDBRANCH  33  36
ENDBRANCH  32  33
ENDBRANCH  31  32
ENDBRANCH  30  31
ENDBRANCH  29  30
ENDBRANCH  24  29
ENDBRANCH   1  25
TORSDOF 9
