REMARK  Name = ZINC39231095
REMARK  9 active torsions:
REMARK  status: ('A' for Active; 'I' for Inactive)
REMARK    1  A    between atoms: C_1  and  C_2
REMARK    2  A    between atoms: C_5  and  S_8
REMARK    3  A    between atoms: S_8  and  N_11
REMARK    4  A    between atoms: C_13  and  C_20
REMARK    5  A    between atoms: C_20  and  C_21
REMARK    6  A    between atoms: C_21  and  C_22
REMARK    7  A    between atoms: C_22  and  C_23
REMARK    8  A    between atoms: N_25  and  N_26
REMARK    9  A    between atoms: N_26  and  C_27
REMARK                            x       y       z     vdW  Elec       q    Type
REMARK                         _______ _______ _______ _____ _____    ______ ____
ROOT
ATOM      1  N   UNL     1       1.651  -4.999  -0.034  0.00  0.00    -0.218 N 
ATOM      2  C   UNL     1       2.275  -5.687   0.971  0.00  0.00    +0.116 A 
ATOM      3  C   UNL     1       3.558  -5.909   0.646  0.00  0.00    -0.020 A 
ATOM      4  C   UNL     1       3.774  -5.315  -0.675  0.00  0.00    +0.005 A 
ATOM      5  C   UNL     1       2.539  -4.761  -1.059  0.00  0.00    +0.072 A 
ATOM      6  C   UNL     1       2.431  -4.123  -2.291  0.00  0.00    +0.028 A 
ATOM      7  C   UNL     1       3.530  -4.045  -3.119  0.00  0.00    +0.002 A 
ATOM      8  C   UNL     1       4.745  -4.595  -2.737  0.00  0.00    +0.001 A 
ATOM      9  C   UNL     1       4.875  -5.219  -1.528  0.00  0.00    +0.010 A 
ENDROOT
BRANCH   1  10
ATOM     10  S   UNL     1       0.063  -4.530  -0.023  0.00  0.00    +0.084 S 
ATOM     11  O   UNL     1      -0.476  -4.950   1.223  0.00  0.00    -0.148 OA
ATOM     12  O   UNL     1      -0.490  -4.937  -1.267  0.00  0.00    -0.148 OA
BRANCH  10  17
ATOM     13  C   UNL     1      -0.018   1.503   0.010  0.00  0.00    +0.044 C 
ATOM     14  C   UNL     1       0.002  -0.004   0.002  0.00  0.00    -0.050 A 
ATOM     15  C   UNL     1       0.006  -0.689  -1.199  0.00  0.00    +0.005 A 
ATOM     16  C   UNL     1       0.025  -2.071  -1.206  0.00  0.00    +0.029 A 
ATOM     17  C   UNL     1       0.040  -2.768  -0.013  0.00  0.00    +0.111 A 
ATOM     18  C   UNL     1       0.037  -2.084   1.188  0.00  0.00    +0.029 A 
ATOM     19  C   UNL     1       0.023  -0.702   1.195  0.00  0.00    +0.005 A 
ENDBRANCH  10  17
ENDBRANCH   1  10
BRANCH   3  20
ATOM     20  C   UNL     1       4.583  -6.631   1.483  0.00  0.00    +0.038 C 
BRANCH  20  21
ATOM     21  C   UNL     1       5.387  -5.614   2.295  0.00  0.00    +0.014 C 
BRANCH  21  22
ATOM     22  C   UNL     1       6.427  -6.347   3.144  0.00  0.00    +0.097 C 
BRANCH  22  23
ATOM     23  C   UNL     1       7.219  -5.345   3.945  0.00  0.00    +0.229 C 
ATOM     24  O   UNL     1       6.975  -4.162   3.845  0.00  0.00    -0.274 OA
ATOM     25  N   UNL     1       8.198  -5.765   4.770  0.00  0.00    -0.237 N 
ATOM     26  H   UNL     1       8.392  -6.712   4.850  0.00  0.00    +0.173 HD
BRANCH  25  27
ATOM     27  N   UNL     1       8.934  -4.834   5.514  0.00  0.00    -0.264 N 
ATOM     28  H   UNL     1       8.739  -3.887   5.435  0.00  0.00    +0.170 HD
BRANCH  27  29
ATOM     29  C   UNL     1       9.949  -5.269   6.370  0.00  0.00    +0.044 A 
ATOM     30  C   UNL     1      10.233  -6.624   6.481  0.00  0.00    +0.026 A 
ATOM     31  C   UNL     1      11.237  -7.052   7.327  0.00  0.00    +0.022 A 
ATOM     32  C   UNL     1      11.959  -6.131   8.066  0.00  0.00    +0.041 A 
ATOM     33  C   UNL     1      11.679  -4.780   7.958  0.00  0.00    +0.022 A 
ATOM     34  C   UNL     1      10.679  -4.347   7.109  0.00  0.00    +0.026 A 
ATOM     35 CL   UNL     1      13.220  -6.672   9.129  0.00  0.00    -0.084 Cl
ENDBRANCH  27  29
ENDBRANCH  25  27
ENDBRANCH  22  23
ENDBRANCH  21  22
ENDBRANCH  20  21
ENDBRANCH   3  20
TORSDOF 8
