REMARK  Name = ZINC22845405
REMARK  10 active torsions:
REMARK  status: ('A' for Active; 'I' for Inactive)
REMARK    1  A    between atoms: C_1  and  C_2
REMARK    2  A    between atoms: C_2  and  C_4
REMARK    3  A    between atoms: C_2  and  O_16
REMARK    4  A    between atoms: N_6  and  C_7
REMARK    5  A    between atoms: O_16  and  C_17
REMARK    6  A    between atoms: C_17  and  C_19
REMARK    7  A    between atoms: C_19  and  N_20
REMARK    8  A    between atoms: N_20  and  S_21
REMARK    9  A    between atoms: S_21  and  C_24
REMARK   10  A    between atoms: C_27  and  C_30
REMARK                            x       y       z     vdW  Elec       q    Type
REMARK                         _______ _______ _______ _____ _____    ______ ____
ROOT
ATOM      1  O   UNL     1      -3.502   2.119   0.127  0.00  0.00    -0.451 OA
ENDROOT
BRANCH   1   3
ATOM      2  C   UNL     1      -2.700   0.132  -1.030  0.00  0.00    +0.062 C 
ATOM      3  C   UNL     1      -2.478   1.091   0.142  0.00  0.00    +0.259 C 
BRANCH   3   4
ATOM      4  C   UNL     1      -1.120   1.732   0.016  0.00  0.00    +0.258 C 
ATOM      5  O   UNL     1      -1.025   2.937  -0.077  0.00  0.00    -0.271 OA
ATOM      6  N   UNL     1      -0.011   0.966   0.007  0.00  0.00    -0.281 N 
ATOM      7  H   UNL     1      -0.100  -0.131   0.022  0.00  0.00    +0.155 HD
BRANCH   6   8
ATOM      8  C   UNL     1       1.254   1.565  -0.021  0.00  0.00    +0.053 A 
ATOM      9  C   UNL     1       1.447   2.748  -0.723  0.00  0.00    +0.046 A 
ATOM     10  C   UNL     1       2.696   3.340  -0.746  0.00  0.00    +0.061 A 
ATOM     11  C   UNL     1       3.756   2.750  -0.077  0.00  0.00    +0.061 A 
ATOM     12  C   UNL     1       3.567   1.569   0.618  0.00  0.00    +0.043 A 
ATOM     13  C   UNL     1       2.319   0.975   0.648  0.00  0.00    +0.064 A 
ATOM     14 CL   UNL     1       2.083  -0.506   1.521  0.00  0.00    -0.082 Cl
ATOM     15 CL   UNL     1       5.324   3.493  -0.113  0.00  0.00    -0.082 Cl
ATOM     16 CL   UNL     1       2.937   4.822  -1.618  0.00  0.00    -0.082 Cl
ENDBRANCH   6   8
ENDBRANCH   3   4
ENDBRANCH   1   3
BRANCH   1  17
ATOM     17  C   UNL     1      -4.629   1.867   0.812  0.00  0.00    +0.323 C 
ATOM     18  O   UNL     1      -4.755   0.822   1.404  0.00  0.00    -0.249 OA
BRANCH  17  19
ATOM     19  C   UNL     1      -5.737   2.889   0.842  0.00  0.00    +0.226 C 
BRANCH  19  20
ATOM     20  N   UNL     1      -6.848   2.380   1.649  0.00  0.00    -0.179 NA
ATOM     21  H   UNL     1      -6.987   1.296   1.774  0.00  0.00    +0.149 HD
BRANCH  20  22
ATOM     22  S   UNL     1      -8.035   3.412   2.167  0.00  0.00    +0.059 S 
ATOM     23  O   UNL     1      -8.970   2.624   2.892  0.00  0.00    -0.153 OA
ATOM     24  O   UNL     1      -7.377   4.533   2.741  0.00  0.00    -0.153 OA
BRANCH  22  25
ATOM     25  C   UNL     1      -8.876   4.000   0.735  0.00  0.00    +0.105 A 
ATOM     26  C   UNL     1      -8.441   5.153   0.106  0.00  0.00    +0.030 A 
ATOM     27  C   UNL     1      -9.092   5.617  -1.018  0.00  0.00    +0.021 A 
ATOM     28  C   UNL     1     -10.199   4.926  -1.515  0.00  0.00    +0.052 A 
ATOM     29  C   UNL     1     -10.636   3.766  -0.872  0.00  0.00    +0.021 A 
ATOM     30  C   UNL     1      -9.973   3.311   0.248  0.00  0.00    +0.030 A 
BRANCH  28  31
ATOM     31  C   UNL     1     -10.882   5.404  -2.679  0.00  0.00    +0.099 C 
ATOM     32  N   UNL     1     -11.424   5.783  -3.603  0.00  0.00    -0.191 NA
ENDBRANCH  28  31
ENDBRANCH  22  25
ENDBRANCH  20  22
ENDBRANCH  19  20
ENDBRANCH  17  19
ENDBRANCH   1  17
TORSDOF 9
