REMARK  Name = ZINC06264302
REMARK  14 active torsions:
REMARK  status: ('A' for Active; 'I' for Inactive)
REMARK    1  A    between atoms: C_1  and  C_2
REMARK    2  A    between atoms: C_2  and  C_3
REMARK    3  A    between atoms: C_3  and  C_4
REMARK    4  A    between atoms: C_4  and  N_5
REMARK    5  A    between atoms: C_6  and  C_8
REMARK    6  A    between atoms: C_8  and  N_69
REMARK    7  A    between atoms: C_11  and  O_32
REMARK    8  A    between atoms: C_18  and  C_20
REMARK    9  A    between atoms: C_22  and  O_30
REMARK   10  A    between atoms: C_23  and  O_28
REMARK   11  A    between atoms: C_24  and  O_26
REMARK   12  A    between atoms: O_26  and  C_27
REMARK   13  A    between atoms: O_28  and  C_29
REMARK   14  A    between atoms: O_30  and  C_31
REMARK                            x       y       z     vdW  Elec       q    Type
REMARK                         _______ _______ _______ _____ _____    ______ ____
ROOT
ATOM      1  C   UNL     1       1.346   2.010   0.000  0.00  0.00    -0.075 C 
ATOM      2  C   UNL     1       1.291   3.532   0.151  0.00  0.00    +0.016 C 
ATOM      3  C   UNL     1       0.471   4.123  -0.998  0.00  0.00    +0.066 C 
ATOM      4  C   UNL     1       0.373   5.639  -0.835  0.00  0.00    +0.035 C 
ATOM      5  C   UNL     1      -0.319   5.970   0.489  0.00  0.00    +0.003 C 
ATOM      6  C   UNL     1      -1.724   5.364   0.493  0.00  0.00    +0.000 C 
ATOM      7  C   UNL     1      -1.623   3.846   0.340  0.00  0.00    +0.005 C 
ATOM      8  C   UNL     1      -0.931   3.508  -0.983  0.00  0.00    +0.011 C 
ATOM      9  C   UNL     1      -0.809   1.987  -1.112  0.00  0.00    -0.031 C 
ATOM     10  N   UNL     1      -0.032   1.472   0.036  0.00  0.00    +0.390 N 
ATOM     11  H   UNL     1      -0.484   1.775   0.907  0.00  0.00    -0.080 HD
ENDROOT
BRANCH   9  12
ATOM     12  C   UNL     1      -2.183   1.369  -1.088  0.00  0.00    -0.053 A 
ATOM     13  C   UNL     1      -2.833   1.177   0.117  0.00  0.00    +0.051 A 
ATOM     14  C   UNL     1      -4.099   0.614   0.142  0.00  0.00    +0.165 A 
ATOM     15  C   UNL     1      -4.711   0.231  -1.045  0.00  0.00    +0.204 A 
ATOM     16  C   UNL     1      -4.053   0.420  -2.255  0.00  0.00    +0.165 A 
ATOM     17  C   UNL     1      -2.788   0.989  -2.272  0.00  0.00    +0.051 A 
BRANCH  16  18
ATOM     18  O   UNL     1      -4.647   0.046  -3.419  0.00  0.00    -0.491 OA
ATOM     19  C   UNL     1      -3.911   0.269  -4.624  0.00  0.00    +0.277 C 
ENDBRANCH  16  18
BRANCH  15  20
ATOM     20  O   UNL     1      -5.952  -0.328  -1.024  0.00  0.00    -0.488 OA
ATOM     21  C   UNL     1      -6.021  -1.751  -0.910  0.00  0.00    +0.277 C 
ENDBRANCH  15  20
BRANCH  14  22
ATOM     22  O   UNL     1      -4.740   0.432   1.328  0.00  0.00    -0.491 OA
ATOM     23  C   UNL     1      -4.051   0.850   2.508  0.00  0.00    +0.277 C 
ENDBRANCH  14  22
ENDBRANCH   9  12
BRANCH   3  24
ATOM     24  O   UNL     1       1.107   3.819  -2.241  0.00  0.00    -0.388 OA
ATOM     25  H   UNL     1       2.004   4.170  -2.320  0.00  0.00    +0.210 HD
ENDBRANCH   3  24
BRANCH  10  26
ATOM     26  C   UNL     1       0.002  -0.004   0.002  0.00  0.00    +0.019 C 
BRANCH  26  28
ATOM     27  N   UNL     1       0.718  -1.830   1.509  0.00  0.00    -0.317 N 
ATOM     28  C   UNL     1       0.598  -0.505   1.292  0.00  0.00    +0.196 C 
ATOM     29  O   UNL     1       0.970   0.283   2.135  0.00  0.00    -0.278 OA
ATOM     30  H   UNL     1       0.421  -2.461   0.835  0.00  0.00    +0.149 HD
BRANCH  27  31
ATOM     31  C   UNL     1       1.298  -2.318   2.763  0.00  0.00    +0.104 C 
BRANCH  31  32
ATOM     32  C   UNL     1       1.318  -3.848   2.755  0.00  0.00    +0.018 C 
BRANCH  32  34
ATOM     33  C   UNL     1       1.944  -5.886   4.056  0.00  0.00    +0.004 C 
ATOM     34  C   UNL     1       1.923  -4.357   4.065  0.00  0.00    -0.002 C 
ENDBRANCH  32  34
ENDBRANCH  31  32
ENDBRANCH  27  31
ENDBRANCH  26  28
ENDBRANCH  10  26
TORSDOF 10
