REMARK  Name = ZINC27962378
REMARK  4 active torsions:
REMARK  status: ('A' for Active; 'I' for Inactive)
REMARK    1  A    between atoms: C_1  and  C_2
REMARK    2  A    between atoms: N_8  and  S_9
REMARK    3  A    between atoms: S_9  and  N_12
REMARK    4  A    between atoms: C_17  and  C_19
REMARK                            x       y       z     vdW  Elec       q    Type
REMARK                         _______ _______ _______ _____ _____    ______ ____
ROOT
ATOM      1  N   UNL     1      -2.400   4.269   3.170  0.00  0.00    -0.157 NA
ATOM      2  C   UNL     1      -3.437   5.120   2.573  0.00  0.00    +0.111 C 
ATOM      3  C   UNL     1      -3.432   6.478   3.274  0.00  0.00    +0.017 C 
ATOM      4  C   UNL     1      -3.580   6.271   4.783  0.00  0.00    +0.003 C 
ATOM      5  C   UNL     1      -2.398   5.450   5.306  0.00  0.00    +0.027 C 
ATOM      6  C   UNL     1      -2.396   4.077   4.627  0.00  0.00    +0.136 C 
ENDROOT
BRANCH   6   7
ATOM      7  C   UNL     1      -1.160   3.315   5.033  0.00  0.00    +0.098 A 
ATOM      8  N   UNL     1      -1.080   2.126   5.559  0.00  0.00    -0.242 NA
ATOM      9  C   UNL     1       0.099   1.552   5.879  0.00  0.00    +0.079 A 
ATOM     10  C   UNL     1       0.346   0.284   6.449  0.00  0.00    +0.029 A 
ATOM     11  C   UNL     1       1.618  -0.127   6.704  0.00  0.00    +0.002 A 
ATOM     12  C   UNL     1       2.714   0.675   6.415  0.00  0.00    +0.001 A 
ATOM     13  C   UNL     1       2.513   1.923   5.856  0.00  0.00    +0.017 A 
ATOM     14  C   UNL     1       1.233   2.347   5.596  0.00  0.00    +0.039 A 
ATOM     15  S   UNL     1       0.500   3.808   4.904  0.00  0.00    -0.070 S 
ENDBRANCH   6   7
BRANCH   1  16
ATOM     16  S   UNL     1      -1.252   3.545   2.221  0.00  0.00    +0.100 S 
ATOM     17  O   UNL     1      -0.656   2.526   3.010  0.00  0.00    -0.141 OA
ATOM     18  O   UNL     1      -0.494   4.592   1.630  0.00  0.00    -0.141 OA
BRANCH  16  25
ATOM     19  C   UNL     1      -1.635   4.852  -0.261  0.00  0.00    +0.026 C 
ATOM     20  C   UNL     1      -2.325   3.486  -0.275  0.00  0.00    +0.078 C 
ATOM     21  C   UNL     1      -1.782   2.648  -1.436  0.00  0.00    +0.020 C 
ATOM     22  C   UNL     1      -2.372   1.238  -1.362  0.00  0.00    +0.003 C 
ATOM     23  C   UNL     1      -1.948   0.575  -0.049  0.00  0.00    +0.017 C 
ATOM     24  C   UNL     1      -2.492   1.389   1.129  0.00  0.00    +0.111 C 
ATOM     25  N   UNL     1      -2.049   2.783   0.985  0.00  0.00    -0.164 NA
ENDBRANCH  16  25
ENDBRANCH   1  16
TORSDOF 3
