REMARK  Name = ZINC39519736
REMARK  9 active torsions:
REMARK  status: ('A' for Active; 'I' for Inactive)
REMARK    1  A    between atoms: C_1  and  C_2
REMARK    2  A    between atoms: C_2  and  C_3
REMARK    3  A    between atoms: C_2  and  S_4
REMARK    4  A    between atoms: S_4  and  N_7
REMARK    5  A    between atoms: C_11  and  C_29
REMARK    6  A    between atoms: C_16  and  S_19
REMARK    7  A    between atoms: S_19  and  O_22
REMARK    8  A    between atoms: O_22  and  C_23
REMARK    9  A    between atoms: C_34  and  O_35
REMARK                            x       y       z     vdW  Elec       q    Type
REMARK                         _______ _______ _______ _____ _____    ______ ____
ROOT
ATOM      1  N   UNL     1      -2.179  -0.395  -1.186  0.00  0.00    -0.174 NA
ATOM      2  C   UNL     1      -2.966   0.848  -1.183  0.00  0.00    +0.110 C 
ATOM      3  C   UNL     1      -2.639   1.637  -2.455  0.00  0.00    +0.018 C 
ATOM      4  C   UNL     1      -2.886   0.755  -3.681  0.00  0.00    +0.011 C 
ATOM      5  C   UNL     1      -1.956  -0.461  -3.630  0.00  0.00    +0.045 C 
ATOM      6  C   UNL     1      -2.231  -1.255  -2.365  0.00  0.00    +0.051 C 
ATOM      7  C   UNL     1      -1.230  -2.420  -2.230  0.00  0.00    +0.026 C 
ATOM      8  C   UNL     1      -1.969  -3.451  -1.350  0.00  0.00    +0.032 C 
ATOM      9  C   UNL     1      -3.473  -3.159  -1.496  0.00  0.00    +0.173 C 
ATOM     10  C   UNL     1      -3.598  -1.959  -2.460  0.00  0.00    +0.054 C 
ENDROOT
BRANCH   5  11
ATOM     11  C   UNL     1      -2.200  -1.332  -4.835  0.00  0.00    -0.001 A 
ATOM     12  C   UNL     1      -1.139  -1.953  -5.466  0.00  0.00    +0.007 A 
ATOM     13  C   UNL     1      -1.362  -2.751  -6.572  0.00  0.00    +0.001 A 
ATOM     14  C   UNL     1      -2.647  -2.930  -7.051  0.00  0.00    +0.004 A 
ATOM     15  C   UNL     1      -3.711  -2.312  -6.424  0.00  0.00    +0.046 A 
ATOM     16  C   UNL     1      -3.490  -1.514  -5.310  0.00  0.00    +0.120 A 
BRANCH  16  17
ATOM     17  O   UNL     1      -4.536  -0.909  -4.688  0.00  0.00    -0.506 OA
ATOM     18  H   UNL     1      -4.804  -0.073  -5.093  0.00  0.00    +0.292 HD
ENDBRANCH  16  17
ENDBRANCH   5  11
BRANCH   1  19
ATOM     19  S   UNL     1      -1.248  -0.808   0.120  0.00  0.00    +0.035 S 
ATOM     20  O   UNL     1      -0.694  -2.073  -0.215  0.00  0.00    -0.158 OA
ATOM     21  O   UNL     1      -2.111  -0.668   1.240  0.00  0.00    -0.158 OA
BRANCH  19  23
ATOM     22  C   UNL     1      -0.566   1.822   0.440  0.00  0.00    +0.033 C 
ATOM     23  C   UNL     1       0.059   0.450   0.176  0.00  0.00    +0.142 C 
ATOM     24  C   UNL     1       1.043   0.113   1.298  0.00  0.00    +0.033 C 
ENDBRANCH  19  23
ENDBRANCH   1  19
BRANCH   9  25
ATOM     25  S   UNL     1      -4.323  -4.604  -2.188  0.00  0.00    +0.124 S 
ATOM     26  O   UNL     1      -5.728  -4.392  -2.190  0.00  0.00    -0.136 OA
ATOM     27  O   UNL     1      -3.656  -5.049  -3.361  0.00  0.00    -0.136 OA
BRANCH  25  28
ATOM     28  O   UNL     1      -4.099  -5.714  -1.170  0.00  0.00    -0.346 OA
BRANCH  28  29
ATOM     29  C   UNL     1      -4.856  -5.595  -0.048  0.00  0.00    +0.156 A 
ATOM     30  C   UNL     1      -4.377  -4.880   1.041  0.00  0.00    +0.048 A 
ATOM     31  C   UNL     1      -5.148  -4.761   2.180  0.00  0.00    +0.004 A 
ATOM     32  C   UNL     1      -6.396  -5.353   2.237  0.00  0.00    +0.000 A 
ATOM     33  C   UNL     1      -6.875  -6.066   1.154  0.00  0.00    +0.004 A 
ATOM     34  C   UNL     1      -6.111  -6.183   0.010  0.00  0.00    +0.048 A 
ENDBRANCH  28  29
ENDBRANCH  25  28
ENDBRANCH   9  25
TORSDOF 7
