REMARK  Name = ZINC38965602
REMARK  8 active torsions:
REMARK  status: ('A' for Active; 'I' for Inactive)
REMARK    1  A    between atoms: C_1  and  C_2
REMARK    2  A    between atoms: C_2  and  O_3
REMARK    3  A    between atoms: O_3  and  C_4
REMARK    4  A    between atoms: C_4  and  C_6
REMARK    5  A    between atoms: C_9  and  N_12
REMARK    6  A    between atoms: N_12  and  C_13
REMARK    7  A    between atoms: N_16  and  S_17
REMARK    8  A    between atoms: S_17  and  C_20
REMARK                            x       y       z     vdW  Elec       q    Type
REMARK                         _______ _______ _______ _____ _____    ______ ____
ROOT
ATOM      1  C   UNL     1       3.569  -5.336  -6.002  0.00  0.00    +0.237 C 
ATOM      2  C   UNL     1       3.215  -5.732  -7.418  0.00  0.00    +0.192 C 
ATOM      3  N   UNL     1       2.030  -5.488  -7.895  0.00  0.00    -0.110 NA
ATOM      4  N   UNL     1       4.143  -6.338  -8.176  0.00  0.00    -0.226 NA
ATOM      5  C   UNL     1       5.350  -6.595  -7.716  0.00  0.00    +0.089 A 
ATOM      6  C   UNL     1       6.305  -7.237  -8.545  0.00  0.00    +0.030 A 
ATOM      7  C   UNL     1       7.544  -7.504  -8.079  0.00  0.00    +0.002 A 
ATOM      8  C   UNL     1       7.954  -7.171  -6.777  0.00  0.00    +0.002 A 
ATOM      9  C   UNL     1       7.123  -6.558  -5.906  0.00  0.00    +0.027 A 
ATOM     10  C   UNL     1       5.756  -6.232  -6.336  0.00  0.00    +0.063 A 
ATOM     11  N   UNL     1       4.927  -5.639  -5.524  0.00  0.00    -0.359 N 
ATOM     12  H   UNL     1       5.200  -5.404  -4.623  0.00  0.00    +0.162 HD
ENDROOT
BRANCH   3  13
ATOM     13  S   UNL     1       1.656  -5.926  -9.447  0.00  0.00    +0.103 S 
ATOM     14  O   UNL     1       2.464  -5.128 -10.301  0.00  0.00    -0.146 OA
ATOM     15  O   UNL     1       1.680  -7.346  -9.485  0.00  0.00    -0.146 OA
BRANCH  13  16
ATOM     16  C   UNL     1      -0.013  -5.442  -9.737  0.00  0.00    +0.141 A 
ATOM     17  C   UNL     1      -0.291  -4.493 -10.661  0.00  0.00    +0.031 A 
ATOM     18  C   UNL     1      -1.600  -4.086 -10.918  0.00  0.00    +0.004 A 
ATOM     19  C   UNL     1      -2.650  -4.622 -10.252  0.00  0.00    +0.031 A 
ATOM     20  C   UNL     1      -2.435  -5.623  -9.267  0.00  0.00    +0.102 A 
ATOM     21  C   UNL     1      -1.066  -6.053  -9.004  0.00  0.00    +0.127 A 
ATOM     22  N   UNL     1      -0.985  -6.999  -8.067  0.00  0.00    -0.189 NA
ATOM     23  S   UNL     1      -2.500  -7.284  -7.605  0.00  0.00    +0.117 S 
ATOM     24  N   UNL     1      -3.337  -6.259  -8.519  0.00  0.00    -0.191 NA
ENDBRANCH  13  16
ENDBRANCH   3  13
BRANCH   1  25
ATOM     25  N   UNL     1       3.363  -3.891  -5.877  0.00  0.00    -0.318 N 
ATOM     26  H   UNL     1       3.761  -3.287  -6.523  0.00  0.00    +0.148 HD
BRANCH  25  30
ATOM     27  C   UNL     1       1.075  -2.380  -2.753  0.00  0.00    +0.059 A 
ATOM     28  C   UNL     1       1.422  -3.735  -2.776  0.00  0.00    +0.017 A 
ATOM     29  C   UNL     1       2.176  -4.230  -3.808  0.00  0.00    +0.024 A 
ATOM     30  C   UNL     1       2.597  -3.386  -4.832  0.00  0.00    +0.029 A 
ATOM     31  C   UNL     1       2.253  -2.037  -4.813  0.00  0.00    +0.024 A 
ATOM     32  C   UNL     1       1.494  -1.536  -3.786  0.00  0.00    +0.017 A 
BRANCH  27  33
ATOM     33  C   UNL     1       0.263  -1.845  -1.646  0.00  0.00    +0.339 C 
ATOM     34  O   UNL     1      -0.042  -0.669  -1.629  0.00  0.00    -0.245 OA
BRANCH  33  35
ATOM     35  O   UNL     1      -0.141  -2.659  -0.651  0.00  0.00    -0.461 OA
BRANCH  35  37
ATOM     36  C   UNL     1      -1.286  -3.144   1.422  0.00  0.00    +0.048 C 
ATOM     37  C   UNL     1      -0.924  -2.073   0.391  0.00  0.00    +0.229 C 
ENDBRANCH  35  37
ENDBRANCH  33  35
ENDBRANCH  27  33
ENDBRANCH  25  30
ENDBRANCH   1  25
TORSDOF 7
