REMARK  Name = ZINC45290705
REMARK  8 active torsions:
REMARK  status: ('A' for Active; 'I' for Inactive)
REMARK    1  A    between atoms: C_1  and  O_2
REMARK    2  A    between atoms: O_2  and  C_3
REMARK    3  A    between atoms: C_13  and  C_15
REMARK    4  A    between atoms: C_15  and  C_17
REMARK    5  A    between atoms: C_15  and  C_23
REMARK    6  A    between atoms: C_17  and  C_18
REMARK    7  A    between atoms: C_26  and  S_29
REMARK    8  A    between atoms: S_29  and  N_32
REMARK                            x       y       z     vdW  Elec       q    Type
REMARK                         _______ _______ _______ _____ _____    ______ ____
ROOT
ATOM      1  C   UNL     1       4.936  -1.046   8.372  0.00  0.00    +0.105 C 
ENDROOT
BRANCH   1  12
ATOM      2  C   UNL     1       0.625  -0.618   1.040  0.00  0.00    +0.216 A 
ATOM      3  C   UNL     1       0.685  -2.007   1.092  0.00  0.00    +0.069 A 
ATOM      4  C   UNL     1       1.313  -2.640   2.138  0.00  0.00    +0.036 A 
ATOM      5  C   UNL     1       1.899  -1.860   3.164  0.00  0.00    +0.099 A 
ATOM      6  C   UNL     1       1.782  -0.459   3.017  0.00  0.00    +0.133 A 
ATOM      7  N   UNL     1       1.179   0.107   2.000  0.00  0.00    -0.204 NA
ATOM      8  S   UNL     1       2.620   0.139   4.466  0.00  0.00    -0.032 S 
ATOM      9  C   UNL     1       3.056  -1.454   5.150  0.00  0.00    +0.167 A 
ATOM     10  N   UNL     1       2.555  -2.284   4.266  0.00  0.00    -0.223 NA
ATOM     11  N   UNL     1       3.746  -1.739   6.317  0.00  0.00    -0.264 N 
ATOM     12  C   UNL     1       4.185  -0.736   7.103  0.00  0.00    +0.226 C 
ATOM     13  O   UNL     1       3.975   0.417   6.789  0.00  0.00    -0.275 OA
ATOM     14  H   UNL     1       3.914  -2.661   6.568  0.00  0.00    +0.157 HD
BRANCH   2  16
ATOM     15  C   UNL     1      -0.017   1.425   0.010  0.00  0.00    +0.279 C 
ATOM     16  O   UNL     1       0.002  -0.004   0.002  0.00  0.00    -0.480 OA
ENDBRANCH   2  16
ENDBRANCH   1  12
BRANCH   1  17
ATOM     17  C   UNL     1       5.312   0.241   9.061  0.00  0.00    -0.035 A 
ATOM     18  C   UNL     1       6.110   1.164   8.412  0.00  0.00    +0.006 A 
ATOM     19  C   UNL     1       6.455   2.345   9.044  0.00  0.00    +0.029 A 
ATOM     20  C   UNL     1       6.000   2.601  10.324  0.00  0.00    +0.105 A 
ATOM     21  C   UNL     1       5.202   1.678  10.973  0.00  0.00    +0.029 A 
ATOM     22  C   UNL     1       4.854   0.500  10.339  0.00  0.00    +0.006 A 
BRANCH  20  23
ATOM     23  S   UNL     1       6.441   4.105  11.130  0.00  0.00    +0.061 S 
ATOM     24  O   UNL     1       6.339   3.863  12.527  0.00  0.00    -0.153 OA
ATOM     25  O   UNL     1       7.643   4.556  10.521  0.00  0.00    -0.153 OA
BRANCH  23  26
ATOM     26  N   UNL     1       5.274   5.220  10.757  0.00  0.00    -0.174 NA
ATOM     27  C   UNL     1       5.400   6.075   9.567  0.00  0.00    +0.124 C 
ATOM     28  C   UNL     1       5.194   7.533   9.992  0.00  0.00    +0.098 C 
ATOM     29  N   UNL     1       3.919   7.654  10.712  0.00  0.00    -0.313 NA
ATOM     30  C   UNL     1       3.930   6.866  11.951  0.00  0.00    +0.098 C 
ATOM     31  C   UNL     1       4.082   5.377  11.604  0.00  0.00    +0.124 C 
ATOM     32  H   UNL     1       3.700   8.621  10.900  0.00  0.00    +0.122 HD
ENDBRANCH  23  26
ENDBRANCH  20  23
ENDBRANCH   1  17
BRANCH   1  33
ATOM     33  C   UNL     1       6.204  -1.833   8.035  0.00  0.00    +0.021 C 
BRANCH  33  34
ATOM     34  C   UNL     1       6.902  -2.256   9.329  0.00  0.00    -0.010 C 
ATOM     35  C   UNL     1       7.456  -1.015  10.060  0.00  0.00    +0.003 C 
ATOM     36  C   UNL     1       8.799  -1.498  10.663  0.00  0.00    +0.000 C 
ATOM     37  C   UNL     1       9.356  -2.427   9.556  0.00  0.00    +0.000 C 
ATOM     38  C   UNL     1       8.109  -3.153   9.009  0.00  0.00    +0.003 C 
ENDBRANCH  33  34
ENDBRANCH   1  33
TORSDOF 7
