REMARK  Name = ZINC36094700
REMARK  9 active torsions:
REMARK  status: ('A' for Active; 'I' for Inactive)
REMARK    1  A    between atoms: C_1  and  C_2
REMARK    2  A    between atoms: C_5  and  O_9
REMARK    3  A    between atoms: C_6  and  C_8
REMARK    4  A    between atoms: O_9  and  C_10
REMARK    5  A    between atoms: C_10  and  C_11
REMARK    6  A    between atoms: C_21  and  C_23
REMARK    7  A    between atoms: C_23  and  N_24
REMARK    8  A    between atoms: N_24  and  C_25
REMARK    9  A    between atoms: C_25  and  C_26
REMARK                            x       y       z     vdW  Elec       q    Type
REMARK                         _______ _______ _______ _____ _____    ______ ____
ROOT
ATOM      1  C   UNL     1       0.079  -6.289  -1.105  0.00  0.00    +0.144 C 
ATOM      2  C   UNL     1       1.255  -6.681  -0.212  0.00  0.00    -0.014 A 
ATOM      3  C   UNL     1       2.580  -6.662  -0.642  0.00  0.00    +0.013 A 
ATOM      4  C   UNL     1       3.572  -7.019   0.205  0.00  0.00    +0.046 A 
ATOM      5  S   UNL     1       2.662  -7.411   1.692  0.00  0.00    -0.101 S 
ATOM      6  C   UNL     1       1.035  -7.074   1.072  0.00  0.00    -0.004 A 
ATOM      7  C   UNL     1      -0.273  -7.195   1.784  0.00  0.00    +0.061 C 
ATOM      8  C   UNL     1      -1.339  -6.425   0.990  0.00  0.00    +0.113 C 
ATOM      9  N   UNL     1      -1.157  -6.723  -0.440  0.00  0.00    -0.292 N 
ATOM     10  C   UNL     1      -2.108  -7.385  -1.128  0.00  0.00    +0.199 C 
ATOM     11  O   UNL     1      -1.947  -7.626  -2.306  0.00  0.00    -0.278 OA
ENDROOT
BRANCH   1  12
ATOM     12  C   UNL     1       0.058  -4.771  -1.298  0.00  0.00    +0.256 C 
BRANCH  12  13
ATOM     13  O   UNL     1       0.057  -4.129  -0.021  0.00  0.00    -0.490 OA
BRANCH  13  18
ATOM     14  C   UNL     1      -0.018   1.503   0.010  0.00  0.00    +0.044 C 
ATOM     15  C   UNL     1       0.002  -0.004   0.002  0.00  0.00    -0.050 A 
ATOM     16  C   UNL     1       0.006  -0.688  -1.200  0.00  0.00    +0.007 A 
ATOM     17  C   UNL     1       0.024  -2.069  -1.210  0.00  0.00    +0.046 A 
ATOM     18  C   UNL     1       0.039  -2.770  -0.013  0.00  0.00    +0.124 A 
ATOM     19  C   UNL     1       0.036  -2.082   1.191  0.00  0.00    -0.009 A 
ATOM     20  C   UNL     1       0.023  -0.701   1.196  0.00  0.00    +0.010 A 
ATOM     21  C   UNL     1       0.052  -2.841   2.493  0.00  0.00    +0.047 C 
ENDBRANCH  13  18
ENDBRANCH  12  13
ENDBRANCH   1  12
BRANCH  10  22
ATOM     22  C   UNL     1      -3.371  -7.825  -0.435  0.00  0.00    +0.015 C 
BRANCH  22  23
ATOM     23  N   UNL     1      -4.240  -8.520  -1.394  0.00  0.00    +0.387 N 
ATOM     24  H   UNL     1      -4.472  -7.894  -2.152  0.00  0.00    -0.085 HD
ATOM     25  H   UNL     1      -3.758  -9.327  -1.761  0.00  0.00    -0.085 HD
BRANCH  23  26
ATOM     26  C   UNL     1      -5.471  -8.949  -0.719  0.00  0.00    -0.055 C 
BRANCH  26  27
ATOM     27  C   UNL     1      -6.362  -9.662  -1.703  0.00  0.00    -0.054 C 
ATOM     28  C   UNL     1      -6.790 -10.872  -1.442  0.00  0.00    +0.002 C 
ENDBRANCH  26  27
ENDBRANCH  23  26
ENDBRANCH  22  23
ENDBRANCH  10  22
TORSDOF 7
