REMARK  Name = ZINC65452931
REMARK  3 active torsions:
REMARK  status: ('A' for Active; 'I' for Inactive)
REMARK    1  A    between atoms: C_8  and  C_13
REMARK    2  A    between atoms: C_13  and  N_14
REMARK    3  A    between atoms: C_18  and  C_21
REMARK                            x       y       z     vdW  Elec       q    Type
REMARK                         _______ _______ _______ _____ _____    ______ ____
ROOT
ATOM      1  N   UNL     1       4.048  -4.438   1.058  0.00  0.00    +0.381 N 
ATOM      2  C   UNL     1       3.873  -5.344  -0.084  0.00  0.00    -0.079 C 
ATOM      3  C   UNL     1       5.140  -6.179  -0.277  0.00  0.00    -0.018 C 
ATOM      4  C   UNL     1       5.402  -6.998   0.991  0.00  0.00    +0.005 C 
ATOM      5  C   UNL     1       5.509  -6.048   2.187  0.00  0.00    +0.032 C 
ATOM      6  C   UNL     1       4.228  -5.218   2.288  0.00  0.00    -0.070 C 
ATOM      7  H   UNL     1       4.860  -3.860   0.905  0.00  0.00    -0.082 HD
ENDROOT
BRANCH   5   8
ATOM      8  C   UNL     1       5.694  -6.862   3.470  0.00  0.00    +0.262 C 
ATOM      9  N   UNL     1       6.907  -7.686   3.376  0.00  0.00    -0.307 N 
ATOM     10  C   UNL     1       6.485  -9.018   3.487  0.00  0.00    +0.072 A 
ATOM     11  C   UNL     1       7.202 -10.207   3.465  0.00  0.00    +0.027 A 
ATOM     12  C   UNL     1       6.545 -11.415   3.596  0.00  0.00    +0.002 A 
ATOM     13  C   UNL     1       5.171 -11.441   3.748  0.00  0.00    +0.004 A 
ATOM     14  C   UNL     1       4.451 -10.263   3.771  0.00  0.00    +0.047 A 
ATOM     15  C   UNL     1       5.103  -9.043   3.641  0.00  0.00    +0.144 A 
ATOM     16  O   UNL     1       4.606  -7.775   3.635  0.00  0.00    -0.469 OA
ATOM     17  H   UNL     1       7.817  -7.371   3.260  0.00  0.00    +0.150 HD
ENDBRANCH   5   8
BRANCH   1  18
ATOM     18  C   UNL     1       2.859  -3.584   1.190  0.00  0.00    -0.062 C 
BRANCH  18  26
ATOM     19  C   UNL     1      -0.016   1.354   0.009  0.00  0.00    +0.001 A 
ATOM     20  C   UNL     1       1.165   2.097   0.002  0.00  0.00    +0.002 A 
ATOM     21  C   UNL     1       2.394   1.518  -0.013  0.00  0.00    +0.024 A 
ATOM     22  C   UNL     1       2.524   0.117  -0.021  0.00  0.00    +0.040 A 
ATOM     23  N   UNL     1       3.736  -0.439  -0.035  0.00  0.00    -0.285 N 
ATOM     24  C   UNL     1       3.929  -1.747  -0.045  0.00  0.00    +0.222 C 
ATOM     25  O   UNL     1       5.060  -2.197  -0.058  0.00  0.00    -0.275 OA
ATOM     26  C   UNL     1       2.741  -2.681  -0.039  0.00  0.00    +0.082 C 
ATOM     27  C   UNL     1       1.361  -2.054  -0.022  0.00  0.00    -0.007 C 
ATOM     28  C   UNL     1       1.294  -0.692  -0.014  0.00  0.00    -0.007 A 
ATOM     29  C   UNL     1       0.002  -0.004   0.002  0.00  0.00    +0.009 A 
ATOM     30  H   UNL     1       4.511   0.143  -0.039  0.00  0.00    +0.155 HD
ENDBRANCH  18  26
ENDBRANCH   1  18
TORSDOF 3
