REMARK  Name = ZINC12402168
REMARK  2 active torsions:
REMARK  status: ('A' for Active; 'I' for Inactive)
REMARK    1  A    between atoms: C_1  and  C_2
REMARK    2  A    between atoms: C_2  and  C_7
REMARK                            x       y       z     vdW  Elec       q    Type
REMARK                         _______ _______ _______ _____ _____    ______ ____
ROOT
ATOM      1  C   UNL     1       1.147   1.655   0.000  0.00  0.00    +0.227 C 
ATOM      2  O   UNL     1       1.130   2.868   0.007  0.00  0.00    -0.275 OA
ATOM      3  N   UNL     1      -0.011   0.966   0.007  0.00  0.00    -0.264 N 
ATOM      4  C   UNL     1      -1.224   1.644   0.017  0.00  0.00    +0.165 A 
ATOM      5  N   UNL     1      -2.448   1.155   0.020  0.00  0.00    -0.229 NA
ATOM      6  C   UNL     1      -3.527   1.941   0.039  0.00  0.00    +0.054 A 
ATOM      7  C   UNL     1      -3.286   3.265   0.028  0.00  0.00    +0.014 A 
ATOM      8  S   UNL     1      -1.519   3.359   0.035  0.00  0.00    -0.057 S 
ATOM      9  C   UNL     1      -4.300   4.378  -0.015  0.00  0.00    +0.044 C 
ATOM     10  C   UNL     1      -5.033   4.373   1.341  0.00  0.00    +0.005 C 
ATOM     11  C   UNL     1      -6.064   3.269   1.368  0.00  0.00    +0.001 C 
ATOM     12  C   UNL     1      -5.543   1.859   1.456  0.00  0.00    +0.006 C 
ATOM     13  C   UNL     1      -4.950   1.381   0.128  0.00  0.00    +0.056 C 
ATOM     14  H   UNL     1       0.002  -0.004   0.002  0.00  0.00    +0.157 HD
ENDROOT
BRANCH   1  16
ATOM     15  C   UNL     1       2.474  -0.392  -0.804  0.00  0.00    +0.024 C 
ATOM     16  C   UNL     1       2.462   0.920  -0.017  0.00  0.00    +0.080 C 
ATOM     17  C   UNL     1       3.331   0.998   1.240  0.00  0.00    +0.058 C 
ATOM     18  C   UNL     1       3.741   1.759  -0.022  0.00  0.00    +0.133 C 
ATOM     19 CL   UNL     1       5.148   1.127  -0.956  0.00  0.00    -0.100 Cl
ATOM     20 CL   UNL     1       3.559   3.553  -0.009  0.00  0.00    -0.100 Cl
ENDBRANCH   1  16
TORSDOF 1
