REMARK  Name = ZINC13068403
REMARK  7 active torsions:
REMARK  status: ('A' for Active; 'I' for Inactive)
REMARK    1  A    between atoms: C_1  and  C_2
REMARK    2  A    between atoms: C_3  and  C_32
REMARK    3  A    between atoms: C_7  and  O_18
REMARK    4  A    between atoms: C_9  and  C_11
REMARK    5  A    between atoms: C_11  and  N_60
REMARK    6  A    between atoms: C_14  and  C_17
REMARK    7  A    between atoms: O_18  and  C_19
REMARK                            x       y       z     vdW  Elec       q    Type
REMARK                         _______ _______ _______ _____ _____    ______ ____
ROOT
ATOM      1  C   UNL     1       1.770  -1.742   0.025  0.00  0.00    +0.045 C 
ATOM      2  C   UNL     1       1.310  -0.308  -0.011  0.00  0.00    -0.026 A 
ATOM      3  C   UNL     1       0.001  -0.015  -0.004  0.00  0.00    -0.008 A 
ATOM      4  S   UNL     1      -0.028   1.767  -0.054  0.00  0.00    -0.073 S 
ATOM      5  C   UNL     1       1.718   2.071  -0.084  0.00  0.00    +0.116 A 
ATOM      6  C   UNL     1       2.278   0.774  -0.053  0.00  0.00    +0.073 A 
ATOM      7  C   UNL     1       3.697   0.723  -0.069  0.00  0.00    +0.232 A 
ATOM      8  N   UNL     1       4.383   1.852  -0.110  0.00  0.00    -0.199 NA
ATOM      9  C   UNL     1       3.793   3.034  -0.136  0.00  0.00    +0.118 A 
ATOM     10  N   UNL     1       2.478   3.147  -0.123  0.00  0.00    -0.227 NA
ATOM     11  C   UNL     1      -1.167  -0.966   0.037  0.00  0.00    +0.052 C 
ENDROOT
BRANCH   9  12
ATOM     12  C   UNL     1       4.639   4.280  -0.182  0.00  0.00    -0.001 C 
BRANCH  12  19
ATOM     13  C   UNL     1       3.667   4.573  -2.380  0.00  0.00    -0.078 C 
ATOM     14  C   UNL     1       3.999   4.817  -3.854  0.00  0.00    -0.016 C 
ATOM     15  C   UNL     1       4.648   6.195  -4.005  0.00  0.00    -0.018 C 
ATOM     16  C   UNL     1       5.901   6.260  -3.127  0.00  0.00    -0.016 C 
ATOM     17  C   UNL     1       5.513   5.974  -1.673  0.00  0.00    -0.078 C 
ATOM     18  C   UNL     1       5.038   6.419  -5.468  0.00  0.00    +0.007 C 
ATOM     19  N   UNL     1       4.917   4.624  -1.592  0.00  0.00    +0.384 N 
ATOM     20  H   UNL     1       5.582   3.943  -1.977  0.00  0.00    -0.081 HD
ENDBRANCH  12  19
ENDBRANCH   9  12
BRANCH   7  21
ATOM     21  O   UNL     1       4.340  -0.469  -0.043  0.00  0.00    -0.437 OA
BRANCH  21  22
ATOM     22  C   UNL     1       5.695  -0.466  -0.161  0.00  0.00    +0.131 A 
ATOM     23  C   UNL     1       6.288  -0.823  -1.366  0.00  0.00    +0.050 A 
ATOM     24  C   UNL     1       7.660  -0.819  -1.500  0.00  0.00    +0.050 A 
ATOM     25  C   UNL     1       8.466  -0.467  -0.423  0.00  0.00    +0.136 A 
ATOM     26  C   UNL     1       7.867  -0.112   0.794  0.00  0.00    +0.031 A 
ATOM     27  C   UNL     1       6.482  -0.113   0.921  0.00  0.00    +0.058 A 
ATOM     28  C   UNL     1       8.981   0.199   1.711  0.00  0.00    +0.028 A 
ATOM     29  C   UNL     1       9.055   0.605   3.039  0.00  0.00    +0.012 A 
ATOM     30  C   UNL     1      10.286   0.819   3.621  0.00  0.00    +0.001 A 
ATOM     31  C   UNL     1      11.446   0.627   2.887  0.00  0.00    +0.004 A 
ATOM     32  C   UNL     1      11.384   0.223   1.570  0.00  0.00    +0.047 A 
ATOM     33  C   UNL     1      10.152   0.004   0.966  0.00  0.00    +0.136 A 
ATOM     34  O   UNL     1       9.808  -0.386  -0.281  0.00  0.00    -0.455 OA
ENDBRANCH  21  22
ENDBRANCH   7  21
TORSDOF 4
