REMARK  Name = ZINC29882292
REMARK  9 active torsions:
REMARK  status: ('A' for Active; 'I' for Inactive)
REMARK    1  A    between atoms: C_1  and  C_2
REMARK    2  A    between atoms: C_5  and  C_8
REMARK    3  A    between atoms: C_8  and  C_10
REMARK    4  A    between atoms: C_8  and  N_16
REMARK    5  A    between atoms: C_17  and  C_19
REMARK    6  A    between atoms: C_19  and  C_20
REMARK    7  A    between atoms: C_20  and  C_21
REMARK    8  A    between atoms: C_21  and  C_22
REMARK    9  A    between atoms: C_22  and  C_23
REMARK                            x       y       z     vdW  Elec       q    Type
REMARK                         _______ _______ _______ _____ _____    ______ ____
ROOT
ATOM      1  N   UNL     1       0.959  -4.758   1.029  0.00  0.00    -0.304 N 
ATOM      2  C   UNL     1       1.534  -5.972   0.919  0.00  0.00    +0.214 C 
ATOM      3  O   UNL     1       1.306  -6.665  -0.050  0.00  0.00    -0.276 OA
ATOM      4  H   UNL     1       1.142  -4.204   1.804  0.00  0.00    +0.150 HD
ENDROOT
BRANCH   1   5
ATOM      5  C   UNL     1       0.059  -4.275  -0.021  0.00  0.00    +0.134 C 
BRANCH   5  10
ATOM      6  C   UNL     1      -0.018   1.503   0.010  0.00  0.00    +0.044 C 
ATOM      7  C   UNL     1       0.002  -0.004   0.002  0.00  0.00    -0.050 A 
ATOM      8  C   UNL     1       0.006  -0.689  -1.199  0.00  0.00    +0.004 A 
ATOM      9  C   UNL     1       0.025  -2.071  -1.206  0.00  0.00    +0.006 A 
ATOM     10  C   UNL     1       0.040  -2.768  -0.013  0.00  0.00    -0.023 A 
ATOM     11  C   UNL     1       0.037  -2.084   1.188  0.00  0.00    +0.006 A 
ATOM     12  C   UNL     1       0.023  -0.702   1.195  0.00  0.00    +0.004 A 
ENDBRANCH   5  10
BRANCH   5  13
ATOM     13  C   UNL     1      -1.332  -4.797   0.230  0.00  0.00    -0.023 A 
ATOM     14  C   UNL     1      -1.831  -4.840   1.518  0.00  0.00    +0.006 A 
ATOM     15  C   UNL     1      -3.108  -5.318   1.749  0.00  0.00    +0.000 A 
ATOM     16  C   UNL     1      -3.884  -5.754   0.692  0.00  0.00    +0.000 A 
ATOM     17  C   UNL     1      -3.385  -5.710  -0.597  0.00  0.00    +0.000 A 
ATOM     18  C   UNL     1      -2.110  -5.228  -0.828  0.00  0.00    +0.006 A 
ENDBRANCH   5  13
ENDBRANCH   1   5
BRANCH   2  19
ATOM     19  C   UNL     1       2.460  -6.468   1.999  0.00  0.00    +0.096 C 
BRANCH  19  20
ATOM     20  C   UNL     1       2.972  -7.862   1.632  0.00  0.00    +0.009 C 
BRANCH  20  21
ATOM     21  C   UNL     1       3.912  -8.366   2.729  0.00  0.00    +0.002 C 
BRANCH  21  22
ATOM     22  C   UNL     1       4.424  -9.761   2.361  0.00  0.00    +0.016 C 
BRANCH  22  23
ATOM     23  C   UNL     1       5.364 -10.264   3.458  0.00  0.00    +0.069 C 
ATOM     24  C   UNL     1       5.869 -11.689   3.144  0.00  0.00    +0.108 C 
ATOM     25  C   UNL     1       7.346 -11.907   3.483  0.00  0.00    +0.105 C 
ATOM     26  C   UNL     1       8.040 -10.656   4.064  0.00  0.00    +0.093 C 
ATOM     27  S   UNL     1       6.943  -9.310   3.467  0.00  0.00    -0.154 S 
ATOM     28  N   UNL     1       7.966 -12.234   2.190  0.00  0.00    -0.294 N 
ATOM     29  C   UNL     1       7.023 -12.216   1.237  0.00  0.00    +0.300 C 
ATOM     30  O   UNL     1       7.258 -12.451   0.068  0.00  0.00    -0.253 OA
ATOM     31  N   UNL     1       5.809 -11.911   1.690  0.00  0.00    -0.294 N 
ATOM     32  H   UNL     1       8.905 -12.430   2.049  0.00  0.00    +0.151 HD
ATOM     33  H   UNL     1       5.010 -11.849   1.144  0.00  0.00    +0.151 HD
ENDBRANCH  22  23
ENDBRANCH  21  22
ENDBRANCH  20  21
ENDBRANCH  19  20
ENDBRANCH   2  19
TORSDOF 8
