REMARK  Name = ZINC31632229
REMARK  7 active torsions:
REMARK  status: ('A' for Active; 'I' for Inactive)
REMARK    1  A    between atoms: C_1  and  C_2
REMARK    2  A    between atoms: C_5  and  C_8
REMARK    3  A    between atoms: C_8  and  C_31
REMARK    4  A    between atoms: N_11  and  C_15
REMARK    5  A    between atoms: C_15  and  C_16
REMARK    6  A    between atoms: N_18  and  C_19
REMARK    7  A    between atoms: C_20  and  C_28
REMARK                            x       y       z     vdW  Elec       q    Type
REMARK                         _______ _______ _______ _____ _____    ______ ____
ROOT
ATOM      1  C   UNL     1       1.396   1.982  -0.001  0.00  0.00    +0.236 C 
ATOM      2  O   UNL     1       2.328   1.207  -0.014  0.00  0.00    -0.274 OA
ATOM      3  N   UNL     1       1.624   3.311   0.004  0.00  0.00    -0.278 N 
ATOM      4  H   UNL     1       0.779   4.014   0.016  0.00  0.00    +0.155 HD
ENDROOT
BRANCH   3   5
ATOM      5  C   UNL     1       2.925   3.791  -0.005  0.00  0.00    +0.084 A 
ATOM      6  C   UNL     1       3.358   5.109  -0.003  0.00  0.00    +0.068 A 
ATOM      7  C   UNL     1       4.791   5.346  -0.015  0.00  0.00    -0.023 A 
ATOM      8  C   UNL     1       5.558   4.233  -0.029  0.00  0.00    -0.004 A 
ATOM      9  S   UNL     1       4.405   2.890  -0.017  0.00  0.00    -0.077 S 
ATOM     10  C   UNL     1       7.054   4.168  -0.044  0.00  0.00    +0.043 C 
ATOM     11  C   UNL     1       7.595   5.555  -0.419  0.00  0.00    +0.005 C 
ATOM     12  C   UNL     1       6.881   6.610   0.431  0.00  0.00    +0.005 C 
ATOM     13  C   UNL     1       5.422   6.733  -0.012  0.00  0.00    +0.037 C 
BRANCH   6  14
ATOM     14  C   UNL     1       2.404   6.222   0.012  0.00  0.00    +0.244 C 
ATOM     15  O   UNL     1       2.018   6.679   1.072  0.00  0.00    -0.270 OA
ATOM     16  N   UNL     1       1.954   6.740  -1.148  0.00  0.00    -0.325 N 
ATOM     17  H   UNL     1       1.238   7.575  -1.137  0.00  0.00    +0.145 HD
ATOM     18  H   UNL     1       2.303   6.327  -2.106  0.00  0.00    +0.145 HD
ENDBRANCH   6  14
ENDBRANCH   3   5
BRANCH   1  19
ATOM     19  C   UNL     1      -0.018   1.461   0.010  0.00  0.00    +0.214 C 
BRANCH  19  23
ATOM     20  C   UNL     1       0.037  -2.202   0.624  0.00  0.00    +0.135 C 
ATOM     21  C   UNL     1       0.023  -0.767   1.113  0.00  0.00    +0.251 C 
ATOM     22  O   UNL     1       0.030  -0.385   2.263  0.00  0.00    -0.272 OA
ATOM     23  N   UNL     1       0.002  -0.004   0.002  0.00  0.00    -0.215 N 
ATOM     24  C   UNL     1      -0.004  -0.750  -1.109  0.00  0.00    +0.310 C 
ATOM     25  O   UNL     1      -0.026  -0.287  -2.233  0.00  0.00    -0.252 OA
ATOM     26  N   UNL     1       0.021  -2.068  -0.843  0.00  0.00    -0.281 N 
ATOM     27  C   UNL     1       1.308  -2.917   1.089  0.00  0.00    +0.047 C 
ATOM     28  H   UNL     1       0.030  -2.967  -1.477  0.00  0.00    +0.152 HD
BRANCH  20  33
ATOM     29  C   UNL     1      -4.661  -5.021   2.461  0.00  0.00    +0.044 C 
ATOM     30  C   UNL     1      -3.436  -4.286   1.982  0.00  0.00    -0.050 A 
ATOM     31  C   UNL     1      -2.840  -4.641   0.786  0.00  0.00    +0.004 A 
ATOM     32  C   UNL     1      -1.716  -3.967   0.347  0.00  0.00    +0.006 A 
ATOM     33  C   UNL     1      -1.188  -2.937   1.103  0.00  0.00    -0.015 A 
ATOM     34  C   UNL     1      -1.781  -2.585   2.301  0.00  0.00    +0.006 A 
ATOM     35  C   UNL     1      -2.907  -3.257   2.739  0.00  0.00    +0.004 A 
ENDBRANCH  20  33
ENDBRANCH  19  23
ENDBRANCH   1  19
TORSDOF 5
