REMARK  Name = ZINC14459304
REMARK  8 active torsions:
REMARK  status: ('A' for Active; 'I' for Inactive)
REMARK    1  A    between atoms: C_1  and  C_2
REMARK    2  A    between atoms: C_2  and  C_4
REMARK    3  A    between atoms: C_4  and  O_5
REMARK    4  A    between atoms: O_5  and  C_6
REMARK    5  A    between atoms: C_13  and  C_22
REMARK    6  A    between atoms: C_25  and  O_30
REMARK    7  A    between atoms: C_26  and  O_28
REMARK    8  A    between atoms: O_28  and  C_29
REMARK                            x       y       z     vdW  Elec       q    Type
REMARK                         _______ _______ _______ _____ _____    ______ ____
ROOT
ATOM      1  C   UNL     1      -1.352   5.897  -1.512  0.00  0.00    +0.142 A 
ATOM      2  C   UNL     1      -1.867   7.166  -1.330  0.00  0.00    +0.047 A 
ATOM      3  C   UNL     1      -1.443   7.942  -0.266  0.00  0.00    +0.004 A 
ATOM      4  C   UNL     1      -0.496   7.444   0.609  0.00  0.00    +0.006 A 
ATOM      5  C   UNL     1       0.030   6.181   0.430  0.00  0.00    -0.016 A 
ATOM      6  C   UNL     1      -0.397   5.379  -0.629  0.00  0.00    +0.074 A 
ATOM      7  N   UNL     1       0.066   4.083  -0.866  0.00  0.00    -0.334 N 
ATOM      8  C   UNL     1       1.143   3.595   0.011  0.00  0.00    +0.105 C 
ATOM      9  C   UNL     1       0.842   4.099   1.407  0.00  0.00    +0.029 C 
ATOM     10  C   UNL     1       1.074   5.640   1.329  0.00  0.00    +0.049 C 
ATOM     11  C   UNL     1       1.185   6.036   2.754  0.00  0.00    -0.023 C 
ATOM     12  C   UNL     1       1.656   5.003   3.443  0.00  0.00    -0.030 C 
ATOM     13  C   UNL     1       1.862   3.805   2.513  0.00  0.00    +0.033 C 
ATOM     14  H   UNL     1      -0.699   3.427  -0.899  0.00  0.00    +0.147 HD
ENDROOT
BRANCH   8  15
ATOM     15  C   UNL     1       1.169   2.089   0.002  0.00  0.00    -0.023 A 
ATOM     16  C   UNL     1      -0.017   1.378   0.010  0.00  0.00    +0.009 A 
ATOM     17  C   UNL     1       0.002  -0.004   0.002  0.00  0.00    +0.049 A 
ATOM     18  C   UNL     1       1.211  -0.680  -0.013  0.00  0.00    +0.158 A 
ATOM     19  C   UNL     1       2.405   0.035  -0.021  0.00  0.00    +0.162 A 
ATOM     20  C   UNL     1       2.379   1.420  -0.013  0.00  0.00    +0.054 A 
BRANCH  19  21
ATOM     21  O   UNL     1       3.594  -0.625  -0.035  0.00  0.00    -0.491 OA
ATOM     22  C   UNL     1       4.779   0.174  -0.042  0.00  0.00    +0.277 C 
ENDBRANCH  19  21
BRANCH  18  23
ATOM     23  O   UNL     1       1.232  -2.040  -0.020  0.00  0.00    -0.503 OA
ATOM     24  H   UNL     1       1.229  -2.429  -0.906  0.00  0.00    +0.292 HD
ENDBRANCH  18  23
ENDBRANCH   8  15
BRANCH   1  25
ATOM     25  O   UNL     1      -1.777   5.143  -2.561  0.00  0.00    -0.486 OA
BRANCH  25  26
ATOM     26  C   UNL     1      -2.753   5.727  -3.426  0.00  0.00    +0.259 C 
BRANCH  26  28
ATOM     27  C   UNL     1      -4.113   5.129  -5.572  0.00  0.00    +0.042 C 
ATOM     28  C   UNL     1      -3.101   4.752  -4.522  0.00  0.00    -0.043 C 
ATOM     29  C   UNL     1      -2.523   3.577  -4.561  0.00  0.00    +0.011 C 
ENDBRANCH  26  28
ENDBRANCH  25  26
ENDBRANCH   1  25
TORSDOF 6
