REMARK  Name = ZINC10586479
REMARK  8 active torsions:
REMARK  status: ('A' for Active; 'I' for Inactive)
REMARK    1  A    between atoms: C_1  and  C_2
REMARK    2  A    between atoms: C_7  and  C_8
REMARK    3  A    between atoms: C_13  and  C_16
REMARK    4  A    between atoms: C_16  and  C_17
REMARK    5  A    between atoms: C_17  and  N_18
REMARK    6  A    between atoms: C_19  and  C_21
REMARK    7  A    between atoms: C_21  and  O_22
REMARK    8  A    between atoms: O_22  and  C_23
REMARK                            x       y       z     vdW  Elec       q    Type
REMARK                         _______ _______ _______ _____ _____    ______ ____
ROOT
ATOM      1  C   UNL     1      -0.465   1.958   1.048  0.00  0.00    +0.075 C 
ENDROOT
BRANCH   1   7
ATOM      2  C   UNL     1       0.084  -2.371   0.262  0.00  0.00    +0.183 A 
ATOM      3  N   UNL     1       1.409  -2.224   0.149  0.00  0.00    -0.200 NA
ATOM      4  C   UNL     1       1.720  -0.971   0.330  0.00  0.00    +0.196 A 
ATOM      5  N   UNL     1       0.593  -0.246   0.570  0.00  0.00    -0.210 N 
ATOM      6  N   UNL     1      -0.456  -1.200   0.517  0.00  0.00    -0.144 NA
ATOM      7  C   UNL     1       0.747   1.103   0.784  0.00  0.00    +0.054 A 
ATOM      8  C   UNL     1       1.957   1.664   0.754  0.00  0.00    +0.072 A 
ATOM      9  S   UNL     1       3.002   0.258   0.406  0.00  0.00    -0.056 S 
BRANCH   2  16
ATOM     10  C   UNL     1       0.678  -4.137  -1.951  0.00  0.00    +0.044 C 
ATOM     11  C   UNL     1      -0.377  -4.506  -0.941  0.00  0.00    -0.040 A 
ATOM     12  C   UNL     1      -1.069  -5.694  -1.066  0.00  0.00    +0.004 A 
ATOM     13  C   UNL     1      -2.038  -6.035  -0.140  0.00  0.00    +0.000 A 
ATOM     14  C   UNL     1      -2.319  -5.188   0.917  0.00  0.00    +0.001 A 
ATOM     15  C   UNL     1      -1.631  -3.999   1.055  0.00  0.00    +0.012 A 
ATOM     16  C   UNL     1      -0.657  -3.649   0.121  0.00  0.00    +0.024 A 
ENDBRANCH   2  16
ENDBRANCH   1   7
BRANCH   1  17
ATOM     17  C   UNL     1      -0.941   2.588  -0.263  0.00  0.00    +0.110 C 
BRANCH  17  18
ATOM     18  N   UNL     1      -2.119   3.420  -0.005  0.00  0.00    -0.312 N 
ATOM     19  C   UNL     1      -2.714   4.078  -1.020  0.00  0.00    +0.251 C 
ATOM     20  O   UNL     1      -2.273   3.982  -2.146  0.00  0.00    -0.272 OA
ATOM     21  H   UNL     1      -2.471   3.497   0.895  0.00  0.00    +0.149 HD
BRANCH  19  22
ATOM     22  C   UNL     1      -3.926   4.934  -0.755  0.00  0.00    +0.324 C 
BRANCH  22  23
ATOM     23  O   UNL     1      -4.370   5.522  -1.980  0.00  0.00    -0.481 OA
BRANCH  23  24
ATOM     24  C   UNL     1      -5.462   6.330  -1.916  0.00  0.00    +0.140 A 
ATOM     25  C   UNL     1      -6.092   6.550  -0.701  0.00  0.00    +0.048 A 
ATOM     26  C   UNL     1      -7.202   7.371  -0.638  0.00  0.00    +0.023 A 
ATOM     27  C   UNL     1      -7.685   7.973  -1.786  0.00  0.00    +0.043 A 
ATOM     28  C   UNL     1      -7.058   7.754  -3.000  0.00  0.00    +0.043 A 
ATOM     29  C   UNL     1      -5.944   6.938  -3.066  0.00  0.00    +0.084 A 
ATOM     30 CL   UNL     1      -5.153   6.670  -4.588  0.00  0.00    -0.080 Cl
ATOM     31 CL   UNL     1      -9.079   9.004  -1.704  0.00  0.00    -0.083 Cl
ENDBRANCH  23  24
ENDBRANCH  22  23
ENDBRANCH  19  22
ENDBRANCH  17  18
ENDBRANCH   1  17
TORSDOF 7
