REMARK  Name = ZINC07673748
REMARK  5 active torsions:
REMARK  status: ('A' for Active; 'I' for Inactive)
REMARK    1  A    between atoms: C_1  and  C_2
REMARK    2  A    between atoms: C_4  and  C_7
REMARK    3  A    between atoms: C_7  and  S_8
REMARK    4  A    between atoms: S_8  and  C_9
REMARK    5  A    between atoms: C_21  and  C_25
REMARK                            x       y       z     vdW  Elec       q    Type
REMARK                         _______ _______ _______ _____ _____    ______ ____
ROOT
ATOM      1  C   UNL     1      -3.074  -2.610   1.069  0.00  0.00    +0.170 A 
ATOM      2  N   UNL     1      -3.329  -1.275   1.159  0.00  0.00    -0.301 N 
ATOM      3  H   UNL     1      -4.232  -0.982   1.472  0.00  0.00    +0.171 HD
ATOM      4  C   UNL     1      -2.416  -0.327   0.843  0.00  0.00    +0.261 A 
ATOM      5  O   UNL     1      -2.662   0.864   0.930  0.00  0.00    -0.267 OA
ATOM      6  C   UNL     1      -1.141  -0.809   0.399  0.00  0.00    +0.075 A 
ATOM      7  C   UNL     1       0.002  -0.004   0.002  0.00  0.00    -0.023 A 
ATOM      8  C   UNL     1       1.111  -0.674  -0.385  0.00  0.00    -0.004 A 
ATOM      9  S   UNL     1       0.691  -2.393  -0.241  0.00  0.00    -0.073 S 
ATOM     10  C   UNL     1      -0.967  -2.211   0.337  0.00  0.00    +0.117 A 
ATOM     11  N   UNL     1      -1.906  -3.090   0.662  0.00  0.00    -0.216 NA
ATOM     12  C   UNL     1       2.413  -0.088  -0.839  0.00  0.00    +0.046 C 
ATOM     13  C   UNL     1       2.193   1.397  -1.157  0.00  0.00    -0.009 C 
ATOM     14  C   UNL     1       1.421   2.037  -0.001  0.00  0.00    +0.008 C 
ATOM     15  C   UNL     1      -0.019   1.522   0.010  0.00  0.00    +0.037 C 
ATOM     16  C   UNL     1       3.546   2.092  -1.322  0.00  0.00    +0.008 C 
ENDROOT
BRANCH   1  17
ATOM     17  S   UNL     1      -4.347  -3.745   1.510  0.00  0.00    -0.081 S 
BRANCH  17  18
ATOM     18  C   UNL     1      -3.490  -5.311   1.210  0.00  0.00    +0.136 C 
BRANCH  18  22
ATOM     19  C   UNL     1      -6.043  -9.045   3.542  0.00  0.00    +0.089 C 
ATOM     20  C   UNL     1      -5.497  -8.054   2.546  0.00  0.00    +0.134 A 
ATOM     21  C   UNL     1      -4.556  -7.108   2.776  0.00  0.00    +0.071 A 
ATOM     22  C   UNL     1      -4.413  -6.458   1.529  0.00  0.00    +0.094 A 
ATOM     23  N   UNL     1      -5.233  -7.051   0.710  0.00  0.00    -0.082 NA
ATOM     24  O   UNL     1      -5.843  -7.940   1.256  0.00  0.00    -0.360 OA
ENDBRANCH  18  22
ENDBRANCH  17  18
ENDBRANCH   1  17
TORSDOF 3
