REMARK  Name = ZINC34889350
REMARK  9 active torsions:
REMARK  status: ('A' for Active; 'I' for Inactive)
REMARK    1  A    between atoms: C_1  and  C_2
REMARK    2  A    between atoms: C_5  and  C_7
REMARK    3  A    between atoms: C_10  and  C_12
REMARK    4  A    between atoms: C_12  and  N_13
REMARK    5  A    between atoms: N_13  and  C_14
REMARK    6  A    between atoms: N_13  and  C_15
REMARK    7  A    between atoms: C_15  and  C_16
REMARK    8  A    between atoms: C_18  and  O_19
REMARK    9  A    between atoms: C_28  and  C_30
REMARK                            x       y       z     vdW  Elec       q    Type
REMARK                         _______ _______ _______ _____ _____    ______ ____
ROOT
ATOM      1  C   UNL     1      -3.958  -6.979  -0.573  0.00  0.00    -0.047 A 
ATOM      2  C   UNL     1      -5.110  -7.041   0.184  0.00  0.00    +0.090 A 
ATOM      3  C   UNL     1      -6.345  -6.851  -0.419  0.00  0.00    +0.285 A 
ATOM      4  O   UNL     1      -6.450  -6.606  -1.730  0.00  0.00    -0.425 OA
ATOM      5  C   UNL     1      -5.356  -6.535  -2.516  0.00  0.00    +0.141 A 
ATOM      6  C   UNL     1      -4.072  -6.715  -1.954  0.00  0.00    +0.019 A 
ATOM      7  C   UNL     1      -2.929  -6.636  -2.770  0.00  0.00    +0.013 A 
ATOM      8  C   UNL     1      -3.060  -6.381  -4.098  0.00  0.00    +0.024 A 
ATOM      9  C   UNL     1      -4.333  -6.195  -4.665  0.00  0.00    +0.037 A 
ATOM     10  C   UNL     1      -5.478  -6.281  -3.870  0.00  0.00    +0.070 A 
ATOM     11  N   UNL     1      -4.451  -5.940  -5.997  0.00  0.00    -0.286 N 
ATOM     12  C   UNL     1      -5.580  -5.457  -6.478  0.00  0.00    +0.214 C 
ATOM     13  O   UNL     1      -6.473  -5.125  -5.720  0.00  0.00    -0.276 OA
ATOM     14  C   UNL     1      -5.764  -5.316  -7.967  0.00  0.00    +0.109 C 
ATOM     15  H   UNL     1      -3.705  -6.113  -6.591  0.00  0.00    +0.155 HD
ENDROOT
BRANCH   3  16
ATOM     16  O   UNL     1      -7.462  -6.914   0.331  0.00  0.00    -0.480 OA
ATOM     17  H   UNL     1      -8.279  -6.770  -0.167  0.00  0.00    +0.295 HD
ENDBRANCH   3  16
BRANCH   1  18
ATOM     18  C   UNL     1      -2.607  -7.182   0.062  0.00  0.00    -0.042 C 
BRANCH  18  19
ATOM     19  N   UNL     1      -2.135  -5.911   0.628  0.00  0.00    +0.385 N 
ATOM     20  C   UNL     1      -3.023  -5.504   1.725  0.00  0.00    -0.095 C 
ATOM     21  H   UNL     1      -2.139  -5.202  -0.090  0.00  0.00    -0.081 HD
BRANCH  19  22
ATOM     22  C   UNL     1      -0.769  -6.081   1.141  0.00  0.00    -0.003 C 
BRANCH  22  26
ATOM     23  C   UNL     1       0.751  -2.792   1.603  0.00  0.00    +0.108 A 
ATOM     24  C   UNL     1       0.277  -2.985   2.846  0.00  0.00    +0.045 A 
ATOM     25  C   UNL     1      -0.362  -4.247   2.851  0.00  0.00    +0.043 A 
ATOM     26  C   UNL     1      -0.239  -4.750   1.609  0.00  0.00    +0.089 A 
ATOM     27  O   UNL     1       0.430  -3.862   0.856  0.00  0.00    -0.466 OA
BRANCH  23  31
ATOM     28  C   UNL     1       1.092   0.748   0.005  0.00  0.00    +0.008 C 
ATOM     29  C   UNL     1       0.895  -0.770  -0.019  0.00  0.00    -0.003 C 
ATOM     30  C   UNL     1       2.129  -1.638  -0.272  0.00  0.00    +0.015 C 
ATOM     31  C   UNL     1       1.507  -1.579   1.126  0.00  0.00    +0.058 C 
ENDBRANCH  23  31
ENDBRANCH  22  26
ENDBRANCH  19  22
ENDBRANCH  18  19
ENDBRANCH   1  18
TORSDOF 6
