REMARK  Name = ZINC67054424
REMARK  6 active torsions:
REMARK  status: ('A' for Active; 'I' for Inactive)
REMARK    1  A    between atoms: C_1  and  C_2
REMARK    2  A    between atoms: C_2  and  C_3
REMARK    3  A    between atoms: C_9  and  C_11
REMARK    4  A    between atoms: C_15  and  N_17
REMARK    5  A    between atoms: C_18  and  C_20
REMARK    6  A    between atoms: C_23  and  C_25
REMARK                            x       y       z     vdW  Elec       q    Type
REMARK                         _______ _______ _______ _____ _____    ______ ____
ROOT
ATOM      1  C   UNL     1      -0.205  -1.319  -4.702  0.00  0.00    +0.019 A 
ATOM      2  C   UNL     1       0.442  -1.595  -5.909  0.00  0.00    +0.011 A 
ATOM      3  C   UNL     1      -0.259  -1.541  -7.096  0.00  0.00    +0.002 A 
ATOM      4  C   UNL     1      -1.602  -1.214  -7.096  0.00  0.00    +0.023 A 
ATOM      5  C   UNL     1      -2.256  -0.937  -5.902  0.00  0.00    +0.034 A 
ATOM      6  C   UNL     1      -1.562  -0.994  -4.703  0.00  0.00    +0.034 A 
ENDROOT
BRANCH   1  13
ATOM      7  C   UNL     1       0.553  -1.159  -1.130  0.00  0.00    +0.048 A 
ATOM      8  C   UNL     1       1.879  -1.472  -1.082  0.00  0.00    +0.093 A 
ATOM      9  C   UNL     1       2.557  -1.750  -2.285  0.00  0.00    +0.252 A 
ATOM     10  O   UNL     1       3.744  -2.034  -2.280  0.00  0.00    -0.268 OA
ATOM     11  N   UNL     1       1.868  -1.695  -3.445  0.00  0.00    -0.307 N 
ATOM     12  H   UNL     1       2.313  -1.883  -4.286  0.00  0.00    +0.170 HD
ATOM     13  C   UNL     1       0.543  -1.376  -3.429  0.00  0.00    +0.141 A 
ATOM     14  N   UNL     1      -0.084  -1.123  -2.299  0.00  0.00    -0.234 NA
BRANCH   7  16
ATOM     15  C   UNL     1      -0.226   0.654   0.372  0.00  0.00    +0.010 C 
ATOM     16  C   UNL     1      -0.196  -0.859   0.143  0.00  0.00    +0.052 C 
ENDBRANCH   7  16
ENDBRANCH   1  13
BRANCH   5  17
ATOM     17  N   UNL     1      -3.615  -0.606  -5.908  0.00  0.00    -0.285 N 
ATOM     18  C   UNL     1      -4.439  -1.159  -6.820  0.00  0.00    +0.221 C 
ATOM     19  O   UNL     1      -4.023  -2.014  -7.573  0.00  0.00    -0.275 OA
ATOM     20  H   UNL     1      -3.965   0.021  -5.256  0.00  0.00    +0.155 HD
BRANCH  18  21
ATOM     21  C   UNL     1      -5.877  -0.715  -6.905  0.00  0.00    +0.083 C 
ATOM     22  C   UNL     1      -6.302   0.069  -8.148  0.00  0.00    +0.022 C 
ATOM     23  C   UNL     1      -6.760  -1.379  -7.962  0.00  0.00    +0.032 C 
BRANCH  23  24
ATOM     24  C   UNL     1      -6.127  -2.428  -8.840  0.00  0.00    -0.041 A 
ATOM     25  C   UNL     1      -5.045  -2.100  -9.636  0.00  0.00    +0.004 A 
ATOM     26  C   UNL     1      -4.462  -3.061 -10.442  0.00  0.00    +0.003 A 
ATOM     27  C   UNL     1      -4.961  -4.350 -10.453  0.00  0.00    +0.038 A 
ATOM     28  C   UNL     1      -6.044  -4.679  -9.656  0.00  0.00    +0.124 A 
ATOM     29  C   UNL     1      -6.623  -3.717  -8.845  0.00  0.00    +0.042 A 
ATOM     30  F   UNL     1      -6.533  -5.938  -9.666  0.00  0.00    -0.205 F 
ENDBRANCH  23  24
ENDBRANCH  18  21
ENDBRANCH   5  17
TORSDOF 5
