REMARK  Name = ZINC26743380
REMARK  11 active torsions:
REMARK  status: ('A' for Active; 'I' for Inactive)
REMARK    1  A    between atoms: C_1  and  C_2
REMARK    2  A    between atoms: C_3  and  C_7
REMARK    3  A    between atoms: N_9  and  N_10
REMARK    4  A    between atoms: C_11  and  C_13
REMARK    5  A    between atoms: C_13  and  C_15
REMARK    6  A    between atoms: C_13  and  N_19
REMARK    7  A    between atoms: C_15  and  C_16
REMARK    8  A    between atoms: C_16  and  S_17
REMARK    9  A    between atoms: S_17  and  C_18
REMARK   10  A    between atoms: C_20  and  C_22
REMARK   11  A    between atoms: C_26  and  N_28
REMARK                            x       y       z     vdW  Elec       q    Type
REMARK                         _______ _______ _______ _____ _____    ______ ____
ROOT
ATOM      1  C   UNL     1      -2.501  -2.863   0.010  0.00  0.00    +0.161 C 
ENDROOT
BRANCH   1   3
ATOM      2  N   UNL     1      -3.300  -5.095  -0.700  0.00  0.00    -0.233 N 
ATOM      3  C   UNL     1      -2.276  -4.223  -0.600  0.00  0.00    +0.249 C 
ATOM      4  O   UNL     1      -1.175  -4.533  -1.002  0.00  0.00    -0.272 OA
ATOM      5  H   UNL     1      -4.299  -4.814  -0.336  0.00  0.00    +0.173 HD
BRANCH   2   8
ATOM      6  C   UNL     1      -4.114  -7.230  -1.366  0.00  0.00    +0.263 C 
ATOM      7  O   UNL     1      -5.218  -6.920  -0.964  0.00  0.00    -0.269 OA
ATOM      8  N   UNL     1      -3.091  -6.359  -1.267  0.00  0.00    -0.230 N 
ATOM      9  H   UNL     1      -2.091  -6.639  -1.631  0.00  0.00    +0.173 HD
BRANCH   6  12
ATOM     10  C   UNL     1      -6.270  -9.477  -1.743  0.00  0.00    +0.087 C 
ATOM     11  C   UNL     1      -4.817  -9.549  -2.135  0.00  0.00    +0.114 A 
ATOM     12  C   UNL     1      -3.894  -8.560  -1.962  0.00  0.00    +0.079 A 
ATOM     13  C   UNL     1      -2.635  -9.095  -2.502  0.00  0.00    +0.054 A 
ATOM     14  C   UNL     1      -2.915 -10.335  -2.930  0.00  0.00    +0.196 A 
ATOM     15  O   UNL     1      -4.213 -10.594  -2.711  0.00  0.00    -0.467 OA
ENDBRANCH   6  12
ENDBRANCH   2   8
ENDBRANCH   1   3
BRANCH   1  16
ATOM     16  N   UNL     1      -1.244  -2.111   0.002  0.00  0.00    -0.300 N 
ATOM     17  C   UNL     1      -1.266  -0.763   0.010  0.00  0.00    +0.245 C 
ATOM     18  O   UNL     1      -2.328  -0.172   0.022  0.00  0.00    -0.270 OA
ATOM     19  H   UNL     1      -0.283  -2.646  -0.010  0.00  0.00    +0.150 HD
BRANCH  17  20
ATOM     20  C   UNL     1       0.002  -0.004   0.002  0.00  0.00    +0.039 A 
ATOM     21  C   UNL     1       1.224  -0.680  -0.013  0.00  0.00    +0.014 A 
ATOM     22  C   UNL     1       2.403   0.034  -0.021  0.00  0.00    +0.023 A 
ATOM     23  C   UNL     1       2.378   1.419  -0.013  0.00  0.00    +0.071 A 
ATOM     24  C   UNL     1       1.170   2.095   0.002  0.00  0.00    +0.145 A 
ATOM     25  C   UNL     1      -0.017   1.392   0.010  0.00  0.00    +0.047 A 
ATOM     26 CL   UNL     1       3.868   2.310  -0.024  0.00  0.00    -0.081 Cl
BRANCH  24  27
ATOM     27  N   UNL     1       1.151   3.575   0.010  0.00  0.00    +0.058 N 
ATOM     28  O   UNL     1       0.089   4.171   0.024  0.00  0.00    -0.126 OA
ATOM     29  O   UNL     1       2.199   4.197   0.004  0.00  0.00    -0.126 OA
ENDBRANCH  24  27
ENDBRANCH  17  20
ENDBRANCH   1  16
BRANCH   1  30
ATOM     30  C   UNL     1      -2.990  -3.025   1.450  0.00  0.00    +0.042 C 
BRANCH  30  31
ATOM     31  C   UNL     1      -3.337  -1.652   2.028  0.00  0.00    +0.071 C 
BRANCH  31  32
ATOM     32  S   UNL     1      -3.917  -1.844   3.736  0.00  0.00    -0.164 S 
ATOM     33  C   UNL     1      -4.282  -0.148   4.269  0.00  0.00    +0.084 C 
ENDBRANCH  31  32
ENDBRANCH  30  31
ENDBRANCH   1  30
TORSDOF 9
