REMARK  Name = ZINC47146951
REMARK  6 active torsions:
REMARK  status: ('A' for Active; 'I' for Inactive)
REMARK    1  A    between atoms: C_1  and  C_2
REMARK    2  A    between atoms: C_7  and  C_8
REMARK    3  A    between atoms: C_8  and  O_9
REMARK    4  A    between atoms: O_9  and  C_10
REMARK    5  A    between atoms: C_15  and  C_16
REMARK    6  A    between atoms: N_32  and  C_35
REMARK                            x       y       z     vdW  Elec       q    Type
REMARK                         _______ _______ _______ _____ _____    ______ ____
ROOT
ATOM      1  C   UNL     1       0.094  -2.720   5.737  0.00  0.00    +0.075 C 
ATOM      2  C   UNL     1       1.413  -3.234   6.187  0.00  0.00    +0.033 A 
ATOM      3  C   UNL     1       1.680  -4.291   6.976  0.00  0.00    +0.088 A 
ATOM      4  N   UNL     1       3.019  -4.533   7.186  0.00  0.00    -0.311 N 
ATOM      5  H   UNL     1       3.295  -5.288   7.728  0.00  0.00    +0.170 HD
ATOM      6  C   UNL     1       3.944  -3.723   6.641  0.00  0.00    +0.289 A 
ATOM      7  O   UNL     1       5.157  -3.792   6.732  0.00  0.00    -0.260 OA
ATOM      8  S   UNL     1       3.023  -2.593   5.802  0.00  0.00    -0.030 S 
ATOM      9  S   UNL     1       0.377  -5.257   7.693  0.00  0.00    -0.093 S 
ATOM     10  C   UNL     1      -1.091  -4.802   6.716  0.00  0.00    +0.152 C 
ATOM     11  C   UNL     1      -1.084  -3.296   6.425  0.00  0.00    +0.110 C 
ATOM     12  C   UNL     1      -1.551  -2.689   7.711  0.00  0.00    +0.232 C 
ATOM     13  O   UNL     1      -1.296  -1.580   8.129  0.00  0.00    -0.274 OA
ATOM     14  N   UNL     1      -2.316  -3.631   8.310  0.00  0.00    -0.209 N 
ATOM     15  C   UNL     1      -2.268  -4.838   7.707  0.00  0.00    +0.240 C 
ATOM     16  O   UNL     1      -3.006  -5.777   7.913  0.00  0.00    -0.274 OA
ENDROOT
BRANCH   1  22
ATOM     17  C   UNL     1      -0.557  -0.408   5.016  0.00  0.00    +0.125 A 
ATOM     18  C   UNL     1      -0.577   0.966   5.208  0.00  0.00    +0.046 A 
ATOM     19  C   UNL     1       0.036   1.516   6.317  0.00  0.00    +0.004 A 
ATOM     20  C   UNL     1       0.670   0.698   7.235  0.00  0.00    +0.001 A 
ATOM     21  C   UNL     1       0.692  -0.671   7.045  0.00  0.00    +0.008 A 
ATOM     22  C   UNL     1       0.075  -1.226   5.940  0.00  0.00    +0.003 A 
BRANCH  17  23
ATOM     23  O   UNL     1      -1.160  -0.951   3.925  0.00  0.00    -0.487 OA
BRANCH  23  24
ATOM     24  C   UNL     1      -1.791  -0.048   3.016  0.00  0.00    +0.264 C 
BRANCH  24  31
ATOM     25  C   UNL     1      -3.189   1.341   0.903  0.00  0.00    +0.044 C 
ATOM     26  C   UNL     1      -3.070  -0.161   0.867  0.00  0.00    -0.044 A 
ATOM     27  C   UNL     1      -3.624  -0.873  -0.180  0.00  0.00    +0.004 A 
ATOM     28  C   UNL     1      -3.515  -2.251  -0.213  0.00  0.00    +0.000 A 
ATOM     29  C   UNL     1      -2.850  -2.916   0.801  0.00  0.00    +0.000 A 
ATOM     30  C   UNL     1      -2.295  -2.203   1.847  0.00  0.00    +0.007 A 
ATOM     31  C   UNL     1      -2.401  -0.825   1.878  0.00  0.00    -0.007 A 
ENDBRANCH  24  31
ENDBRANCH  23  24
ENDBRANCH  17  23
ENDBRANCH   1  22
BRANCH  14  32
ATOM     32  C   UNL     1      -3.096  -3.374   9.447  0.00  0.00    +0.044 A 
ATOM     33  C   UNL     1      -3.111  -2.103  10.007  0.00  0.00    +0.024 A 
ATOM     34  C   UNL     1      -3.880  -1.853  11.127  0.00  0.00    +0.002 A 
ATOM     35  C   UNL     1      -4.634  -2.866  11.690  0.00  0.00    +0.000 A 
ATOM     36  C   UNL     1      -4.621  -4.132  11.134  0.00  0.00    +0.002 A 
ATOM     37  C   UNL     1      -3.858  -4.387  10.011  0.00  0.00    +0.024 A 
ENDBRANCH  14  32
TORSDOF 5
