REMARK  Name = ZINC04733818
REMARK  4 active torsions:
REMARK  status: ('A' for Active; 'I' for Inactive)
REMARK    1  A    between atoms: C_1  and  N_2
REMARK    2  A    between atoms: N_15  and  N_16
REMARK    3  A    between atoms: C_17  and  C_18
REMARK    4  A    between atoms: C_23  and  O_24
REMARK                            x       y       z     vdW  Elec       q    Type
REMARK                         _______ _______ _______ _____ _____    ______ ____
ROOT
ATOM      1  C   UNL     1      -0.018   1.461   0.010  0.00  0.00    +0.151 C 
ATOM      2  N   UNL     1       0.002  -0.004   0.002  0.00  0.00    -0.326 N 
ATOM      3  C   UNL     1       0.007  -0.789  -1.140  0.00  0.00    +0.053 A 
ATOM      4  C   UNL     1      -0.003  -0.470  -2.494  0.00  0.00    +0.027 A 
ATOM      5  C   UNL     1       0.007  -1.474  -3.440  0.00  0.00    +0.017 A 
ATOM      6  C   UNL     1       0.027  -2.806  -3.055  0.00  0.00    +0.019 A 
ATOM      7  C   UNL     1       0.037  -3.141  -1.717  0.00  0.00    +0.027 A 
ATOM      8  C   UNL     1       0.028  -2.137  -0.752  0.00  0.00    +0.030 A 
ATOM      9  C   UNL     1       0.035  -2.145   0.721  0.00  0.00    +0.138 A 
ATOM     10  C   UNL     1       0.024  -0.794   1.125  0.00  0.00    +0.165 A 
ATOM     11  N   UNL     1       0.033  -0.524   2.427  0.00  0.00    -0.192 NA
ATOM     12  C   UNL     1       0.056  -1.526   3.296  0.00  0.00    +0.256 A 
ATOM     13  N   UNL     1       0.070  -2.791   2.891  0.00  0.00    -0.111 NA
ATOM     14  N   UNL     1       0.053  -3.099   1.640  0.00  0.00    -0.142 NA
ATOM     15  N   UNL     1       0.066  -1.247   4.652  0.00  0.00    -0.204 N 
ATOM     16 BR   UNL     1       0.040  -4.167  -4.368  0.00  0.00    -0.050 Br
ATOM     17  H   UNL     1       0.057  -0.326   4.958  0.00  0.00    +0.177 HD
ENDROOT
BRANCH  15  18
ATOM     18  N   UNL     1       0.090  -2.294   5.583  0.00  0.00    -0.187 NA
ATOM     19  C   UNL     1       0.100  -2.033   6.854  0.00  0.00    +0.142 C 
BRANCH  19  20
ATOM     20  C   UNL     1       0.125  -3.134   7.833  0.00  0.00    +0.036 A 
ATOM     21  C   UNL     1       0.129  -2.858   9.202  0.00  0.00    +0.013 A 
ATOM     22  C   UNL     1       0.153  -3.893  10.113  0.00  0.00    +0.001 A 
ATOM     23  C   UNL     1       0.172  -5.207   9.675  0.00  0.00    +0.004 A 
ATOM     24  C   UNL     1       0.169  -5.494   8.323  0.00  0.00    +0.046 A 
ATOM     25  C   UNL     1       0.139  -4.466   7.395  0.00  0.00    +0.125 A 
BRANCH  25  26
ATOM     26  O   UNL     1       0.129  -4.747   6.066  0.00  0.00    -0.506 OA
ATOM     27  H   UNL     1       1.009  -4.816   5.672  0.00  0.00    +0.292 HD
ENDBRANCH  25  26
ENDBRANCH  19  20
ENDBRANCH  15  18
TORSDOF 3
