REMARK  Name = ZINC38627260
REMARK  9 active torsions:
REMARK  status: ('A' for Active; 'I' for Inactive)
REMARK    1  A    between atoms: C_1  and  C_2
REMARK    2  A    between atoms: C_2  and  C_4
REMARK    3  A    between atoms: C_2  and  N_23
REMARK    4  A    between atoms: N_6  and  C_7
REMARK    5  A    between atoms: C_11  and  O_21
REMARK    6  A    between atoms: C_15  and  C_17
REMARK    7  A    between atoms: C_17  and  O_19
REMARK    8  A    between atoms: O_19  and  C_20
REMARK    9  A    between atoms: O_21  and  C_22
REMARK                            x       y       z     vdW  Elec       q    Type
REMARK                         _______ _______ _______ _____ _____    ______ ____
ROOT
ATOM      1  C   UNL     1       0.666  -0.335  -1.311  0.00  0.00    +0.203 C 
ATOM      2  O   UNL     1       1.760  -0.835  -1.157  0.00  0.00    -0.277 OA
ATOM      3  N   UNL     1       0.161  -0.190  -2.552  0.00  0.00    -0.288 N 
ATOM      4  H   UNL     1      -0.735   0.163  -2.672  0.00  0.00    +0.155 HD
ENDROOT
BRANCH   3   5
ATOM      5  C   UNL     1       0.908  -0.539  -3.637  0.00  0.00    +0.053 C 
ATOM      6  C   UNL     1       0.660  -0.216  -4.958  0.00  0.00    +0.018 A 
ATOM      7  C   UNL     1      -0.373   0.527  -5.581  0.00  0.00    +0.015 A 
ATOM      8  C   UNL     1      -0.368   0.690  -6.925  0.00  0.00    +0.046 A 
ATOM      9  C   UNL     1       0.642   0.136  -7.728  0.00  0.00    +0.122 A 
ATOM     10  C   UNL     1       1.664  -0.589  -7.195  0.00  0.00    +0.071 A 
ATOM     11  C   UNL     1       1.723  -0.799  -5.796  0.00  0.00    +0.048 A 
ATOM     12  N   UNL     1       2.592  -1.452  -5.048  0.00  0.00    -0.367 N 
ATOM     13  C   UNL     1       2.182  -1.353  -3.644  0.00  0.00    +0.234 C 
ATOM     14  H   UNL     1       3.377  -1.919  -5.375  0.00  0.00    +0.161 HD
BRANCH  13  15
ATOM     15  C   UNL     1       1.923  -2.728  -3.084  0.00  0.00    +0.335 C 
ATOM     16  O   UNL     1       1.810  -3.672  -3.830  0.00  0.00    -0.248 OA
BRANCH  15  17
ATOM     17  O   UNL     1       1.816  -2.904  -1.758  0.00  0.00    -0.466 OA
ATOM     18  C   UNL     1       1.570  -4.234  -1.297  0.00  0.00    +0.280 C 
ENDBRANCH  15  17
ENDBRANCH  13  15
BRANCH   9  19
ATOM     19  O   UNL     1       0.598   0.328  -9.070  0.00  0.00    -0.495 OA
ATOM     20  C   UNL     1      -0.494   1.095  -9.580  0.00  0.00    +0.277 C 
ENDBRANCH   9  19
ENDBRANCH   3   5
BRANCH   1  22
ATOM     21  C   UNL     1      -0.401   1.625  -0.230  0.00  0.00    -0.004 C 
ATOM     22  C   UNL     1      -0.128   0.124  -0.115  0.00  0.00    +0.017 C 
BRANCH  22  23
ATOM     23  N   UNL     1       0.636  -0.143   1.111  0.00  0.00    +0.390 N 
ATOM     24  C   UNL     1       0.889  -1.587   1.229  0.00  0.00    -0.073 C 
ATOM     25  C   UNL     1       1.931  -1.811   2.326  0.00  0.00    +0.017 C 
ATOM     26  C   UNL     1       1.517  -1.084   3.580  0.00  0.00    -0.048 A 
ATOM     27  C   UNL     1       2.123  -1.427   4.778  0.00  0.00    +0.004 A 
ATOM     28  C   UNL     1       1.771  -0.781   5.947  0.00  0.00    +0.000 A 
ATOM     29  C   UNL     1       0.810   0.213   5.920  0.00  0.00    +0.000 A 
ATOM     30  C   UNL     1       0.205   0.554   4.727  0.00  0.00    +0.002 A 
ATOM     31  C   UNL     1       0.556  -0.095   3.553  0.00  0.00    -0.061 A 
ATOM     32  C   UNL     1      -0.135   0.303   2.276  0.00  0.00    -0.042 C 
ATOM     33  H   UNL     1       1.514   0.354   1.077  0.00  0.00    -0.080 HD
ENDBRANCH  22  23
ENDBRANCH   1  22
TORSDOF 6
