REMARK  Name = ZINC35926540
REMARK  12 active torsions:
REMARK  status: ('A' for Active; 'I' for Inactive)
REMARK    1  A    between atoms: C_1  and  C_2
REMARK    2  A    between atoms: C_2  and  C_3
REMARK    3  A    between atoms: C_3  and  C_4
REMARK    4  A    between atoms: C_4  and  C_5
REMARK    5  A    between atoms: C_5  and  C_7
REMARK    6  A    between atoms: C_5  and  C_9
REMARK    7  A    between atoms: C_7  and  C_8
REMARK    8  A    between atoms: C_23  and  C_25
REMARK    9  A    between atoms: C_25  and  N_26
REMARK   10  A    between atoms: N_29  and  C_32
REMARK   11  A    between atoms: C_36  and  O_38
REMARK   12  A    between atoms: O_38  and  C_39
REMARK                            x       y       z     vdW  Elec       q    Type
REMARK                         _______ _______ _______ _____ _____    ______ ____
ROOT
ATOM      1  C   UNL     1      -2.712  -4.200  -2.177  0.00  0.00    +0.219 C 
ATOM      2  O   UNL     1      -2.577  -3.005  -2.330  0.00  0.00    -0.275 OA
ATOM      3  N   UNL     1      -3.946  -4.741  -2.155  0.00  0.00    -0.298 N 
ATOM      4  C   UNL     1      -4.123  -6.198  -2.074  0.00  0.00    +0.127 C 
ATOM      5  C   UNL     1      -5.011  -6.518  -0.866  0.00  0.00    +0.127 C 
ATOM      6  N   UNL     1      -6.205  -5.662  -0.920  0.00  0.00    -0.298 N 
ATOM      7  C   UNL     1      -6.028  -4.205  -1.000  0.00  0.00    +0.127 C 
ATOM      8  C   UNL     1      -5.140  -3.885  -2.203  0.00  0.00    +0.127 C 
ATOM      9  C   UNL     1      -7.458  -6.212  -0.897  0.00  0.00    +0.198 A 
ATOM     10  N   UNL     1      -7.596  -7.554  -0.722  0.00  0.00    -0.295 N 
ATOM     11  H   UNL     1      -6.812  -8.114  -0.614  0.00  0.00    +0.172 HD
ATOM     12  C   UNL     1      -8.830  -8.103  -0.697  0.00  0.00    +0.253 A 
ATOM     13  O   UNL     1      -8.972  -9.305  -0.540  0.00  0.00    -0.268 OA
ATOM     14  C   UNL     1      -9.947  -7.264  -0.855  0.00  0.00    +0.091 A 
ATOM     15  C   UNL     1      -9.746  -5.925  -1.028  0.00  0.00    +0.034 A 
ATOM     16  N   UNL     1      -8.511  -5.431  -1.040  0.00  0.00    -0.223 NA
ENDROOT
BRANCH   1  17
ATOM     17  C   UNL     1      -1.500  -5.080  -2.013  0.00  0.00    +0.075 C 
BRANCH  17  18
ATOM     18  C   UNL     1      -0.386  -4.291  -1.323  0.00  0.00    +0.009 C 
ATOM     19  C   UNL     1      -0.818  -3.939   0.102  0.00  0.00    +0.004 C 
ENDBRANCH  17  18
BRANCH  17  20
ATOM     20  C   UNL     1      -1.019  -5.547  -3.388  0.00  0.00    +0.013 C 
BRANCH  20  21
ATOM     21  C   UNL     1       0.133  -6.539  -3.216  0.00  0.00    +0.000 C 
BRANCH  21  23
ATOM     22  C   UNL     1       1.767  -7.997  -4.418  0.00  0.00    +0.004 C 
ATOM     23  C   UNL     1       0.615  -7.005  -4.591  0.00  0.00    -0.003 C 
ENDBRANCH  21  23
ENDBRANCH  20  21
ENDBRANCH  17  20
ENDBRANCH   1  17
BRANCH  15  24
ATOM     24  C   UNL     1     -10.927  -5.004  -1.200  0.00  0.00    -0.022 C 
BRANCH  24  25
ATOM     25  N   UNL     1     -10.997  -4.080  -0.060  0.00  0.00    +0.385 N 
ATOM     26  C   UNL     1     -11.261  -4.841   1.168  0.00  0.00    -0.059 C 
ATOM     27  C   UNL     1     -11.221  -3.894   2.373  0.00  0.00    +0.086 C 
ATOM     28  N   UNL     1     -12.161  -2.790   2.129  0.00  0.00    -0.333 N 
ATOM     29  C   UNL     1     -12.074  -2.075   0.846  0.00  0.00    +0.086 C 
ATOM     30  C   UNL     1     -12.073  -3.107  -0.286  0.00  0.00    -0.059 C 
ATOM     31  H   UNL     1     -10.118  -3.593   0.031  0.00  0.00    -0.081 HD
BRANCH  28  32
ATOM     32  C   UNL     1     -13.110  -2.430   3.088  0.00  0.00    +0.033 A 
ATOM     33  C   UNL     1     -13.107  -3.044   4.335  0.00  0.00    +0.023 A 
ATOM     34  C   UNL     1     -14.046  -2.688   5.284  0.00  0.00    +0.005 A 
ATOM     35  C   UNL     1     -14.990  -1.721   4.996  0.00  0.00    +0.046 A 
ATOM     36  C   UNL     1     -14.999  -1.104   3.752  0.00  0.00    +0.122 A 
ATOM     37  C   UNL     1     -14.055  -1.455   2.799  0.00  0.00    +0.068 A 
BRANCH  36  38
ATOM     38  O   UNL     1     -15.928  -0.154   3.471  0.00  0.00    -0.495 OA
ATOM     39  C   UNL     1     -16.866   0.161   4.502  0.00  0.00    +0.277 C 
ENDBRANCH  36  38
ENDBRANCH  28  32
ENDBRANCH  24  25
ENDBRANCH  15  24
TORSDOF 9
