REMARK  Name = ZINC37403011
REMARK  12 active torsions:
REMARK  status: ('A' for Active; 'I' for Inactive)
REMARK    1  A    between atoms: C_5  and  C_7
REMARK    2  A    between atoms: C_7  and  O_8
REMARK    3  A    between atoms: O_8  and  C_9
REMARK    4  A    between atoms: C_9  and  C_30
REMARK    5  A    between atoms: C_11  and  O_29
REMARK    6  A    between atoms: C_13  and  O_28
REMARK    7  A    between atoms: C_15  and  O_18
REMARK    8  A    between atoms: O_18  and  C_19
REMARK    9  A    between atoms: C_19  and  C_20
REMARK   10  A    between atoms: C_23  and  C_26
REMARK   11  A    between atoms: N_32  and  C_33
REMARK   12  A    between atoms: C_33  and  C_34
REMARK                            x       y       z     vdW  Elec       q    Type
REMARK                         _______ _______ _______ _____ _____    ______ ____
ROOT
ATOM      1  C   UNL     1      -0.309  -4.087   0.033  0.00  0.00    +0.150 C 
ATOM      2  C   UNL     1       0.197  -4.713   1.334  0.00  0.00    +0.078 C 
ATOM      3  C   UNL     1      -0.502  -4.053   2.523  0.00  0.00    +0.149 C 
ATOM      4  C   UNL     1      -2.013  -4.265   2.409  0.00  0.00    +0.172 C 
ATOM      5  C   UNL     1      -2.519  -3.639   1.108  0.00  0.00    +0.153 C 
ATOM      6  C   UNL     1      -1.820  -4.300  -0.081  0.00  0.00    +0.079 C 
ENDROOT
BRANCH   1   7
ATOM      7  C   UNL     1       0.380  -4.739  -1.139  0.00  0.00    +0.245 C 
ATOM      8  O   UNL     1      -0.150  -5.665  -1.715  0.00  0.00    -0.273 OA
ATOM      9  N   UNL     1       1.584  -4.291  -1.547  0.00  0.00    -0.310 N 
ATOM     10  H   UNL     1       1.978  -3.510  -1.128  0.00  0.00    +0.149 HD
BRANCH   9  11
ATOM     11  C   UNL     1       2.297  -4.984  -2.622  0.00  0.00    +0.135 C 
BRANCH  11  12
ATOM     12  C   UNL     1       3.629  -4.279  -2.889  0.00  0.00    +0.135 C 
ATOM     13  C   UNL     1       4.384  -4.976  -4.048  0.00  0.00    +0.035 C 
ATOM     14  C   UNL     1       5.277  -3.813  -4.560  0.00  0.00    +0.031 C 
ATOM     15  C   UNL     1       4.372  -2.582  -4.334  0.00  0.00    +0.160 C 
ATOM     16  O   UNL     1       3.399  -2.935  -3.343  0.00  0.00    -0.375 OA
ENDBRANCH  11  12
ENDBRANCH   9  11
ENDBRANCH   1   7
BRANCH   4  17
ATOM     17  O   UNL     1      -2.666  -3.647   3.521  0.00  0.00    -0.387 OA
ATOM     18  H   UNL     1      -2.393  -3.996   4.380  0.00  0.00    +0.210 HD
ENDBRANCH   4  17
BRANCH   3  19
ATOM     19  O   UNL     1      -0.216  -2.652   2.526  0.00  0.00    -0.389 OA
ATOM     20  H   UNL     1      -0.628  -2.168   3.255  0.00  0.00    +0.210 HD
ENDBRANCH   3  19
BRANCH   1  21
ATOM     21  O   UNL     1      -0.023  -2.687   0.035  0.00  0.00    -0.359 OA
BRANCH  21  22
ATOM     22  C   UNL     1      -0.486  -1.998  -1.127  0.00  0.00    +0.199 C 
BRANCH  22  27
ATOM     23  C   UNL     1       0.778   1.287   0.238  0.00  0.00    +0.001 A 
ATOM     24  C   UNL     1       0.424   2.162  -0.773  0.00  0.00    +0.003 A 
ATOM     25  C   UNL     1      -0.224   1.693  -1.899  0.00  0.00    +0.039 A 
ATOM     26  C   UNL     1      -0.520   0.345  -2.015  0.00  0.00    +0.129 A 
ATOM     27  C   UNL     1      -0.165  -0.530  -1.003  0.00  0.00    +0.013 A 
ATOM     28  C   UNL     1       0.484  -0.058   0.123  0.00  0.00    +0.009 A 
ATOM     29  F   UNL     1      -1.155  -0.116  -3.115  0.00  0.00    -0.205 F 
ENDBRANCH  22  27
ENDBRANCH  21  22
ENDBRANCH   1  21
BRANCH   5  30
ATOM     30  O   UNL     1      -3.930  -3.837   1.002  0.00  0.00    -0.369 OA
BRANCH  30  31
ATOM     31  C   UNL     1      -4.709  -2.789   1.581  0.00  0.00    +0.195 C 
BRANCH  31  32
ATOM     32  C   UNL     1      -6.174  -3.100   1.413  0.00  0.00    -0.022 A 
ATOM     33  C   UNL     1      -6.844  -2.667   0.282  0.00  0.00    +0.007 A 
ATOM     34  C   UNL     1      -8.185  -2.949   0.121  0.00  0.00    +0.019 A 
ATOM     35  C   UNL     1      -8.866  -3.672   1.102  0.00  0.00    +0.052 A 
ATOM     36  C   UNL     1      -8.184  -4.106   2.240  0.00  0.00    +0.019 A 
ATOM     37  C   UNL     1      -6.841  -3.822   2.386  0.00  0.00    +0.007 A 
BRANCH  35  38
ATOM     38  C   UNL     1     -10.258  -3.968   0.942  0.00  0.00    +0.099 C 
ATOM     39  N   UNL     1     -11.362  -4.202   0.815  0.00  0.00    -0.191 NA
ENDBRANCH  35  38
ENDBRANCH  31  32
ENDBRANCH  30  31
ENDBRANCH   5  30
TORSDOF 12
