REMARK  Name = ZINC15731222
REMARK  7 active torsions:
REMARK  status: ('A' for Active; 'I' for Inactive)
REMARK    1  A    between atoms: C_1  and  C_2
REMARK    2  A    between atoms: C_9  and  S_15
REMARK    3  A    between atoms: S_15  and  N_18
REMARK    4  A    between atoms: N_18  and  C_19
REMARK    5  A    between atoms: N_18  and  C_25
REMARK    6  A    between atoms: C_19  and  C_20
REMARK    7  A    between atoms: C_30  and  N_57
REMARK                            x       y       z     vdW  Elec       q    Type
REMARK                         _______ _______ _______ _____ _____    ______ ____
ROOT
ATOM      1  S   UNL     1      -2.789  -0.269  -2.091  0.00  0.00    +0.062 S 
ATOM      2  O   UNL     1      -3.351  -1.068  -3.123  0.00  0.00    -0.153 OA
ATOM      3  O   UNL     1      -3.574   0.285  -1.044  0.00  0.00    -0.153 OA
ENDROOT
BRANCH   1  11
ATOM      4  C   UNL     1      -0.405   7.973  -2.906  0.00  0.00    +0.018 C 
ATOM      5  C   UNL     1      -0.072   6.494  -3.114  0.00  0.00    +0.082 C 
ATOM      6  C   UNL     1      -0.547   6.074  -4.475  0.00  0.00    +0.087 C 
ATOM      7  S   UNL     1       0.101   4.499  -5.013  0.00  0.00    -0.123 S 
ATOM      8  C   UNL     1      -0.708   3.236  -4.115  0.00  0.00    +0.029 A 
ATOM      9  C   UNL     1      -0.930   2.031  -4.797  0.00  0.00    +0.018 A 
ATOM     10  C   UNL     1      -1.557   0.966  -4.195  0.00  0.00    +0.030 A 
ATOM     11  C   UNL     1      -1.982   1.082  -2.884  0.00  0.00    +0.107 A 
ATOM     12  C   UNL     1      -1.777   2.259  -2.205  0.00  0.00    +0.053 A 
ATOM     13  C   UNL     1      -1.133   3.356  -2.802  0.00  0.00    +0.049 A 
ATOM     14  N   UNL     1      -0.998   4.449  -1.987  0.00  0.00    -0.284 N 
ATOM     15  C   UNL     1      -0.704   5.700  -2.025  0.00  0.00    +0.221 C 
ATOM     16  O   UNL     1      -0.982   6.327  -1.024  0.00  0.00    -0.275 OA
ATOM     17  H   UNL     1      -1.190   4.192  -1.071  0.00  0.00    +0.155 HD
ENDBRANCH   1  11
BRANCH   1  18
ATOM     18  N   UNL     1      -1.615  -1.185  -1.369  0.00  0.00    -0.166 NA
BRANCH  18  19
ATOM     19  C   UNL     1      -0.981  -2.280  -2.109  0.00  0.00    +0.077 C 
ATOM     20  C   UNL     1      -1.216  -3.600  -1.370  0.00  0.00    +0.002 C 
ATOM     21  C   UNL     1      -0.501  -4.730  -2.115  0.00  0.00    -0.078 C 
ATOM     22  C   UNL     1       1.189  -3.199  -2.933  0.00  0.00    -0.078 C 
ATOM     23  C   UNL     1       0.525  -2.023  -2.213  0.00  0.00    +0.002 C 
ATOM     24  C   UNL     1       1.674  -5.565  -2.773  0.00  0.00    -0.096 C 
ATOM     25  N   UNL     1       0.947  -4.435  -2.159  0.00  0.00    +0.378 N 
ATOM     26  H   UNL     1       1.289  -4.299  -1.200  0.00  0.00    -0.082 HD
ENDBRANCH  18  19
BRANCH  18  27
ATOM     27  C   UNL     1      -1.208  -0.902   0.009  0.00  0.00    +0.184 C 
BRANCH  27  28
ATOM     28  C   UNL     1       0.002  -0.004   0.002  0.00  0.00    +0.120 A 
ATOM     29  C   UNL     1      -0.016   1.341   0.009  0.00  0.00    +0.046 A 
ATOM     30  C   UNL     1       1.331   1.769  -0.001  0.00  0.00    +0.041 A 
ATOM     31  C   UNL     1       2.092   0.660  -0.014  0.00  0.00    +0.195 A 
ATOM     32  O   UNL     1       1.282  -0.411  -0.012  0.00  0.00    -0.466 OA
ENDBRANCH  27  28
ENDBRANCH  18  27
ENDBRANCH   1  18
TORSDOF 5
