REMARK  Name = ZINC06505788
REMARK  6 active torsions:
REMARK  status: ('A' for Active; 'I' for Inactive)
REMARK    1  A    between atoms: C_3  and  N_8
REMARK    2  A    between atoms: N_8  and  C_9
REMARK    3  A    between atoms: C_10  and  C_27
REMARK    4  A    between atoms: C_11  and  N_26
REMARK    5  A    between atoms: C_12  and  C_14
REMARK    6  A    between atoms: C_14  and  C_16
REMARK                            x       y       z     vdW  Elec       q    Type
REMARK                         _______ _______ _______ _____ _____    ______ ____
ROOT
ATOM      1  C   UNL     1      -3.743  -1.591  -0.162  0.00  0.00    +0.090 A 
ATOM      2  C   UNL     1      -2.709  -2.534  -0.188  0.00  0.00    +0.101 A 
ATOM      3  C   UNL     1      -1.417  -2.076  -0.413  0.00  0.00    +0.062 A 
ATOM      4  C   UNL     1      -1.256  -0.700  -0.595  0.00  0.00    +0.079 A 
ATOM      5  S   UNL     1      -2.924  -0.089  -0.438  0.00  0.00    -0.067 S 
ENDROOT
BRANCH   3   6
ATOM      6  N   UNL     1      -0.338  -2.942  -0.453  0.00  0.00    -0.356 N 
ATOM      7  H   UNL     1       0.555  -2.598  -0.611  0.00  0.00    +0.142 HD
ATOM      8  H   UNL     1      -0.475  -3.894  -0.324  0.00  0.00    +0.142 HD
ENDBRANCH   3   6
BRANCH   1   9
ATOM      9  N   UNL     1      -5.087  -1.805   0.041  0.00  0.00    -0.308 N 
ATOM     10  H   UNL     1      -5.430  -2.710   0.101  0.00  0.00    +0.153 HD
BRANCH   9  13
ATOM     11  C   UNL     1      -6.388   1.527   0.888  0.00  0.00    +0.005 A 
ATOM     12  C   UNL     1      -5.528   0.453   0.774  0.00  0.00    +0.023 A 
ATOM     13  C   UNL     1      -5.957  -0.718   0.161  0.00  0.00    +0.034 A 
ATOM     14  C   UNL     1      -7.253  -0.807  -0.329  0.00  0.00    +0.061 A 
ATOM     15  C   UNL     1      -8.112   0.270  -0.208  0.00  0.00    +0.125 A 
ATOM     16  C   UNL     1      -7.678   1.437   0.400  0.00  0.00    +0.038 A 
ATOM     17  F   UNL     1      -9.374   0.185  -0.683  0.00  0.00    -0.205 F 
ENDBRANCH   9  13
ENDBRANCH   1   9
BRANCH   4  18
ATOM     18  C   UNL     1      -0.082   0.019  -0.834  0.00  0.00    +0.178 C 
ATOM     19  O   UNL     1       0.984  -0.564  -0.906  0.00  0.00    -0.291 OA
BRANCH  18  20
ATOM     20  C   UNL     1      -0.135   1.515  -1.002  0.00  0.00    +0.035 C 
ATOM     21  C   UNL     1      -0.705   2.151   0.268  0.00  0.00    +0.018 C 
ATOM     22  C   UNL     1      -0.759   3.670   0.098  0.00  0.00    -0.010 C 
ATOM     23  C   UNL     1       0.652   4.206  -0.152  0.00  0.00    +0.007 C 
ATOM     24  C   UNL     1       1.222   3.571  -1.421  0.00  0.00    -0.010 C 
ATOM     25  C   UNL     1       1.276   2.051  -1.251  0.00  0.00    +0.018 C 
ATOM     26  C   UNL     1       0.327   3.919  -2.612  0.00  0.00    +0.007 C 
ATOM     27  C   UNL     1      -1.085   3.383  -2.363  0.00  0.00    -0.010 C 
ATOM     28  C   UNL     1      -1.655   4.019  -1.093  0.00  0.00    +0.007 C 
ATOM     29  C   UNL     1      -1.030   1.863  -2.192  0.00  0.00    +0.018 C 
ENDBRANCH  18  20
ENDBRANCH   4  18
BRANCH   2  30
ATOM     30  C   UNL     1      -2.975  -3.927   0.010  0.00  0.00    +0.103 C 
ATOM     31  N   UNL     1      -3.186  -5.032   0.168  0.00  0.00    -0.191 NA
ENDBRANCH   2  30
TORSDOF 6
