REMARK  Name = ZINC43549335
REMARK  15 active torsions:
REMARK  status: ('A' for Active; 'I' for Inactive)
REMARK    1  A    between atoms: C_1  and  C_2
REMARK    2  A    between atoms: C_7  and  C_9
REMARK    3  A    between atoms: C_9  and  O_10
REMARK    4  A    between atoms: O_10  and  C_11
REMARK    5  A    between atoms: C_14  and  O_17
REMARK    6  A    between atoms: O_17  and  C_18
REMARK    7  A    between atoms: C_20  and  C_40
REMARK    8  A    between atoms: C_23  and  O_39
REMARK    9  A    between atoms: C_25  and  C_29
REMARK   10  A    between atoms: C_29  and  C_31
REMARK   11  A    between atoms: C_29  and  C_32
REMARK   12  A    between atoms: N_34  and  C_35
REMARK   13  A    between atoms: C_35  and  C_36
REMARK   14  A    between atoms: C_36  and  O_37
REMARK   15  A    between atoms: O_37  and  C_38
REMARK                            x       y       z     vdW  Elec       q    Type
REMARK                         _______ _______ _______ _____ _____    ______ ____
ROOT
ATOM      1  C   UNL     1      -0.598   1.384   0.023  0.00  0.00    +0.014 C 
ATOM      2  C   UNL     1      -0.544  -0.144   0.088  0.00  0.00    +0.042 C 
ATOM      3  C   UNL     1      -1.887  -0.680   0.561  0.00  0.00    +0.055 A 
ATOM      4  C   UNL     1      -2.050  -1.090   1.847  0.00  0.00    +0.014 A 
ATOM      5  S   UNL     1      -3.744  -1.606   1.871  0.00  0.00    -0.073 S 
ATOM      6  C   UNL     1      -4.100  -1.261   0.260  0.00  0.00    +0.116 A 
ATOM      7  N   UNL     1      -2.969  -0.792  -0.202  0.00  0.00    -0.245 NA
ATOM      8  C   UNL     1      -1.037  -1.093   2.938  0.00  0.00    +0.051 C 
ATOM      9  C   UNL     1       0.152  -0.212   2.510  0.00  0.00    -0.022 C 
ATOM     10  C   UNL     1       0.541  -0.574   1.069  0.00  0.00    +0.033 C 
ATOM     11  C   UNL     1       0.785  -2.080   0.977  0.00  0.00    +0.123 C 
ATOM     12  C   UNL     1       1.947  -2.455   1.901  0.00  0.00    +0.029 C 
ATOM     13  C   UNL     1       1.611  -2.061   3.340  0.00  0.00    +0.007 C 
ATOM     14  C   UNL     1       1.341  -0.553   3.422  0.00  0.00    +0.008 C 
ATOM     15  C   UNL     1      -0.208   1.270   2.627  0.00  0.00    +0.012 C 
ENDROOT
BRANCH  12  16
ATOM     16  C   UNL     1       2.184  -3.965   1.832  0.00  0.00    +0.077 C 
ATOM     17  C   UNL     1       3.345  -4.342   2.755  0.00  0.00    +0.017 C 
BRANCH  16  18
ATOM     18  C   UNL     1       2.522  -4.356   0.416  0.00  0.00    +0.216 C 
ATOM     19  O   UNL     1       2.568  -3.510  -0.452  0.00  0.00    -0.276 OA
ATOM     20  N   UNL     1       2.773  -5.645   0.114  0.00  0.00    -0.313 N 
ATOM     21  H   UNL     1       2.736  -6.322   0.808  0.00  0.00    +0.149 HD
BRANCH  20  22
ATOM     22  C   UNL     1       3.101  -6.025  -1.262  0.00  0.00    +0.132 C 
BRANCH  22  23
ATOM     23  C   UNL     1       3.339  -7.535  -1.332  0.00  0.00    +0.178 C 
BRANCH  23  24
ATOM     24  O   UNL     1       2.123  -8.223  -1.029  0.00  0.00    -0.381 OA
ATOM     25  C   UNL     1       2.236  -9.647  -1.067  0.00  0.00    +0.194 C 
ENDBRANCH  23  24
ENDBRANCH  22  23
ENDBRANCH  20  22
ENDBRANCH  16  18
ENDBRANCH  12  16
BRANCH  11  26
ATOM     26  O   UNL     1      -0.393  -2.781   1.378  0.00  0.00    -0.391 OA
ATOM     27  H   UNL     1      -0.309  -3.744   1.343  0.00  0.00    +0.210 HD
ENDBRANCH  11  26
BRANCH   6  28
ATOM     28  C   UNL     1      -5.404  -1.448  -0.472  0.00  0.00    +0.291 C 
BRANCH  28  29
ATOM     29  O   UNL     1      -5.442  -2.754  -1.052  0.00  0.00    -0.485 OA
BRANCH  29  30
ATOM     30  C   UNL     1      -6.559  -3.086  -1.753  0.00  0.00    +0.121 A 
ATOM     31  C   UNL     1      -7.593  -2.171  -1.883  0.00  0.00    +0.049 A 
ATOM     32  C   UNL     1      -8.728  -2.509  -2.595  0.00  0.00    +0.049 A 
ATOM     33  C   UNL     1      -8.833  -3.762  -3.180  0.00  0.00    +0.120 A 
ATOM     34  C   UNL     1      -7.798  -4.676  -3.050  0.00  0.00    +0.049 A 
ATOM     35  C   UNL     1      -6.662  -4.338  -2.342  0.00  0.00    +0.049 A 
BRANCH  33  36
ATOM     36  O   UNL     1      -9.950  -4.095  -3.880  0.00  0.00    -0.495 OA
ATOM     37  C   UNL     1      -9.990  -5.402  -4.455  0.00  0.00    +0.277 C 
ENDBRANCH  33  36
ENDBRANCH  29  30
ENDBRANCH  28  29
ENDBRANCH   6  28
TORSDOF 10
