REMARK  Name = ZINC20836098
REMARK  14 active torsions:
REMARK  status: ('A' for Active; 'I' for Inactive)
REMARK    1  A    between atoms: C_1  and  C_2
REMARK    2  A    between atoms: C_2  and  C_3
REMARK    3  A    between atoms: C_3  and  C_5
REMARK    4  A    between atoms: C_3  and  C_6
REMARK    5  A    between atoms: C_9  and  N_12
REMARK    6  A    between atoms: C_13  and  C_15
REMARK    7  A    between atoms: C_15  and  C_16
REMARK    8  A    between atoms: C_16  and  S_17
REMARK    9  A    between atoms: S_17  and  C_18
REMARK   10  A    between atoms: N_23  and  N_24
REMARK   11  A    between atoms: C_25  and  C_26
REMARK   12  A    between atoms: C_25  and  C_27
REMARK   13  A    between atoms: C_31  and  O_33
REMARK   14  A    between atoms: O_33  and  C_34
REMARK                            x       y       z     vdW  Elec       q    Type
REMARK                         _______ _______ _______ _____ _____    ______ ____
ROOT
ATOM      1  C   UNL     1      -4.891   3.474   8.611  0.00  0.00    +0.210 A 
ATOM      2  N   UNL     1      -4.519   4.604   7.941  0.00  0.00    -0.186 NA
ATOM      3  C   UNL     1      -3.876   4.224   6.796  0.00  0.00    +0.232 A 
ATOM      4  N   UNL     1      -3.857   2.914   6.758  0.00  0.00    -0.245 N 
ATOM      5  N   UNL     1      -4.495   2.438   7.911  0.00  0.00    -0.144 NA
ATOM      6  N   UNL     1      -3.342   5.076   5.840  0.00  0.00    -0.205 N 
ATOM      7  H   UNL     1      -3.418   6.166   5.970  0.00  0.00    +0.177 HD
ATOM      8  H   UNL     1      -3.388   2.395   5.909  0.00  0.00    +0.192 HD
ENDROOT
BRANCH   6   9
ATOM      9  N   UNL     1      -2.706   4.548   4.708  0.00  0.00    -0.184 NA
ATOM     10  C   UNL     1      -2.206   5.345   3.813  0.00  0.00    +0.063 C 
ATOM     11  C   UNL     1      -2.310   6.838   3.991  0.00  0.00    +0.068 C 
BRANCH  10  12
ATOM     12  C   UNL     1      -1.537   4.790   2.623  0.00  0.00    +0.001 A 
ATOM     13  C   UNL     1      -0.999   5.645   1.657  0.00  0.00    +0.010 A 
ATOM     14  C   UNL     1      -0.374   5.121   0.545  0.00  0.00    +0.004 A 
ATOM     15  C   UNL     1      -0.273   3.751   0.384  0.00  0.00    +0.045 A 
ATOM     16  C   UNL     1      -0.809   2.893   1.334  0.00  0.00    +0.121 A 
ATOM     17  C   UNL     1      -1.439   3.407   2.455  0.00  0.00    +0.055 A 
BRANCH  16  18
ATOM     18  O   UNL     1      -0.712   1.548   1.167  0.00  0.00    -0.495 OA
ATOM     19  C   UNL     1      -0.050   1.087  -0.013  0.00  0.00    +0.277 C 
ENDBRANCH  16  18
ENDBRANCH  10  12
ENDBRANCH   6   9
BRANCH   1  20
ATOM     20  S   UNL     1      -5.753   3.417  10.147  0.00  0.00    -0.084 S 
BRANCH  20  21
ATOM     21  C   UNL     1      -5.936   1.644  10.482  0.00  0.00    +0.086 C 
BRANCH  21  22
ATOM     22  C   UNL     1      -6.678   1.448  11.806  0.00  0.00    +0.107 C 
BRANCH  22  24
ATOM     23  N   UNL     1      -7.457  -0.438  13.204  0.00  0.00    -0.285 N 
ATOM     24  C   UNL     1      -6.830  -0.025  12.084  0.00  0.00    +0.218 C 
ATOM     25  O   UNL     1      -6.388  -0.839  11.301  0.00  0.00    -0.275 OA
ATOM     26  H   UNL     1      -7.790   0.297  13.950  0.00  0.00    +0.155 HD
BRANCH  23  30
ATOM     27  C   UNL     1      -8.131  -4.501  13.834  0.00  0.00    -0.044 A 
ATOM     28  C   UNL     1      -6.977  -4.084  13.197  0.00  0.00    +0.006 A 
ATOM     29  C   UNL     1      -6.751  -2.737  12.986  0.00  0.00    +0.023 A 
ATOM     30  C   UNL     1      -7.683  -1.802  13.415  0.00  0.00    +0.033 A 
ATOM     31  C   UNL     1      -8.838  -2.224  14.061  0.00  0.00    +0.023 A 
ATOM     32  C   UNL     1      -9.062  -3.572  14.263  0.00  0.00    +0.006 A 
BRANCH  27  33
ATOM     33  C   UNL     1      -8.375  -5.970  14.062  0.00  0.00    +0.016 C 
ATOM     34  C   UNL     1      -9.667  -6.388  13.358  0.00  0.00    +0.012 C 
BRANCH  33  36
ATOM     35  C   UNL     1      -8.626  -7.745  15.803  0.00  0.00    +0.004 C 
ATOM     36  C   UNL     1      -8.503  -6.239  15.563  0.00  0.00    +0.004 C 
ENDBRANCH  33  36
ENDBRANCH  27  33
ENDBRANCH  23  30
ENDBRANCH  22  24
ENDBRANCH  21  22
ENDBRANCH  20  21
ENDBRANCH   1  20
TORSDOF 10
