REMARK  Name = ZINC09600750
REMARK  10 active torsions:
REMARK  status: ('A' for Active; 'I' for Inactive)
REMARK    1  A    between atoms: C_1  and  C_2
REMARK    2  A    between atoms: C_2  and  O_3
REMARK    3  A    between atoms: O_3  and  C_4
REMARK    4  A    between atoms: C_6  and  C_11
REMARK    5  A    between atoms: C_9  and  O_10
REMARK    6  A    between atoms: C_16  and  C_21
REMARK    7  A    between atoms: C_28  and  C_34
REMARK    8  A    between atoms: C_29  and  C_30
REMARK    9  A    between atoms: C_30  and  O_32
REMARK   10  A    between atoms: O_32  and  C_33
REMARK                            x       y       z     vdW  Elec       q    Type
REMARK                         _______ _______ _______ _____ _____    ______ ____
ROOT
ATOM      1  C   UNL     1       2.543  -2.800  -0.037  0.00  0.00    +0.092 C 
ATOM      2  C   UNL     1       2.616  -3.657  -1.276  0.00  0.00    +0.024 C 
ATOM      3  C   UNL     1       2.414  -4.989  -1.205  0.00  0.00    +0.016 C 
ATOM      4  C   UNL     1       2.492  -5.854  -2.439  0.00  0.00    +0.059 C 
ATOM      5  C   UNL     1       2.056  -5.044  -3.663  0.00  0.00    +0.032 C 
ATOM      6  C   UNL     1       2.966  -3.817  -3.782  0.00  0.00    +0.088 C 
ATOM      7  C   UNL     1       2.897  -3.029  -2.502  0.00  0.00    +0.162 C 
ATOM      8  O   UNL     1       3.086  -1.829  -2.529  0.00  0.00    -0.292 OA
ATOM      9  N   UNL     1       2.138  -5.588  -0.005  0.00  0.00    -0.321 N 
ATOM     10  C   UNL     1       2.448  -4.964   1.171  0.00  0.00    +0.016 C 
ATOM     11  C   UNL     1       2.654  -3.636   1.204  0.00  0.00    +0.065 C 
ATOM     12  C   UNL     1       2.560  -5.771   2.439  0.00  0.00    +0.061 C 
ATOM     13  H   UNL     1       1.662  -6.579   0.018  0.00  0.00    +0.152 HD
ENDROOT
BRANCH   1  16
ATOM     14  C   UNL     1       0.002  -0.004   0.002  0.00  0.00    +0.162 A 
ATOM     15  C   UNL     1       1.210  -0.682  -0.013  0.00  0.00    +0.054 A 
ATOM     16  C   UNL     1       1.227  -2.064  -0.021  0.00  0.00    -0.032 A 
ATOM     17  C   UNL     1       0.041  -2.773  -0.013  0.00  0.00    +0.008 A 
ATOM     18  C   UNL     1      -1.168  -2.103   0.002  0.00  0.00    +0.049 A 
ATOM     19  C   UNL     1      -1.192  -0.718   0.015  0.00  0.00    +0.158 A 
BRANCH  19  20
ATOM     20  O   UNL     1      -2.381  -0.057   0.036  0.00  0.00    -0.503 OA
ATOM     21  H   UNL     1      -3.324  -0.622   0.046  0.00  0.00    +0.292 HD
ENDBRANCH  19  20
BRANCH  14  22
ATOM     22  O   UNL     1      -0.016   1.356   0.009  0.00  0.00    -0.489 OA
BRANCH  22  24
ATOM     23  C   UNL     1       1.027   3.536   0.011  0.00  0.00    +0.048 C 
ATOM     24  C   UNL     1       1.248   2.022   0.001  0.00  0.00    +0.226 C 
ENDBRANCH  22  24
ENDBRANCH  14  22
ENDBRANCH   1  16
BRANCH   5  25
ATOM     25  C   UNL     1       2.183  -5.891  -4.902  0.00  0.00    -0.044 A 
ATOM     26  C   UNL     1       3.415  -6.399  -5.269  0.00  0.00    +0.004 A 
ATOM     27  C   UNL     1       3.530  -7.180  -6.404  0.00  0.00    +0.000 A 
ATOM     28  C   UNL     1       2.415  -7.444  -7.178  0.00  0.00    +0.000 A 
ATOM     29  C   UNL     1       1.184  -6.932  -6.813  0.00  0.00    +0.000 A 
ATOM     30  C   UNL     1       1.068  -6.155  -5.676  0.00  0.00    +0.004 A 
ENDBRANCH   5  25
BRANCH  11  31
ATOM     31  C   UNL     1       2.983  -3.016   2.432  0.00  0.00    +0.337 C 
ATOM     32  O   UNL     1       3.076  -3.683   3.445  0.00  0.00    -0.245 OA
BRANCH  31  33
ATOM     33  O   UNL     1       3.192  -1.683   2.479  0.00  0.00    -0.465 OA
ATOM     34  C   UNL     1       3.521  -1.124   3.753  0.00  0.00    +0.280 C 
ENDBRANCH  31  33
ENDBRANCH  11  31
TORSDOF 7
