REMARK  Name = ZINC03110131
REMARK  8 active torsions:
REMARK  status: ('A' for Active; 'I' for Inactive)
REMARK    1  A    between atoms: C_1  and  C_2
REMARK    2  A    between atoms: C_2  and  C_3
REMARK    3  A    between atoms: C_2  and  C_4
REMARK    4  A    between atoms: C_7  and  C_10
REMARK    5  A    between atoms: C_11  and  C_12
REMARK    6  A    between atoms: N_14  and  N_15
REMARK    7  A    between atoms: C_16  and  C_18
REMARK    8  A    between atoms: C_21  and  C_23
REMARK                            x       y       z     vdW  Elec       q    Type
REMARK                         _______ _______ _______ _____ _____    ______ ____
ROOT
ATOM      1  C   UNL     1      -3.120   5.453   5.411  0.00  0.00    +0.253 C 
ATOM      2  O   UNL     1      -3.189   6.664   5.510  0.00  0.00    -0.269 OA
ATOM      3  N   UNL     1      -2.510   4.898   4.345  0.00  0.00    -0.231 N 
ATOM      4  H   UNL     1      -2.455   3.933   4.266  0.00  0.00    +0.173 HD
ENDROOT
BRANCH   3   5
ATOM      5  N   UNL     1      -1.955   5.715   3.351  0.00  0.00    -0.234 N 
ATOM      6  C   UNL     1      -1.345   5.159   2.285  0.00  0.00    +0.233 C 
ATOM      7  O   UNL     1      -1.277   3.952   2.187  0.00  0.00    -0.274 OA
ATOM      8  H   UNL     1      -2.010   6.680   3.430  0.00  0.00    +0.173 HD
BRANCH   6   9
ATOM      9  C   UNL     1      -0.749   6.038   1.216  0.00  0.00    +0.084 C 
ATOM     10  C   UNL     1      -1.423   6.036  -0.159  0.00  0.00    +0.022 C 
ATOM     11  C   UNL     1      -0.070   5.347   0.031  0.00  0.00    +0.032 C 
BRANCH  11  12
ATOM     12  C   UNL     1      -0.050   3.840   0.023  0.00  0.00    -0.044 A 
ATOM     13  C   UNL     1       1.156   3.165   0.008  0.00  0.00    +0.004 A 
ATOM     14  C   UNL     1       1.175   1.783   0.000  0.00  0.00    +0.000 A 
ATOM     15  C   UNL     1      -0.013   1.076   0.008  0.00  0.00    +0.000 A 
ATOM     16  C   UNL     1      -1.219   1.751   0.017  0.00  0.00    +0.000 A 
ATOM     17  C   UNL     1      -1.238   3.133   0.030  0.00  0.00    +0.004 A 
ENDBRANCH  11  12
ENDBRANCH   6   9
ENDBRANCH   3   5
BRANCH   1  19
ATOM     18  C   UNL     1      -4.309   5.155   7.516  0.00  0.00    +0.013 C 
ATOM     19  C   UNL     1      -3.699   4.600   6.450  0.00  0.00    +0.069 C 
BRANCH  18  23
ATOM     20  C   UNL     1      -5.989   2.682  10.526  0.00  0.00    -0.045 A 
ATOM     21  C   UNL     1      -6.069   4.059  10.642  0.00  0.00    +0.004 A 
ATOM     22  C   UNL     1      -5.525   4.870   9.668  0.00  0.00    +0.008 A 
ATOM     23  C   UNL     1      -4.891   4.297   8.561  0.00  0.00    -0.025 A 
ATOM     24  C   UNL     1      -4.819   2.905   8.448  0.00  0.00    +0.008 A 
ATOM     25  C   UNL     1      -5.363   2.108   9.433  0.00  0.00    +0.004 A 
BRANCH  20  27
ATOM     26  C   UNL     1      -7.662   0.909  10.978  0.00  0.00    +0.012 C 
ATOM     27  C   UNL     1      -6.585   1.804  11.595  0.00  0.00    +0.013 C 
ATOM     28  C   UNL     1      -5.489   0.932  12.210  0.00  0.00    +0.012 C 
ENDBRANCH  20  27
ENDBRANCH  18  23
ENDBRANCH   1  19
TORSDOF 6
