REMARK  Name = ZINC09972487
REMARK  3 active torsions:
REMARK  status: ('A' for Active; 'I' for Inactive)
REMARK    1  A    between atoms: N_28  and  C_29
REMARK    2  A    between atoms: C_29  and  C_30
REMARK    3  A    between atoms: C_30  and  C_31
REMARK                            x       y       z     vdW  Elec       q    Type
REMARK                         _______ _______ _______ _____ _____    ______ ____
ROOT
ATOM      1  C   UNL     1      -2.819   4.995  -6.807  0.00  0.00    +0.007 A 
ATOM      2  C   UNL     1      -3.441   3.748  -6.680  0.00  0.00    +0.022 A 
ATOM      3  C   UNL     1      -2.860   2.633  -7.197  0.00  0.00    +0.027 A 
ATOM      4  N   UNL     1      -1.711   2.719  -7.906  0.00  0.00    -0.312 N 
ATOM      5  C   UNL     1      -1.052   3.902  -7.977  0.00  0.00    +0.251 A 
ATOM      6  O   UNL     1       0.045   3.950  -8.511  0.00  0.00    -0.268 OA
ATOM      7  C   UNL     1      -1.616   5.069  -7.445  0.00  0.00    +0.070 A 
ATOM      8  C   UNL     1      -1.129   1.589  -8.630  0.00  0.00    +0.130 C 
ATOM      9  C   UNL     1      -1.648   0.252  -8.128  0.00  0.00    +0.027 C 
ATOM     10  C   UNL     1      -3.174   0.309  -8.013  0.00  0.00    +0.018 C 
ATOM     11  C   UNL     1      -3.517   1.303  -6.897  0.00  0.00    +0.054 C 
ATOM     12  C   UNL     1      -2.911   0.775  -5.586  0.00  0.00    +0.117 C 
ATOM     13  N   UNL     1      -1.447   0.774  -5.729  0.00  0.00    -0.299 N 
ATOM     14  C   UNL     1      -1.020  -0.135  -6.798  0.00  0.00    +0.113 C 
ATOM     15  C   UNL     1      -0.834   0.456  -4.534  0.00  0.00    +0.224 A 
ATOM     16  N   UNL     1       0.017  -0.564  -4.475  0.00  0.00    -0.181 NA
ATOM     17  C   UNL     1       0.607  -0.871  -3.324  0.00  0.00    +0.221 A 
ATOM     18  N   UNL     1       0.346  -0.159  -2.232  0.00  0.00    -0.181 NA
ATOM     19  C   UNL     1      -0.505   0.861  -2.292  0.00  0.00    +0.224 A 
ATOM     20  N   UNL     1      -1.099   1.165  -3.442  0.00  0.00    -0.181 NA
ATOM     21  N   UNL     1      -0.776   1.600  -1.158  0.00  0.00    -0.299 N 
ATOM     22  C   UNL     1      -0.013   1.086   0.008  0.00  0.00    +0.108 C 
ATOM     23  C   UNL     1      -0.782   1.607   1.240  0.00  0.00    +0.020 C 
ATOM     24  C   UNL     1      -2.223   1.850   0.736  0.00  0.00    +0.020 C 
ATOM     25  C   UNL     1      -2.199   1.455  -0.756  0.00  0.00    +0.108 C 
ATOM     26  N   UNL     1       1.491  -1.929  -3.263  0.00  0.00    -0.313 N 
ATOM     27  H   UNL     1       1.681  -2.449  -4.059  0.00  0.00    +0.149 HD
ENDROOT
BRANCH  26  28
ATOM     28  C   UNL     1       2.141  -2.268  -1.994  0.00  0.00    +0.108 C 
BRANCH  28  29
ATOM     29  C   UNL     1       3.064  -3.471  -2.200  0.00  0.00    +0.049 C 
BRANCH  29  30
ATOM     30  C   UNL     1       3.733  -3.819  -0.895  0.00  0.00    -0.072 C 
ATOM     31  C   UNL     1       3.191  -4.737  -0.161  0.00  0.00    -0.028 C 
ATOM     32  C   UNL     1       3.734  -5.184   1.164  0.00  0.00    +0.027 C 
ATOM     33  C   UNL     1       5.190  -4.736   1.315  0.00  0.00    +0.004 C 
ATOM     34  C   UNL     1       5.277  -3.245   0.966  0.00  0.00    +0.005 C 
ATOM     35  C   UNL     1       4.990  -3.084  -0.530  0.00  0.00    +0.030 C 
ENDBRANCH  29  30
ENDBRANCH  28  29
ENDBRANCH  26  28
TORSDOF 3
