REMARK  Name = ZINC02707807
REMARK  5 active torsions:
REMARK  status: ('A' for Active; 'I' for Inactive)
REMARK    1  A    between atoms: C_9  and  O_28
REMARK    2  A    between atoms: C_10  and  C_11
REMARK    3  A    between atoms: N_12  and  C_13
REMARK    4  A    between atoms: C_16  and  S_19
REMARK    5  A    between atoms: S_19  and  N_22
REMARK                            x       y       z     vdW  Elec       q    Type
REMARK                         _______ _______ _______ _____ _____    ______ ____
ROOT
ATOM      1  C   UNL     1      -4.855  -0.208   0.049  0.00  0.00    +0.064 A 
ATOM      2  C   UNL     1      -5.085   0.864   0.915  0.00  0.00    +0.029 A 
ATOM      3  C   UNL     1      -6.314   1.490   0.921  0.00  0.00    +0.030 A 
ATOM      4  C   UNL     1      -7.322   1.051   0.080  0.00  0.00    +0.106 A 
ATOM      5  C   UNL     1      -7.102  -0.013  -0.776  0.00  0.00    +0.030 A 
ATOM      6  C   UNL     1      -5.876  -0.645  -0.797  0.00  0.00    +0.029 A 
ENDROOT
BRANCH   4   7
ATOM      7  S   UNL     1      -8.891   1.852   0.100  0.00  0.00    +0.061 S 
ATOM      8  O   UNL     1      -8.670   3.165   0.596  0.00  0.00    -0.153 OA
ATOM      9  O   UNL     1      -9.488   1.606  -1.166  0.00  0.00    -0.153 OA
BRANCH   7  10
ATOM     10  N   UNL     1      -9.824   1.072   1.224  0.00  0.00    -0.172 NA
ATOM     11  C   UNL     1     -10.670  -0.071   0.844  0.00  0.00    +0.137 C 
ATOM     12  C   UNL     1     -10.382  -1.224   1.818  0.00  0.00    +0.177 C 
ATOM     13  O   UNL     1     -10.521  -0.751   3.160  0.00  0.00    -0.377 OA
ATOM     14  C   UNL     1      -9.594   0.278   3.516  0.00  0.00    +0.177 C 
ATOM     15  C   UNL     1      -9.837   1.505   2.630  0.00  0.00    +0.137 C 
ENDBRANCH   7  10
ENDBRANCH   4   7
BRANCH   1  17
ATOM     16  C   UNL     1      -2.540  -0.118   0.027  0.00  0.00    +0.123 C 
ATOM     17  N   UNL     1      -3.636  -0.829   0.034  0.00  0.00    -0.255 NA
BRANCH  16  27
ATOM     18  C   UNL     1       2.380   1.416  -0.014  0.00  0.00    +0.001 A 
ATOM     19  C   UNL     1       1.159   2.085   0.002  0.00  0.00    +0.001 A 
ATOM     20  C   UNL     1      -0.017   1.395   0.010  0.00  0.00    +0.009 A 
ATOM     21  C   UNL     1       0.002  -0.004   0.002  0.00  0.00    -0.006 A 
ATOM     22  C   UNL     1       1.242  -0.688  -0.013  0.00  0.00    -0.017 A 
ATOM     23  C   UNL     1       2.434   0.056  -0.021  0.00  0.00    +0.008 A 
ATOM     24  C   UNL     1       1.259  -2.094  -0.021  0.00  0.00    +0.012 A 
ATOM     25  C   UNL     1       0.101  -2.805  -0.013  0.00  0.00    +0.046 A 
ATOM     26  C   UNL     1      -1.145  -2.179   0.002  0.00  0.00    +0.126 A 
ATOM     27  C   UNL     1      -1.236  -0.784   0.010  0.00  0.00    +0.042 A 
BRANCH  26  28
ATOM     28  O   UNL     1      -2.276  -2.928   0.009  0.00  0.00    -0.506 OA
ATOM     29  H   UNL     1      -2.612  -3.141  -0.872  0.00  0.00    +0.292 HD
ENDBRANCH  26  28
ENDBRANCH  16  27
ENDBRANCH   1  17
TORSDOF 5
