REMARK  Name = ZINC36852390
REMARK  4 active torsions:
REMARK  status: ('A' for Active; 'I' for Inactive)
REMARK    1  A    between atoms: C_8  and  C_10
REMARK    2  A    between atoms: C_10  and  N_11
REMARK    3  A    between atoms: N_11  and  C_12
REMARK    4  A    between atoms: C_21  and  O_22
REMARK                            x       y       z     vdW  Elec       q    Type
REMARK                         _______ _______ _______ _____ _____    ______ ____
ROOT
ATOM      1  N   UNL     1       3.197  -4.436  -1.438  0.00  0.00    +0.388 N 
ATOM      2  H   UNL     1       2.308  -4.333  -1.905  0.00  0.00    -0.084 HD
ATOM      3  H   UNL     1       3.894  -3.886  -1.918  0.00  0.00    -0.084 HD
ENDROOT
BRANCH   1   4
ATOM      4  C   UNL     1       3.596  -5.849  -1.450  0.00  0.00    -0.040 C 
ATOM      5  C   UNL     1       3.815  -6.332  -2.899  0.00  0.00    -0.006 C 
ATOM      6  C   UNL     1       2.431  -6.905  -3.270  0.00  0.00    +0.038 C 
ATOM      7  C   UNL     1       1.809  -7.321  -1.954  0.00  0.00    -0.004 A 
ATOM      8  C   UNL     1       2.479  -6.715  -0.906  0.00  0.00    -0.055 A 
ATOM      9  C   UNL     1       2.082  -6.951   0.399  0.00  0.00    +0.002 A 
ATOM     10  C   UNL     1       1.017  -7.792   0.663  0.00  0.00    +0.004 A 
ATOM     11  C   UNL     1       0.343  -8.401  -0.377  0.00  0.00    +0.046 A 
ATOM     12  C   UNL     1       0.738  -8.167  -1.692  0.00  0.00    +0.120 A 
BRANCH  12  13
ATOM     13  O   UNL     1       0.078  -8.764  -2.719  0.00  0.00    -0.506 OA
ATOM     14  H   UNL     1       0.441  -9.625  -2.971  0.00  0.00    +0.292 HD
ENDBRANCH  12  13
ENDBRANCH   1   4
BRANCH   1  15
ATOM     15  C   UNL     1       3.078  -3.972  -0.050  0.00  0.00    -0.018 C 
BRANCH  15  23
ATOM     16  C   UNL     1      -0.016   1.357   0.009  0.00  0.00    +0.002 A 
ATOM     17  C   UNL     1       1.156   2.100   0.002  0.00  0.00    +0.001 A 
ATOM     18  C   UNL     1       2.375   1.449  -0.013  0.00  0.00    +0.017 A 
ATOM     19  C   UNL     1       2.404   0.076  -0.021  0.00  0.00    +0.039 A 
ATOM     20  C   UNL     1       1.226  -0.705  -0.013  0.00  0.00    +0.078 A 
ATOM     21  C   UNL     1       0.002  -0.004   0.002  0.00  0.00    +0.029 A 
ATOM     22  N   UNL     1       1.464  -2.033  -0.023  0.00  0.00    -0.246 NA
ATOM     23  C   UNL     1       2.669  -2.521  -0.038  0.00  0.00    +0.063 A 
ATOM     24  S   UNL     1       3.669  -1.167  -0.040  0.00  0.00    -0.074 S 
ENDBRANCH  15  23
ENDBRANCH   1  15
TORSDOF 4
