REMARK  Name = ZINC01084392
REMARK  12 active torsions:
REMARK  status: ('A' for Active; 'I' for Inactive)
REMARK    1  A    between atoms: C_1  and  C_2
REMARK    2  A    between atoms: C_5  and  N_8
REMARK    3  A    between atoms: N_8  and  C_9
REMARK    4  A    between atoms: C_9  and  C_10
REMARK    5  A    between atoms: C_13  and  S_21
REMARK    6  A    between atoms: N_14  and  C_15
REMARK    7  A    between atoms: S_21  and  C_22
REMARK    8  A    between atoms: C_22  and  C_24
REMARK    9  A    between atoms: C_22  and  C_25
REMARK   10  A    between atoms: N_27  and  N_28
REMARK   11  A    between atoms: C_29  and  C_30
REMARK   12  A    between atoms: C_35  and  O_36
REMARK                            x       y       z     vdW  Elec       q    Type
REMARK                         _______ _______ _______ _____ _____    ______ ____
ROOT
ATOM      1  C   UNL     1       0.092  -6.387   0.960  0.00  0.00    +0.156 A 
ATOM      2  N   UNL     1      -0.948  -7.158   0.815  0.00  0.00    -0.132 NA
ATOM      3  N   UNL     1      -0.574  -8.366   0.582  0.00  0.00    -0.122 NA
ATOM      4  C   UNL     1       0.737  -8.433   0.566  0.00  0.00    +0.197 A 
ATOM      5  N   UNL     1       1.205  -7.170   0.802  0.00  0.00    -0.273 N 
ENDROOT
BRANCH   5   6
ATOM      6  C   UNL     1       2.545  -6.761   0.871  0.00  0.00    +0.050 A 
ATOM      7  C   UNL     1       3.051  -5.873  -0.069  0.00  0.00    +0.026 A 
ATOM      8  C   UNL     1       4.371  -5.473   0.001  0.00  0.00    +0.002 A 
ATOM      9  C   UNL     1       5.189  -5.957   1.006  0.00  0.00    +0.000 A 
ATOM     10  C   UNL     1       4.688  -6.841   1.943  0.00  0.00    +0.002 A 
ATOM     11  C   UNL     1       3.367  -7.240   1.882  0.00  0.00    +0.026 A 
ENDBRANCH   5   6
BRANCH   1  12
ATOM     12  C   UNL     1       0.074  -4.907   1.244  0.00  0.00    +0.178 C 
BRANCH  12  13
ATOM     13  N   UNL     1       0.058  -4.167  -0.021  0.00  0.00    -0.337 N 
ATOM     14  H   UNL     1       0.060  -4.648  -0.864  0.00  0.00    +0.147 HD
BRANCH  13  19
ATOM     15  C   UNL     1      -0.018   1.503   0.010  0.00  0.00    +0.044 C 
ATOM     16  C   UNL     1       0.002  -0.004   0.002  0.00  0.00    -0.050 A 
ATOM     17  C   UNL     1       0.006  -0.687  -1.200  0.00  0.00    +0.005 A 
ATOM     18  C   UNL     1       0.024  -2.068  -1.212  0.00  0.00    +0.023 A 
ATOM     19  C   UNL     1       0.040  -2.771  -0.013  0.00  0.00    +0.027 A 
ATOM     20  C   UNL     1       0.036  -2.081   1.193  0.00  0.00    +0.023 A 
ATOM     21  C   UNL     1       0.023  -0.700   1.197  0.00  0.00    +0.005 A 
ENDBRANCH  13  19
ENDBRANCH  12  13
ENDBRANCH   1  12
BRANCH   4  22
ATOM     22  S   UNL     1       1.709  -9.876   0.287  0.00  0.00    -0.073 S 
BRANCH  22  23
ATOM     23  C   UNL     1       0.483 -11.189   0.037  0.00  0.00    +0.139 C 
ATOM     24  C   UNL     1      -0.309 -11.401   1.329  0.00  0.00    +0.029 C 
BRANCH  23  25
ATOM     25  C   UNL     1       1.186 -12.469  -0.336  0.00  0.00    +0.245 C 
ATOM     26  O   UNL     1       2.339 -12.647  -0.001  0.00  0.00    -0.273 OA
ATOM     27  N   UNL     1       0.536 -13.414  -1.042  0.00  0.00    -0.206 N 
ATOM     28  H   UNL     1      -0.386 -13.272  -1.310  0.00  0.00    +0.177 HD
BRANCH  27  29
ATOM     29  N   UNL     1       1.190 -14.604  -1.389  0.00  0.00    -0.188 NA
ATOM     30  C   UNL     1       0.563 -15.515  -2.069  0.00  0.00    +0.142 C 
BRANCH  30  31
ATOM     31  C   UNL     1       1.251 -16.766  -2.434  0.00  0.00    +0.036 A 
ATOM     32  C   UNL     1       0.582 -17.746  -3.170  0.00  0.00    +0.013 A 
ATOM     33  C   UNL     1       1.231 -18.914  -3.509  0.00  0.00    +0.001 A 
ATOM     34  C   UNL     1       2.545 -19.120  -3.122  0.00  0.00    +0.004 A 
ATOM     35  C   UNL     1       3.217 -18.158  -2.392  0.00  0.00    +0.046 A 
ATOM     36  C   UNL     1       2.582 -16.976  -2.049  0.00  0.00    +0.125 A 
BRANCH  36  37
ATOM     37  O   UNL     1       3.244 -16.028  -1.337  0.00  0.00    -0.506 OA
ATOM     38  H   UNL     1       3.159 -16.125  -0.378  0.00  0.00    +0.292 HD
ENDBRANCH  36  37
ENDBRANCH  30  31
ENDBRANCH  27  29
ENDBRANCH  23  25
ENDBRANCH  22  23
ENDBRANCH   4  22
TORSDOF 10
