REMARK  Name = ZINC39587474
REMARK  11 active torsions:
REMARK  status: ('A' for Active; 'I' for Inactive)
REMARK    1  A    between atoms: C_1  and  C_2
REMARK    2  A    between atoms: C_2  and  O_3
REMARK    3  A    between atoms: O_3  and  C_4
REMARK    4  A    between atoms: C_4  and  C_6
REMARK    5  A    between atoms: C_7  and  C_22
REMARK    6  A    between atoms: C_12  and  C_14
REMARK    7  A    between atoms: C_17  and  O_20
REMARK    8  A    between atoms: O_20  and  C_21
REMARK    9  A    between atoms: C_22  and  O_23
REMARK   10  A    between atoms: O_23  and  C_24
REMARK   11  A    between atoms: C_24  and  C_26
REMARK                            x       y       z     vdW  Elec       q    Type
REMARK                         _______ _______ _______ _____ _____    ______ ____
ROOT
ATOM      1  C   UNL     1      -2.795  -2.410   0.126  0.00  0.00    +0.081 C 
ATOM      2  C   UNL     1      -2.985  -3.731  -0.085  0.00  0.00    +0.061 C 
ATOM      3  N   UNL     1      -4.241  -4.255  -0.186  0.00  0.00    -0.269 N 
ATOM      4  C   UNL     1      -5.360  -3.526  -0.089  0.00  0.00    +0.304 C 
ATOM      5  O   UNL     1      -6.436  -4.083  -0.192  0.00  0.00    -0.252 OA
ATOM      6  N   UNL     1      -5.333  -2.195   0.121  0.00  0.00    -0.288 N 
ATOM      7  C   UNL     1      -4.024  -1.533   0.251  0.00  0.00    +0.144 C 
ATOM      8  H   UNL     1      -4.328  -5.210  -0.337  0.00  0.00    +0.156 HD
ATOM      9  H   UNL     1      -6.156  -1.686   0.188  0.00  0.00    +0.151 HD
ENDROOT
BRANCH   7  10
ATOM     10  C   UNL     1      -3.942  -0.465  -0.809  0.00  0.00    -0.022 A 
ATOM     11  C   UNL     1      -4.307  -0.754  -2.111  0.00  0.00    +0.009 A 
ATOM     12  C   UNL     1      -4.232   0.223  -3.084  0.00  0.00    +0.046 A 
ATOM     13  C   UNL     1      -3.792   1.496  -2.754  0.00  0.00    +0.120 A 
ATOM     14  C   UNL     1      -3.427   1.785  -1.447  0.00  0.00    +0.046 A 
ATOM     15  C   UNL     1      -3.508   0.805  -0.476  0.00  0.00    +0.009 A 
BRANCH  13  16
ATOM     16  O   UNL     1      -3.717   2.460  -3.710  0.00  0.00    -0.495 OA
ATOM     17  C   UNL     1      -3.254   3.748  -3.299  0.00  0.00    +0.277 C 
ENDBRANCH  13  16
ENDBRANCH   7  10
BRANCH   1  18
ATOM     18  C   UNL     1      -1.494  -1.866   0.231  0.00  0.00    +0.339 C 
ATOM     19  O   UNL     1      -1.030  -1.608   1.326  0.00  0.00    -0.245 OA
BRANCH  18  20
ATOM     20  O   UNL     1      -0.768  -1.632  -0.882  0.00  0.00    -0.462 OA
BRANCH  20  22
ATOM     21  C   UNL     1       1.204  -0.888  -2.065  0.00  0.00    +0.048 C 
ATOM     22  C   UNL     1       0.538  -1.081  -0.701  0.00  0.00    +0.229 C 
ENDBRANCH  20  22
ENDBRANCH  18  20
ENDBRANCH   1  18
BRANCH   2  23
ATOM     23  C   UNL     1      -1.789  -4.640  -0.210  0.00  0.00    +0.283 C 
BRANCH  23  24
ATOM     24  O   UNL     1      -1.771  -5.556   0.886  0.00  0.00    -0.455 OA
BRANCH  24  25
ATOM     25  C   UNL     1      -0.759  -6.445   0.924  0.00  0.00    +0.341 C 
ATOM     26  O   UNL     1       0.085  -6.442   0.051  0.00  0.00    -0.245 OA
BRANCH  25  27
ATOM     27  C   UNL     1      -0.675  -7.422   2.028  0.00  0.00    +0.079 A 
ATOM     28  C   UNL     1       0.376  -8.348   2.082  0.00  0.00    +0.039 A 
ATOM     29  C   UNL     1       0.409  -9.242   3.136  0.00  0.00    +0.078 A 
ATOM     30  C   UNL     1      -0.590  -9.194   4.098  0.00  0.00    +0.147 A 
ATOM     31  N   UNL     1      -1.568  -8.310   4.020  0.00  0.00    -0.241 NA
ATOM     32  C   UNL     1      -1.639  -7.436   3.038  0.00  0.00    +0.127 A 
ATOM     33 CL   UNL     1      -0.554 -10.314   5.423  0.00  0.00    -0.060 Cl
ATOM     34 CL   UNL     1       1.686 -10.412   3.256  0.00  0.00    -0.080 Cl
ENDBRANCH  25  27
ENDBRANCH  24  25
ENDBRANCH  23  24
ENDBRANCH   2  23
TORSDOF 9
