REMARK  Name = ZINC05564079
REMARK  10 active torsions:
REMARK  status: ('A' for Active; 'I' for Inactive)
REMARK    1  A    between atoms: C_1  and  C_2
REMARK    2  A    between atoms: C_2  and  C_3
REMARK    3  A    between atoms: C_3  and  C_4
REMARK    4  A    between atoms: C_4  and  C_6
REMARK    5  A    between atoms: C_4  and  N_7
REMARK    6  A    between atoms: C_10  and  O_12
REMARK    7  A    between atoms: C_13  and  C_20
REMARK    8  A    between atoms: C_17  and  O_19
REMARK    9  A    between atoms: C_25  and  O_26
REMARK   10  A    between atoms: O_26  and  C_27
REMARK                            x       y       z     vdW  Elec       q    Type
REMARK                         _______ _______ _______ _____ _____    ______ ____
ROOT
ATOM      1  N   UNL     1      -2.783  -2.570  -0.106  0.00  0.00    -0.240 N 
ATOM      2  C   UNL     1      -3.269  -3.372  -1.117  0.00  0.00    +0.163 A 
ATOM      3  C   UNL     1      -4.588  -3.602  -0.836  0.00  0.00    +0.076 A 
ATOM      4  C   UNL     1      -4.893  -2.933   0.368  0.00  0.00    +0.238 A 
ATOM      5  N   UNL     1      -3.818  -2.329   0.798  0.00  0.00    -0.131 NA
ATOM      6  C   UNL     1      -5.609  -4.391  -1.599  0.00  0.00    +0.119 C 
ATOM      7  S   UNL     1      -4.903  -5.811  -2.442  0.00  0.00    -0.138 S 
ATOM      8  C   UNL     1      -3.817  -5.139  -3.708  0.00  0.00    +0.165 C 
ATOM      9  C   UNL     1      -2.612  -4.487  -3.153  0.00  0.00    +0.199 C 
ATOM     10  N   UNL     1      -2.481  -3.783  -2.125  0.00  0.00    -0.197 NA
ENDROOT
BRANCH   6  11
ATOM     11  C   UNL     1      -6.666  -4.875  -0.639  0.00  0.00    +0.012 A 
ATOM     12  C   UNL     1      -7.831  -4.151  -0.471  0.00  0.00    +0.008 A 
ATOM     13  C   UNL     1      -8.801  -4.594   0.409  0.00  0.00    +0.001 A 
ATOM     14  C   UNL     1      -8.608  -5.762   1.123  0.00  0.00    +0.004 A 
ATOM     15  C   UNL     1      -7.445  -6.489   0.959  0.00  0.00    +0.046 A 
ATOM     16  C   UNL     1      -6.473  -6.050   0.072  0.00  0.00    +0.125 A 
BRANCH  16  17
ATOM     17  O   UNL     1      -5.330  -6.766  -0.096  0.00  0.00    -0.495 OA
ATOM     18  C   UNL     1      -5.199  -7.966   0.669  0.00  0.00    +0.277 C 
ENDBRANCH  16  17
ENDBRANCH   6  11
BRANCH   1  19
ATOM     19  C   UNL     1      -1.413  -2.063   0.004  0.00  0.00    +0.106 C 
ATOM     20  C   UNL     1      -0.784  -2.572   1.303  0.00  0.00    +0.032 C 
BRANCH  19  21
ATOM     21  C   UNL     1      -1.433  -0.534   0.013  0.00  0.00    +0.026 C 
BRANCH  21  23
ATOM     22  C   UNL     1      -0.019   1.526   0.010  0.00  0.00    +0.004 C 
ATOM     23  C   UNL     1       0.002  -0.004   0.002  0.00  0.00    -0.001 C 
ENDBRANCH  21  23
ENDBRANCH  19  21
ENDBRANCH   1  19
BRANCH   4  24
ATOM     24  O   UNL     1      -6.106  -2.924   0.984  0.00  0.00    -0.491 OA
ATOM     25  H   UNL     1      -6.229  -3.641   1.619  0.00  0.00    +0.294 HD
ENDBRANCH   4  24
BRANCH   9  26
ATOM     26  O   UNL     1      -1.481  -4.677  -3.862  0.00  0.00    -0.495 OA
ATOM     27  H   UNL     1      -0.703  -4.244  -3.486  0.00  0.00    +0.293 HD
ENDBRANCH   9  26
TORSDOF 7
