REMARK  Name = ZINC09391764
REMARK  10 active torsions:
REMARK  status: ('A' for Active; 'I' for Inactive)
REMARK    1  A    between atoms: C_1  and  C_2
REMARK    2  A    between atoms: C_5  and  C_31
REMARK    3  A    between atoms: C_6  and  C_8
REMARK    4  A    between atoms: C_8  and  N_9
REMARK    5  A    between atoms: C_11  and  S_18
REMARK    6  A    between atoms: S_18  and  C_19
REMARK    7  A    between atoms: C_19  and  C_20
REMARK    8  A    between atoms: N_22  and  C_23
REMARK    9  A    between atoms: C_25  and  C_30
REMARK   10  A    between atoms: C_27  and  C_29
REMARK                            x       y       z     vdW  Elec       q    Type
REMARK                         _______ _______ _______ _____ _____    ______ ____
ROOT
ATOM      1  N   UNL     1       2.121   4.116   0.477  0.00  0.00    -0.341 N 
ATOM      2  C   UNL     1       1.559   5.319   0.838  0.00  0.00    +0.102 A 
ATOM      3  C   UNL     1       0.252   5.147   1.113  0.00  0.00    +0.034 A 
ATOM      4  C   UNL     1      -0.043   3.723   0.914  0.00  0.00    +0.013 A 
ATOM      5  C   UNL     1       1.167   3.124   0.515  0.00  0.00    +0.050 A 
ATOM      6  C   UNL     1       1.196   1.759   0.250  0.00  0.00    +0.026 A 
ATOM      7  C   UNL     1       0.047   1.011   0.381  0.00  0.00    +0.002 A 
ATOM      8  C   UNL     1      -1.145   1.608   0.769  0.00  0.00    +0.001 A 
ATOM      9  C   UNL     1      -1.196   2.946   1.039  0.00  0.00    +0.011 A 
ENDROOT
BRANCH   1  10
ATOM     10  C   UNL     1       3.525   3.920   0.108  0.00  0.00    +0.157 C 
BRANCH  10  16
ATOM     11  C   UNL     1       3.679   1.203  -4.092  0.00  0.00    +0.044 C 
ATOM     12  C   UNL     1       3.717   2.542  -3.402  0.00  0.00    -0.050 A 
ATOM     13  C   UNL     1       3.860   3.699  -4.145  0.00  0.00    +0.003 A 
ATOM     14  C   UNL     1       3.895   4.927  -3.511  0.00  0.00    +0.004 A 
ATOM     15  C   UNL     1       3.781   4.999  -2.135  0.00  0.00    -0.046 A 
ATOM     16  C   UNL     1       3.643   3.842  -1.392  0.00  0.00    -0.025 A 
ATOM     17  C   UNL     1       3.609   2.614  -2.026  0.00  0.00    +0.009 A 
ATOM     18  C   UNL     1       3.813   6.338  -1.446  0.00  0.00    +0.044 C 
ENDBRANCH  10  16
ENDBRANCH   1  10
BRANCH   3  19
ATOM     19  S   UNL     1      -0.887   6.393   1.617  0.00  0.00    -0.114 S 
BRANCH  19  20
ATOM     20  C   UNL     1       0.112   7.906   1.668  0.00  0.00    +0.170 C 
BRANCH  20  21
ATOM     21  C   UNL     1      -0.753   9.066   2.090  0.00  0.00    +0.227 C 
ATOM     22  O   UNL     1      -1.928   8.888   2.334  0.00  0.00    -0.275 OA
ATOM     23  N   UNL     1      -0.221  10.299   2.198  0.00  0.00    -0.285 N 
ATOM     24  H   UNL     1       0.732  10.428   2.077  0.00  0.00    +0.155 HD
BRANCH  23  25
ATOM     25  C   UNL     1      -1.045  11.393   2.485  0.00  0.00    +0.034 A 
ATOM     26  C   UNL     1      -0.562  12.445   3.252  0.00  0.00    +0.026 A 
ATOM     27  C   UNL     1      -1.376  13.526   3.529  0.00  0.00    -0.048 A 
ATOM     28  C   UNL     1      -2.673  13.557   3.053  0.00  0.00    +0.006 A 
ATOM     29  C   UNL     1      -3.159  12.509   2.293  0.00  0.00    -0.048 A 
ATOM     30  C   UNL     1      -2.348  11.427   2.007  0.00  0.00    +0.026 A 
ATOM     31  C   UNL     1      -4.574  12.546   1.775  0.00  0.00    +0.044 C 
ATOM     32  C   UNL     1      -0.851  14.671   4.357  0.00  0.00    +0.044 C 
ENDBRANCH  23  25
ENDBRANCH  20  21
ENDBRANCH  19  20
ENDBRANCH   3  19
TORSDOF 6
