REMARK  Name = ZINC20765262
REMARK  7 active torsions:
REMARK  status: ('A' for Active; 'I' for Inactive)
REMARK    1  A    between atoms: C_1  and  C_2
REMARK    2  A    between atoms: C_2  and  O_3
REMARK    3  A    between atoms: O_3  and  C_4
REMARK    4  A    between atoms: C_8  and  C_11
REMARK    5  A    between atoms: C_9  and  O_10
REMARK    6  A    between atoms: C_14  and  C_27
REMARK    7  A    between atoms: C_16  and  C_19
REMARK                            x       y       z     vdW  Elec       q    Type
REMARK                         _______ _______ _______ _____ _____    ______ ____
ROOT
ATOM      1  C   UNL     1       1.190   1.507   2.504  0.00  0.00    +0.095 C 
ATOM      2  C   UNL     1       0.189   2.613   2.851  0.00  0.00    +0.079 C 
ATOM      3  C   UNL     1      -0.242   2.468   4.284  0.00  0.00    +0.047 C 
ATOM      4  N   UNL     1       0.386   1.746   5.133  0.00  0.00    -0.264 NA
ATOM      5  C   UNL     1       1.581   0.971   4.823  0.00  0.00    +0.208 C 
ATOM      6  N   UNL     1       2.197   1.444   3.577  0.00  0.00    -0.284 NA
ATOM      7  H   UNL     1       3.000   0.751   3.287  0.00  0.00    +0.125 HD
ENDROOT
BRANCH   5   8
ATOM      8  C   UNL     1       2.571   1.112   5.951  0.00  0.00    +0.045 A 
ATOM      9  C   UNL     1       3.928   1.007   5.699  0.00  0.00    +0.131 A 
ATOM     10  C   UNL     1       4.837   1.142   6.734  0.00  0.00    +0.039 A 
ATOM     11  C   UNL     1       4.388   1.372   8.022  0.00  0.00    +0.004 A 
ATOM     12  C   UNL     1       3.033   1.471   8.274  0.00  0.00    +0.020 A 
ATOM     13  C   UNL     1       2.124   1.341   7.239  0.00  0.00    +0.050 A 
ATOM     14 CL   UNL     1       0.422   1.466   7.558  0.00  0.00    -0.083 Cl
ATOM     15  F   UNL     1       4.366   0.777   4.441  0.00  0.00    -0.205 F 
ENDBRANCH   5   8
BRANCH   3  16
ATOM     16  C   UNL     1      -1.447   3.192   4.733  0.00  0.00    -0.003 A 
ATOM     17  C   UNL     1      -2.157   3.995   3.837  0.00  0.00    +0.010 A 
ATOM     18  C   UNL     1      -3.285   4.667   4.261  0.00  0.00    +0.002 A 
ATOM     19  C   UNL     1      -3.708   4.554   5.574  0.00  0.00    +0.015 A 
ATOM     20  C   UNL     1      -3.007   3.764   6.468  0.00  0.00    +0.018 A 
ATOM     21  C   UNL     1      -1.880   3.083   6.055  0.00  0.00    +0.025 A 
ATOM     22 BR   UNL     1      -3.595   3.617   8.259  0.00  0.00    -0.050 Br
ENDBRANCH   3  16
BRANCH   1  27
ATOM     23  C   UNL     1       1.845   1.831  -1.210  0.00  0.00    +0.162 A 
ATOM     24  C   UNL     1       3.103   2.412  -1.214  0.00  0.00    +0.049 A 
ATOM     25  C   UNL     1       3.738   2.693  -0.018  0.00  0.00    +0.004 A 
ATOM     26  C   UNL     1       3.120   2.397   1.183  0.00  0.00    +0.009 A 
ATOM     27  C   UNL     1       1.863   1.823   1.193  0.00  0.00    +0.015 A 
ATOM     28  C   UNL     1       1.224   1.533  -0.001  0.00  0.00    +0.163 A 
BRANCH  28  29
ATOM     29  O   UNL     1      -0.011   0.963   0.007  0.00  0.00    -0.503 OA
ATOM     30  H   UNL     1      -0.501   0.727   0.963  0.00  0.00    +0.292 HD
ENDBRANCH  28  29
BRANCH  23  31
ATOM     31  O   UNL     1       1.219   1.555  -2.385  0.00  0.00    -0.489 OA
BRANCH  31  33
ATOM     32  C   UNL     1       1.062   1.506  -4.796  0.00  0.00    +0.048 C 
ATOM     33  C   UNL     1       1.917   1.889  -3.587  0.00  0.00    +0.226 C 
ENDBRANCH  31  33
ENDBRANCH  23  31
ENDBRANCH   1  27
TORSDOF 6
