REMARK  Name = ZINC09542855
REMARK  5 active torsions:
REMARK  status: ('A' for Active; 'I' for Inactive)
REMARK    1  A    between atoms: C_1  and  C_2
REMARK    2  A    between atoms: C_5  and  C_8
REMARK    3  A    between atoms: C_10  and  C_22
REMARK    4  A    between atoms: C_12  and  C_15
REMARK    5  A    between atoms: C_20  and  O_21
REMARK                            x       y       z     vdW  Elec       q    Type
REMARK                         _______ _______ _______ _____ _____    ______ ____
ROOT
ATOM      1  C   UNL     1       1.250  -2.158  -0.021  0.00  0.00    +0.040 C 
ATOM      2  N   UNL     1       0.137  -2.789  -0.013  0.00  0.00    -0.299 NA
ATOM      3  C   UNL     1       0.020  -4.242  -0.010  0.00  0.00    +0.081 C 
ATOM      4  C   UNL     1       2.404  -4.321   0.346  0.00  0.00    -0.028 C 
ATOM      5  C   UNL     1       2.585  -2.849  -0.044  0.00  0.00    +0.044 C 
ATOM      6  N   UNL     1       1.280  -4.868  -0.438  0.00  0.00    +0.401 N 
ATOM      7  H   UNL     1       1.434  -4.676  -1.435  0.00  0.00    -0.081 HD
ATOM      8  H   UNL     1       1.223  -5.883  -0.290  0.00  0.00    -0.081 HD
ENDROOT
BRANCH   3   9
ATOM      9  C   UNL     1      -1.081  -4.654  -0.954  0.00  0.00    -0.039 A 
ATOM     10  C   UNL     1      -1.010  -5.869  -1.609  0.00  0.00    +0.006 A 
ATOM     11  C   UNL     1      -2.021  -6.250  -2.470  0.00  0.00    +0.040 A 
ATOM     12  C   UNL     1      -3.100  -5.410  -2.686  0.00  0.00    +0.137 A 
ATOM     13  C   UNL     1      -3.167  -4.190  -2.034  0.00  0.00    +0.053 A 
ATOM     14  C   UNL     1      -2.157  -3.813  -1.168  0.00  0.00    +0.022 A 
ATOM     15 BR   UNL     1      -4.640  -3.041  -2.326  0.00  0.00    -0.047 Br
ATOM     16  F   UNL     1      -4.086  -5.779  -3.533  0.00  0.00    -0.204 F 
ENDBRANCH   3   9
BRANCH   1  21
ATOM     17  C   UNL     1       1.142   3.593   0.010  0.00  0.00    +0.044 C 
ATOM     18  C   UNL     1       1.170   2.086   0.002  0.00  0.00    -0.050 A 
ATOM     19  C   UNL     1      -0.017   1.375   0.010  0.00  0.00    +0.004 A 
ATOM     20  C   UNL     1       0.002  -0.004   0.002  0.00  0.00    +0.010 A 
ATOM     21  C   UNL     1       1.222  -0.682  -0.013  0.00  0.00    -0.004 A 
ATOM     22  C   UNL     1       2.416   0.042  -0.021  0.00  0.00    +0.010 A 
ATOM     23  C   UNL     1       2.383   1.421  -0.013  0.00  0.00    +0.004 A 
ENDBRANCH   1  21
BRANCH   4  24
ATOM     24  C   UNL     1       3.661  -5.089   0.029  0.00  0.00    -0.019 A 
ATOM     25  C   UNL     1       3.784  -5.746  -1.180  0.00  0.00    +0.005 A 
ATOM     26  C   UNL     1       4.939  -6.447  -1.474  0.00  0.00    +0.000 A 
ATOM     27  C   UNL     1       5.970  -6.501  -0.554  0.00  0.00    +0.004 A 
ATOM     28  C   UNL     1       5.850  -5.851   0.659  0.00  0.00    +0.045 A 
ATOM     29  C   UNL     1       4.694  -5.142   0.954  0.00  0.00    +0.118 A 
BRANCH  29  30
ATOM     30  O   UNL     1       4.573  -4.502   2.146  0.00  0.00    -0.507 OA
ATOM     31  H   UNL     1       4.184  -5.044   2.846  0.00  0.00    +0.292 HD
ENDBRANCH  29  30
ENDBRANCH   4  24
TORSDOF 4
