REMARK  Name = ZINC36702611
REMARK  3 active torsions:
REMARK  status: ('A' for Active; 'I' for Inactive)
REMARK    1  A    between atoms: C_6  and  N_7
REMARK    2  A    between atoms: C_8  and  C_10
REMARK    3  A    between atoms: C_16  and  C_18
REMARK                            x       y       z     vdW  Elec       q    Type
REMARK                         _______ _______ _______ _____ _____    ______ ____
ROOT
ATOM      1  N   UNL     1      -1.098  -0.550   0.103  0.00  0.00    -0.284 N 
ATOM      2  C   UNL     1      -2.281   0.088   0.210  0.00  0.00    +0.238 C 
ATOM      3  O   UNL     1      -2.309   1.290   0.371  0.00  0.00    -0.273 OA
ATOM      4  H   UNL     1      -1.075  -1.500  -0.092  0.00  0.00    +0.155 HD
ENDROOT
BRANCH   1  10
ATOM      5  C   UNL     1       1.188  -0.453   0.877  0.00  0.00    +0.027 A 
ATOM      6  C   UNL     1       2.370   0.245   1.047  0.00  0.00    +0.051 A 
ATOM      7  C   UNL     1       2.468   1.556   0.615  0.00  0.00    +0.167 A 
ATOM      8  C   UNL     1       1.375   2.173   0.007  0.00  0.00    +0.169 A 
ATOM      9  C   UNL     1       0.194   1.475  -0.162  0.00  0.00    +0.073 A 
ATOM     10  C   UNL     1       0.098   0.159   0.273  0.00  0.00    +0.037 A 
ATOM     11  O   UNL     1       1.733   3.454  -0.324  0.00  0.00    -0.447 OA
ATOM     12  C   UNL     1       2.850   3.730   0.534  0.00  0.00    +0.254 C 
ATOM     13  O   UNL     1       3.500   2.457   0.661  0.00  0.00    -0.448 OA
ATOM     14  C   UNL     1       3.784   4.773  -0.087  0.00  0.00    +0.093 C 
ATOM     15  C   UNL     1       3.386   6.097   0.616  0.00  0.00    +0.008 C 
ATOM     16  C   UNL     1       3.078   5.640   2.064  0.00  0.00    +0.008 C 
ATOM     17  C   UNL     1       2.393   4.265   1.891  0.00  0.00    +0.093 C 
ENDBRANCH   1  10
BRANCH   2  18
ATOM     18  C   UNL     1      -3.567  -0.692   0.129  0.00  0.00    +0.162 C 
ATOM     19  C   UNL     1      -3.681  -1.376  -1.250  0.00  0.00    +0.033 C 
ATOM     20  C   UNL     1      -5.189  -1.235  -1.584  0.00  0.00    +0.021 C 
ATOM     21  C   UNL     1      -5.515   0.152  -0.976  0.00  0.00    +0.108 C 
ATOM     22  N   UNL     1      -4.714   0.218   0.264  0.00  0.00    -0.289 N 
ATOM     23  C   UNL     1      -4.986   0.984   1.339  0.00  0.00    +0.222 C 
ATOM     24  O   UNL     1      -4.211   1.019   2.271  0.00  0.00    -0.275 OA
BRANCH  23  25
ATOM     25  C   UNL     1      -6.255   1.797   1.384  0.00  0.00    +0.048 C 
ATOM     26  C   UNL     1      -6.315   2.715   0.161  0.00  0.00    +0.019 C 
ATOM     27  C   UNL     1      -7.603   3.540   0.206  0.00  0.00    -0.009 C 
ATOM     28  C   UNL     1      -7.622   4.386   1.481  0.00  0.00    +0.007 C 
ATOM     29  C   UNL     1      -7.562   3.468   2.703  0.00  0.00    -0.009 C 
ATOM     30  C   UNL     1      -6.274   2.643   2.658  0.00  0.00    +0.019 C 
ATOM     31  C   UNL     1      -8.769   2.529   2.696  0.00  0.00    +0.007 C 
ATOM     32  C   UNL     1      -8.750   1.683   1.422  0.00  0.00    -0.009 C 
ATOM     33  C   UNL     1      -8.811   2.601   0.199  0.00  0.00    +0.007 C 
ATOM     34  C   UNL     1      -7.462   0.858   1.377  0.00  0.00    +0.019 C 
ENDBRANCH  23  25
ENDBRANCH   2  18
TORSDOF 3
