REMARK  Name = ZINC24204913
REMARK  6 active torsions:
REMARK  status: ('A' for Active; 'I' for Inactive)
REMARK    1  A    between atoms: C_1  and  C_2
REMARK    2  A    between atoms: C_3  and  C_8
REMARK    3  A    between atoms: C_8  and  C_9
REMARK    4  A    between atoms: C_9  and  C_10
REMARK    5  A    between atoms: C_10  and  N_11
REMARK    6  A    between atoms: C_23  and  C_25
REMARK                            x       y       z     vdW  Elec       q    Type
REMARK                         _______ _______ _______ _____ _____    ______ ____
ROOT
ATOM      1  N   UNL     1       2.699   5.558  -2.810  0.00  0.00    -0.328 N 
ATOM      2  C   UNL     1       3.115   6.851  -3.059  0.00  0.00    +0.130 A 
ATOM      3  C   UNL     1       3.370   7.300  -4.434  0.00  0.00    +0.040 A 
ATOM      4  C   UNL     1       3.193   6.453  -5.529  0.00  0.00    +0.013 A 
ATOM      5  C   UNL     1       3.436   6.920  -6.791  0.00  0.00    +0.001 A 
ATOM      6  C   UNL     1       3.854   8.227  -6.993  0.00  0.00    +0.002 A 
ATOM      7  C   UNL     1       4.031   9.082  -5.925  0.00  0.00    +0.028 A 
ATOM      8  C   UNL     1       3.788   8.628  -4.636  0.00  0.00    +0.078 A 
ATOM      9  N   UNL     1       3.951   9.447  -3.532  0.00  0.00    -0.212 N 
ATOM     10  C   UNL     1       3.701   8.963  -2.277  0.00  0.00    +0.177 A 
ATOM     11  N   UNL     1       3.296   7.697  -2.068  0.00  0.00    -0.211 NA
ATOM     12  C   UNL     1       3.948  10.003  -1.390  0.00  0.00    +0.108 A 
ATOM     13  C   UNL     1       4.347  11.107  -2.134  0.00  0.00    +0.081 A 
ATOM     14  N   UNL     1       4.350  10.784  -3.405  0.00  0.00    -0.168 NA
ATOM     15  C   UNL     1       4.716  12.456  -1.572  0.00  0.00    +0.069 C 
ATOM     16 CL   UNL     1       3.788   9.936   0.337  0.00  0.00    -0.078 Cl
ATOM     17  H   UNL     1       2.551   4.857  -3.644  0.00  0.00    +0.147 HD
ENDROOT
BRANCH   1  18
ATOM     18  C   UNL     1       2.454   5.120  -1.433  0.00  0.00    +0.103 C 
BRANCH  18  19
ATOM     19  C   UNL     1       2.005   3.657  -1.436  0.00  0.00    +0.023 C 
BRANCH  19  20
ATOM     20  C   UNL     1       1.749   3.200   0.002  0.00  0.00    +0.040 C 
BRANCH  20  23
ATOM     21  C   UNL     1       3.626   0.698  -0.029  0.00  0.00    +0.065 C 
ATOM     22  C   UNL     1       2.119   0.677  -0.015  0.00  0.00    +0.036 A 
ATOM     23  C   UNL     1       1.307   1.759  -0.001  0.00  0.00    -0.007 A 
ATOM     24  C   UNL     1      -0.016   1.304   0.009  0.00  0.00    +0.138 A 
ATOM     25  N   UNL     1       0.002  -0.004   0.002  0.00  0.00    -0.182 NA
ATOM     26  N   UNL     1       1.339  -0.424  -0.013  0.00  0.00    -0.282 N 
ATOM     27  H   UNL     1       1.797  -1.423  -0.023  0.00  0.00    +0.189 HD
ENDBRANCH  20  23
ENDBRANCH  19  20
ENDBRANCH  18  19
ENDBRANCH   1  18
TORSDOF 4
