REMARK  Name = ZINC49601985
REMARK  14 active torsions:
REMARK  status: ('A' for Active; 'I' for Inactive)
REMARK    1  A    between atoms: C_1  and  C_2
REMARK    2  A    between atoms: C_3  and  C_22
REMARK    3  A    between atoms: C_4  and  C_21
REMARK    4  A    between atoms: C_7  and  C_8
REMARK    5  A    between atoms: C_8  and  N_10
REMARK    6  A    between atoms: C_13  and  C_20
REMARK    7  A    between atoms: C_14  and  C_16
REMARK    8  A    between atoms: C_16  and  O_18
REMARK    9  A    between atoms: O_18  and  C_19
REMARK   10  A    between atoms: C_22  and  O_24
REMARK   11  A    between atoms: O_24  and  C_25
REMARK   12  A    between atoms: C_25  and  C_26
REMARK   13  A    between atoms: C_26  and  O_27
REMARK   14  A    between atoms: O_27  and  C_28
REMARK                            x       y       z     vdW  Elec       q    Type
REMARK                         _______ _______ _______ _____ _____    ______ ____
ROOT
ATOM      1  C   UNL     1      -0.018   1.503   0.010  0.00  0.00    +0.047 C 
ATOM      2  C   UNL     1       0.002  -0.004   0.002  0.00  0.00    -0.006 A 
ATOM      3  C   UNL     1       0.008  -0.839  -1.140  0.00  0.00    +0.083 A 
ATOM      4  C   UNL     1       0.029  -2.145  -0.686  0.00  0.00    +0.028 A 
ATOM      5  N   UNL     1       0.035  -2.125   0.657  0.00  0.00    -0.354 N 
ATOM      6  H   UNL     1       0.048  -2.908   1.230  0.00  0.00    +0.166 HD
ATOM      7  C   UNL     1       0.024  -0.820   1.092  0.00  0.00    +0.108 A 
ATOM      8  C   UNL     1       0.041  -3.379  -1.551  0.00  0.00    +0.064 C 
ENDROOT
BRANCH   7   9
ATOM      9  C   UNL     1       0.032  -0.380   2.497  0.00  0.00    +0.286 C 
ATOM     10  O   UNL     1       0.019   0.811   2.764  0.00  0.00    -0.266 OA
BRANCH   9  11
ATOM     11  N   UNL     1       0.054  -1.286   3.482  0.00  0.00    -0.151 NA
ATOM     12  C   UNL     1       0.062  -0.889   4.750  0.00  0.00    +0.164 A 
ATOM     13  N   UNL     1       0.089  -1.658   5.878  0.00  0.00    -0.339 N 
ATOM     14  C   UNL     1       0.092  -1.058   7.082  0.00  0.00    +0.036 A 
ATOM     15  C   UNL     1       0.067   0.302   7.094  0.00  0.00    +0.118 A 
ATOM     16  S   UNL     1       0.047   0.682   5.351  0.00  0.00    -0.046 S 
ATOM     17  C   UNL     1       0.121  -1.856   8.360  0.00  0.00    +0.065 C 
ATOM     18  H   UNL     1       0.105  -2.626   5.812  0.00  0.00    +0.167 HD
BRANCH  15  19
ATOM     19  C   UNL     1       0.062   1.216   8.239  0.00  0.00    +0.347 C 
ATOM     20  O   UNL     1       0.083   0.772   9.371  0.00  0.00    -0.244 OA
BRANCH  19  21
ATOM     21  O   UNL     1       0.036   2.549   8.038  0.00  0.00    -0.464 OA
ATOM     22  C   UNL     1       0.033   3.381   9.200  0.00  0.00    +0.280 C 
ENDBRANCH  19  21
ENDBRANCH  15  19
ENDBRANCH   9  11
ENDBRANCH   7   9
BRANCH   3  23
ATOM     23  C   UNL     1      -0.005  -0.401  -2.546  0.00  0.00    +0.341 C 
ATOM     24  O   UNL     1       1.042  -0.205  -3.131  0.00  0.00    -0.245 OA
BRANCH  23  25
ATOM     25  O   UNL     1      -1.178  -0.217  -3.183  0.00  0.00    -0.459 OA
BRANCH  25  26
ATOM     26  C   UNL     1      -1.116   0.209  -4.546  0.00  0.00    +0.260 C 
BRANCH  26  27
ATOM     27  C   UNL     1      -2.534   0.363  -5.097  0.00  0.00    +0.200 C 
BRANCH  27  28
ATOM     28  O   UNL     1      -3.204   1.417  -4.402  0.00  0.00    -0.380 OA
ATOM     29  C   UNL     1      -4.544   1.645  -4.842  0.00  0.00    +0.194 C 
ENDBRANCH  27  28
ENDBRANCH  26  27
ENDBRANCH  25  26
ENDBRANCH  23  25
ENDBRANCH   3  23
TORSDOF 9
