REMARK  Name = ZINC63358464
REMARK  5 active torsions:
REMARK  status: ('A' for Active; 'I' for Inactive)
REMARK    1  A    between atoms: C_8  and  C_11
REMARK    2  A    between atoms: C_11  and  N_12
REMARK    3  A    between atoms: N_15  and  C_16
REMARK    4  A    between atoms: C_16  and  C_17
REMARK    5  A    between atoms: C_22  and  N_23
REMARK                            x       y       z     vdW  Elec       q    Type
REMARK                         _______ _______ _______ _____ _____    ______ ____
ROOT
ATOM      1  N   UNL     1       3.899  -4.767   0.597  0.00  0.00    -0.299 N 
ATOM      2  C   UNL     1       4.189  -6.074   0.443  0.00  0.00    +0.300 C 
ATOM      3  O   UNL     1       3.402  -6.809  -0.122  0.00  0.00    -0.253 OA
ATOM      4  N   UNL     1       5.352  -6.566   0.914  0.00  0.00    -0.295 N 
ATOM      5  H   UNL     1       4.527  -4.181   1.048  0.00  0.00    +0.150 HD
ATOM      6  H   UNL     1       5.980  -5.980   1.365  0.00  0.00    +0.151 HD
ENDROOT
BRANCH   1   7
ATOM      7  C   UNL     1       2.636  -4.231   0.085  0.00  0.00    +0.113 C 
BRANCH   7  15
ATOM      8  C   UNL     1      -0.017   1.377   0.010  0.00  0.00    +0.000 A 
ATOM      9  C   UNL     1       1.172   2.084   0.002  0.00  0.00    +0.004 A 
ATOM     10  C   UNL     1       2.375   1.409  -0.011  0.00  0.00    +0.046 A 
ATOM     11  C   UNL     1       2.398   0.018  -0.018  0.00  0.00    +0.124 A 
ATOM     12  C   UNL     1       1.207  -0.687  -0.014  0.00  0.00    -0.005 A 
ATOM     13  C   UNL     1       0.002  -0.004   0.002  0.00  0.00    +0.007 A 
ATOM     14  C   UNL     1       1.187  -2.194  -0.033  0.00  0.00    +0.047 C 
ATOM     15  C   UNL     1       2.556  -2.734   0.389  0.00  0.00    +0.048 C 
ATOM     16  C   UNL     1       3.634  -1.986  -0.407  0.00  0.00    +0.234 C 
ATOM     17  O   UNL     1       3.602  -0.610  -0.025  0.00  0.00    -0.491 OA
ENDBRANCH   7  15
ENDBRANCH   1   7
BRANCH   4  18
ATOM     18  C   UNL     1       5.667  -7.987   0.746  0.00  0.00    +0.143 C 
BRANCH  18  19
ATOM     19  C   UNL     1       7.014  -8.279   1.357  0.00  0.00    -0.005 A 
ATOM     20  C   UNL     1       8.133  -8.369   0.552  0.00  0.00    +0.007 A 
ATOM     21  C   UNL     1       9.369  -8.636   1.111  0.00  0.00    +0.000 A 
ATOM     22  C   UNL     1       9.489  -8.814   2.477  0.00  0.00    +0.002 A 
ATOM     23  C   UNL     1       8.373  -8.725   3.287  0.00  0.00    +0.028 A 
ATOM     24  C   UNL     1       7.132  -8.451   2.729  0.00  0.00    +0.070 A 
BRANCH  24  25
ATOM     25  N   UNL     1       5.999  -8.354   3.549  0.00  0.00    -0.240 N 
ATOM     26  C   UNL     1       5.976  -8.493   4.894  0.00  0.00    +0.114 A 
ATOM     27  C   UNL     1       4.697  -8.328   5.303  0.00  0.00    +0.041 A 
ATOM     28  C   UNL     1       3.912  -8.079   4.172  0.00  0.00    +0.135 A 
ATOM     29  N   UNL     1       4.692  -8.088   3.121  0.00  0.00    -0.175 NA
ENDBRANCH  24  25
ENDBRANCH  18  19
ENDBRANCH   4  18
TORSDOF 5
