REMARK  Name = ZINC13164764
REMARK  11 active torsions:
REMARK  status: ('A' for Active; 'I' for Inactive)
REMARK    1  A    between atoms: C_1  and  C_2
REMARK    2  A    between atoms: C_2  and  C_3
REMARK    3  A    between atoms: C_3  and  N_4
REMARK    4  A    between atoms: C_10  and  S_11
REMARK    5  A    between atoms: S_11  and  C_12
REMARK    6  A    between atoms: C_12  and  C_13
REMARK    7  A    between atoms: C_19  and  C_35
REMARK    8  A    between atoms: C_20  and  C_24
REMARK    9  A    between atoms: N_26  and  C_27
REMARK   10  A    between atoms: C_30  and  C_34
REMARK   11  A    between atoms: C_32  and  C_33
REMARK                            x       y       z     vdW  Elec       q    Type
REMARK                         _______ _______ _______ _____ _____    ______ ____
ROOT
ATOM      1  C   UNL     1      -1.396  -3.464   5.226  0.00  0.00    +0.121 A 
ATOM      2  N   UNL     1      -1.364  -4.475   6.129  0.00  0.00    -0.310 N 
ATOM      3  H   UNL     1      -1.355  -5.393   5.814  0.00  0.00    +0.170 HD
ATOM      4  C   UNL     1      -1.343  -4.232   7.454  0.00  0.00    +0.260 A 
ATOM      5  O   UNL     1      -1.312  -5.148   8.256  0.00  0.00    -0.267 OA
ATOM      6  C   UNL     1      -1.356  -2.823   7.909  0.00  0.00    +0.076 A 
ATOM      7  C   UNL     1      -1.339  -2.316   9.210  0.00  0.00    -0.017 A 
ATOM      8  C   UNL     1      -1.356  -0.967   9.413  0.00  0.00    +0.080 A 
ATOM      9  S   UNL     1      -1.398  -0.318   7.750  0.00  0.00    -0.064 S 
ATOM     10  C   UNL     1      -1.391  -1.862   6.873  0.00  0.00    +0.116 A 
ATOM     11  N   UNL     1      -1.404  -2.211   5.593  0.00  0.00    -0.226 NA
ATOM     12  C   UNL     1      -1.302  -3.256  10.387  0.00  0.00    +0.046 C 
ENDROOT
BRANCH   8  13
ATOM     13  C   UNL     1      -1.343  -0.232  10.681  0.00  0.00    +0.255 C 
ATOM     14  O   UNL     1      -1.314  -0.839  11.736  0.00  0.00    -0.269 OA
ATOM     15  N   UNL     1      -1.364   1.115  10.680  0.00  0.00    -0.281 N 
ATOM     16  H   UNL     1      -1.307   1.601   9.842  0.00  0.00    +0.155 HD
BRANCH  15  17
ATOM     17  C   UNL     1      -1.469   1.814  11.887  0.00  0.00    +0.037 A 
ATOM     18  C   UNL     1      -2.052   1.210  12.993  0.00  0.00    +0.024 A 
ATOM     19  C   UNL     1      -2.153   1.903  14.183  0.00  0.00    +0.005 A 
ATOM     20  C   UNL     1      -1.675   3.197  14.274  0.00  0.00    -0.050 A 
ATOM     21  C   UNL     1      -1.094   3.802  13.175  0.00  0.00    +0.008 A 
ATOM     22  C   UNL     1      -0.985   3.112  11.983  0.00  0.00    -0.029 A 
ATOM     23  C   UNL     1      -0.346   3.770  10.787  0.00  0.00    +0.045 C 
ATOM     24  C   UNL     1      -1.788   3.951  15.575  0.00  0.00    +0.044 C 
ENDBRANCH  15  17
ENDBRANCH   8  13
BRANCH   1  25
ATOM     25  C   UNL     1      -1.418  -3.795   3.756  0.00  0.00    +0.151 C 
BRANCH  25  26
ATOM     26  S   UNL     1      -1.452  -2.260   2.791  0.00  0.00    -0.078 S 
BRANCH  26  33
ATOM     27  N   UNL     1      -1.504  -1.998   0.005  0.00  0.00    -0.271 N 
ATOM     28  C   UNL     1      -1.508  -2.781  -1.092  0.00  0.00    +0.345 A 
ATOM     29  O   UNL     1      -1.526  -2.399  -2.248  0.00  0.00    -0.245 OA
ATOM     30  N   UNL     1      -1.488  -4.064  -0.676  0.00  0.00    -0.226 N 
ATOM     31  H   UNL     1      -1.486  -4.851  -1.243  0.00  0.00    +0.194 HD
ATOM     32  N   UNL     1      -1.472  -4.051   0.725  0.00  0.00    -0.145 NA
ATOM     33  C   UNL     1      -1.475  -2.810   1.117  0.00  0.00    +0.192 A 
BRANCH  27  34
ATOM     34  C   UNL     1      -1.520  -0.533   0.014  0.00  0.00    +0.129 C 
BRANCH  34  36
ATOM     35  C   UNL     1      -0.101   1.523   0.000  0.00  0.00    +0.005 C 
ATOM     36  C   UNL     1      -0.084  -0.007  -0.008  0.00  0.00    +0.018 C 
ENDBRANCH  34  36
ENDBRANCH  27  34
ENDBRANCH  26  33
ENDBRANCH  25  26
ENDBRANCH   1  25
TORSDOF 7
