REMARK  Name = ZINC41584991
REMARK  10 active torsions:
REMARK  status: ('A' for Active; 'I' for Inactive)
REMARK    1  A    between atoms: C_1  and  C_2
REMARK    2  A    between atoms: C_2  and  O_3
REMARK    3  A    between atoms: O_3  and  C_4
REMARK    4  A    between atoms: C_7  and  C_10
REMARK    5  A    between atoms: C_15  and  C_39
REMARK    6  A    between atoms: C_17  and  O_38
REMARK    7  A    between atoms: C_18  and  C_21
REMARK    8  A    between atoms: C_21  and  N_22
REMARK    9  A    between atoms: N_25  and  C_28
REMARK   10  A    between atoms: C_28  and  C_29
REMARK                            x       y       z     vdW  Elec       q    Type
REMARK                         _______ _______ _______ _____ _____    ______ ____
ROOT
ATOM      1  C   UNL     1       1.141  -6.024   1.761  0.00  0.00    +0.058 C 
ATOM      2  C   UNL     1       1.867  -6.540   2.786  0.00  0.00    +0.176 C 
ATOM      3  C   UNL     1       2.165  -7.962   3.010  0.00  0.00    +0.232 C 
ATOM      4  O   UNL     1       1.821  -8.912   2.330  0.00  0.00    -0.283 OA
ATOM      5  C   UNL     1       2.975  -7.980   4.242  0.00  0.00    +0.071 A 
ATOM      6  C   UNL     1       3.567  -9.005   4.980  0.00  0.00    -0.033 A 
ATOM      7  C   UNL     1       4.276  -8.710   6.110  0.00  0.00    +0.050 A 
ATOM      8  C   UNL     1       4.408  -7.388   6.526  0.00  0.00    +0.122 A 
ATOM      9  C   UNL     1       3.825  -6.359   5.804  0.00  0.00    +0.020 A 
ATOM     10  C   UNL     1       3.102  -6.643   4.652  0.00  0.00    +0.145 A 
ATOM     11  O   UNL     1       2.454  -5.837   3.783  0.00  0.00    -0.451 OA
ATOM     12  C   UNL     1       3.424 -10.437   4.532  0.00  0.00    +0.045 C 
ENDROOT
BRANCH   1  16
ATOM     13  C   UNL     1       0.807  -1.823   1.302  0.00  0.00    +0.121 A 
ATOM     14  C   UNL     1       1.441  -2.349   2.422  0.00  0.00    +0.046 A 
ATOM     15  C   UNL     1       1.552  -3.712   2.576  0.00  0.00    +0.011 A 
ATOM     16  C   UNL     1       1.025  -4.570   1.602  0.00  0.00    -0.021 A 
ATOM     17  C   UNL     1       0.387  -4.034   0.476  0.00  0.00    +0.011 A 
ATOM     18  C   UNL     1       0.278  -2.669   0.335  0.00  0.00    +0.046 A 
BRANCH  13  19
ATOM     19  O   UNL     1       0.700  -0.477   1.155  0.00  0.00    -0.492 OA
BRANCH  19  21
ATOM     20  C   UNL     1       1.049   1.811   1.849  0.00  0.00    +0.048 C 
ATOM     21  C   UNL     1       1.266   0.335   2.186  0.00  0.00    +0.225 C 
ENDBRANCH  19  21
ENDBRANCH  13  19
ENDBRANCH   1  16
BRANCH   8  22
ATOM     22  O   UNL     1       5.114  -7.104   7.651  0.00  0.00    -0.506 OA
ATOM     23  H   UNL     1       6.055  -6.944   7.494  0.00  0.00    +0.292 HD
ENDBRANCH   8  22
BRANCH   9  24
ATOM     24  C   UNL     1       3.977  -4.933   6.267  0.00  0.00    -0.035 C 
BRANCH  24  25
ATOM     25  N   UNL     1       5.180  -4.347   5.662  0.00  0.00    +0.384 N 
ATOM     26  C   UNL     1       5.006  -4.268   4.205  0.00  0.00    -0.063 C 
ATOM     27  C   UNL     1       6.267  -3.675   3.572  0.00  0.00    +0.066 C 
ATOM     28  N   UNL     1       6.506  -2.335   4.128  0.00  0.00    -0.302 NA
ATOM     29  C   UNL     1       6.658  -2.395   5.589  0.00  0.00    +0.066 C 
ATOM     30  C   UNL     1       5.394  -2.999   6.205  0.00  0.00    -0.063 C 
ATOM     31  H   UNL     1       5.979  -4.926   5.874  0.00  0.00    -0.081 HD
BRANCH  28  32
ATOM     32  C   UNL     1       7.678  -1.708   3.503  0.00  0.00    +0.119 C 
BRANCH  32  33
ATOM     33  C   UNL     1       7.750  -0.259   3.910  0.00  0.00    -0.030 A 
ATOM     34  C   UNL     1       7.111   0.704   3.151  0.00  0.00    +0.009 A 
ATOM     35  C   UNL     1       7.173   2.034   3.521  0.00  0.00    +0.050 A 
ATOM     36  C   UNL     1       7.877   2.406   4.654  0.00  0.00    +0.166 A 
ATOM     37  C   UNL     1       8.521   1.437   5.420  0.00  0.00    +0.167 A 
ATOM     38  C   UNL     1       8.449   0.105   5.046  0.00  0.00    +0.054 A 
ATOM     39  O   UNL     1       9.137   2.050   6.472  0.00  0.00    -0.453 OA
ATOM     40  C   UNL     1       9.207   3.444   6.117  0.00  0.00    +0.466 C 
ATOM     41  O   UNL     1       8.090   3.627   5.227  0.00  0.00    -0.453 OA
ENDBRANCH  32  33
ENDBRANCH  28  32
ENDBRANCH  24  25
ENDBRANCH   9  24
TORSDOF 8
