REMARK  Name = ZINC39974438
REMARK  12 active torsions:
REMARK  status: ('A' for Active; 'I' for Inactive)
REMARK    1  A    between atoms: C_1  and  C_2
REMARK    2  A    between atoms: C_2  and  C_3
REMARK    3  A    between atoms: C_3  and  C_4
REMARK    4  A    between atoms: C_4  and  C_5
REMARK    5  A    between atoms: C_5  and  N_6
REMARK    6  A    between atoms: N_9  and  C_12
REMARK    7  A    between atoms: C_12  and  N_14
REMARK    8  A    between atoms: N_14  and  C_15
REMARK    9  A    between atoms: C_18  and  S_21
REMARK   10  A    between atoms: S_21  and  N_24
REMARK   11  A    between atoms: C_25  and  C_33
REMARK   12  A    between atoms: C_30  and  C_32
REMARK                            x       y       z     vdW  Elec       q    Type
REMARK                         _______ _______ _______ _____ _____    ______ ____
ROOT
ATOM      1  C   UNL     1      -5.174  -8.096   3.100  0.00  0.00    +0.033 A 
ATOM      2  C   UNL     1      -4.633  -9.021   3.983  0.00  0.00    +0.025 A 
ATOM      3  C   UNL     1      -5.366 -10.132   4.351  0.00  0.00    +0.030 A 
ATOM      4  C   UNL     1      -6.636 -10.325   3.841  0.00  0.00    +0.106 A 
ATOM      5  C   UNL     1      -7.178  -9.406   2.961  0.00  0.00    +0.030 A 
ATOM      6  C   UNL     1      -6.452  -8.289   2.593  0.00  0.00    +0.025 A 
ENDROOT
BRANCH   4   7
ATOM      7  S   UNL     1      -7.567 -11.745   4.312  0.00  0.00    +0.061 S 
ATOM      8  O   UNL     1      -8.387 -12.080   3.201  0.00  0.00    -0.153 OA
ATOM      9  O   UNL     1      -6.646 -12.663   4.884  0.00  0.00    -0.153 OA
BRANCH   7  10
ATOM     10  N   UNL     1      -8.589 -11.278   5.529  0.00  0.00    -0.171 NA
ATOM     11  C   UNL     1     -10.000 -10.979   5.249  0.00  0.00    +0.077 C 
ATOM     12  C   UNL     1     -10.876 -11.818   6.184  0.00  0.00    +0.020 C 
ATOM     13  C   UNL     1     -10.456 -11.566   7.634  0.00  0.00    +0.003 C 
ATOM     14  C   UNL     1      -8.999 -11.993   7.826  0.00  0.00    +0.020 C 
ATOM     15  C   UNL     1      -8.102 -11.162   6.911  0.00  0.00    +0.077 C 
ATOM     16  C   UNL     1      -6.666 -11.681   6.995  0.00  0.00    +0.026 C 
ATOM     17  C   UNL     1     -10.266  -9.492   5.489  0.00  0.00    +0.026 C 
ENDBRANCH   7  10
ENDBRANCH   4   7
BRANCH   1  18
ATOM     18  N   UNL     1      -4.434  -6.969   2.725  0.00  0.00    -0.297 N 
ATOM     19  H   UNL     1      -4.844  -6.279   2.180  0.00  0.00    +0.154 HD
BRANCH  18  20
ATOM     20  C   UNL     1      -3.153  -6.842   3.122  0.00  0.00    +0.137 C 
ATOM     21  S   UNL     1      -2.765  -5.839   4.454  0.00  0.00    -0.018 S 
BRANCH  20  25
ATOM     22  N   UNL     1      -0.222  -8.089   0.560  0.00  0.00    +0.382 N 
ATOM     23  C   UNL     1       0.015  -7.008   1.525  0.00  0.00    -0.060 C 
ATOM     24  C   UNL     1      -0.761  -7.296   2.814  0.00  0.00    +0.088 C 
ATOM     25  N   UNL     1      -2.176  -7.504   2.470  0.00  0.00    -0.316 N 
ATOM     26  C   UNL     1      -2.495  -8.455   1.394  0.00  0.00    +0.088 C 
ATOM     27  C   UNL     1      -1.637  -8.112   0.172  0.00  0.00    -0.060 C 
ATOM     28  H   UNL     1       0.025  -8.972   0.981  0.00  0.00    -0.082 HD
BRANCH  22  29
ATOM     29  C   UNL     1       0.608  -7.869  -0.632  0.00  0.00    -0.079 C 
BRANCH  29  30
ATOM     30  C   UNL     1       2.086  -7.968  -0.251  0.00  0.00    -0.019 C 
BRANCH  30  31
ATOM     31  C   UNL     1       2.950  -7.739  -1.493  0.00  0.00    -0.002 C 
BRANCH  31  33
ATOM     32  C   UNL     1       5.292  -7.610  -2.354  0.00  0.00    +0.004 C 
ATOM     33  C   UNL     1       4.428  -7.839  -1.112  0.00  0.00    -0.003 C 
ENDBRANCH  31  33
ENDBRANCH  30  31
ENDBRANCH  29  30
ENDBRANCH  22  29
ENDBRANCH  20  25
ENDBRANCH  18  20
ENDBRANCH   1  18
TORSDOF 9
