REMARK  Name = ZINC20416482
REMARK  10 active torsions:
REMARK  status: ('A' for Active; 'I' for Inactive)
REMARK    1  A    between atoms: C_1  and  C_2
REMARK    2  A    between atoms: C_2  and  C_3
REMARK    3  A    between atoms: C_3  and  C_5
REMARK    4  A    between atoms: C_3  and  N_21
REMARK    5  A    between atoms: N_7  and  C_8
REMARK    6  A    between atoms: C_8  and  C_9
REMARK    7  A    between atoms: C_9  and  C_10
REMARK    8  A    between atoms: C_10  and  N_11
REMARK    9  A    between atoms: C_13  and  C_20
REMARK   10  A    between atoms: C_16  and  C_19
REMARK                            x       y       z     vdW  Elec       q    Type
REMARK                         _______ _______ _______ _____ _____    ______ ____
ROOT
ATOM      1  C   UNL     1       0.718  -0.497  -1.257  0.00  0.00    +0.173 C 
ENDROOT
BRANCH   1   2
ATOM      2  N   UNL     1       2.125  -0.091  -1.209  0.00  0.00    -0.323 N 
ATOM      3  C   UNL     1       2.744   0.715  -2.140  0.00  0.00    +0.051 A 
ATOM      4  C   UNL     1       2.289   1.338  -3.300  0.00  0.00    +0.026 A 
ATOM      5  C   UNL     1       3.152   2.103  -4.053  0.00  0.00    +0.002 A 
ATOM      6  C   UNL     1       4.476   2.261  -3.667  0.00  0.00    +0.001 A 
ATOM      7  C   UNL     1       4.943   1.659  -2.533  0.00  0.00    +0.010 A 
ATOM      8  C   UNL     1       4.086   0.879  -1.756  0.00  0.00    +0.009 A 
ATOM      9  C   UNL     1       4.257   0.114  -0.514  0.00  0.00    +0.033 A 
ATOM     10  C   UNL     1       5.349  -0.116   0.350  0.00  0.00    +0.143 A 
ATOM     11  N   UNL     1       5.203  -0.860   1.411  0.00  0.00    -0.179 NA
ATOM     12  N   UNL     1       3.973  -1.448   1.722  0.00  0.00    -0.242 N 
ATOM     13  C   UNL     1       2.897  -1.262   0.932  0.00  0.00    +0.289 A 
ATOM     14  O   UNL     1       1.829  -1.780   1.214  0.00  0.00    -0.264 OA
ATOM     15  C   UNL     1       3.017  -0.455  -0.225  0.00  0.00    +0.119 A 
ATOM     16  H   UNL     1       3.894  -1.997   2.518  0.00  0.00    +0.192 HD
ENDBRANCH   1   2
BRANCH   1  17
ATOM     17  C   UNL     1       0.632  -2.000  -1.327  0.00  0.00    +0.236 C 
ATOM     18  O   UNL     1       1.645  -2.666  -1.337  0.00  0.00    -0.274 OA
ATOM     19  N   UNL     1      -0.572  -2.604  -1.380  0.00  0.00    -0.314 N 
ATOM     20  H   UNL     1      -1.383  -2.072  -1.372  0.00  0.00    +0.149 HD
BRANCH  19  21
ATOM     21  C   UNL     1      -0.656  -4.065  -1.449  0.00  0.00    +0.102 C 
BRANCH  21  22
ATOM     22  C   UNL     1      -2.125  -4.490  -1.498  0.00  0.00    +0.000 C 
BRANCH  22  23
ATOM     23  C   UNL     1      -2.213  -6.016  -1.570  0.00  0.00    -0.077 C 
BRANCH  23  24
ATOM     24  N   UNL     1      -3.624  -6.423  -1.617  0.00  0.00    +0.380 N 
ATOM     25  C   UNL     1      -4.283  -6.046  -0.361  0.00  0.00    -0.076 C 
ATOM     26  C   UNL     1      -5.771  -6.395  -0.437  0.00  0.00    -0.031 C 
ATOM     27  C   UNL     1      -5.925  -7.902  -0.665  0.00  0.00    +0.003 C 
ATOM     28  C   UNL     1      -5.171  -8.296  -1.938  0.00  0.00    -0.031 C 
ATOM     29  C   UNL     1      -3.705  -7.876  -1.807  0.00  0.00    -0.076 C 
ATOM     30  C   UNL     1      -5.255  -9.811  -2.133  0.00  0.00    +0.005 C 
ATOM     31  C   UNL     1      -6.455  -6.003   0.874  0.00  0.00    +0.005 C 
ATOM     32  H   UNL     1      -4.081  -5.958  -2.388  0.00  0.00    -0.082 HD
ENDBRANCH  23  24
ENDBRANCH  22  23
ENDBRANCH  21  22
ENDBRANCH  19  21
ENDBRANCH   1  17
BRANCH   1  34
ATOM     33  C   UNL     1      -0.019   1.526   0.010  0.00  0.00    +0.006 C 
ATOM     34  C   UNL     1       0.002  -0.004   0.002  0.00  0.00    +0.031 C 
ENDBRANCH   1  34
TORSDOF 7
