REMARK  Name = ZINC12562459
REMARK  12 active torsions:
REMARK  status: ('A' for Active; 'I' for Inactive)
REMARK    1  A    between atoms: C_1  and  C_2
REMARK    2  A    between atoms: C_2  and  C_3
REMARK    3  A    between atoms: C_3  and  C_4
REMARK    4  A    between atoms: C_3  and  C_6
REMARK    5  A    between atoms: C_4  and  C_5
REMARK    6  A    between atoms: C_6  and  C_8
REMARK    7  A    between atoms: C_6  and  N_54
REMARK    8  A    between atoms: C_8  and  N_9
REMARK    9  A    between atoms: N_9  and  C_10
REMARK   10  A    between atoms: C_13  and  S_19
REMARK   11  A    between atoms: C_15  and  N_16
REMARK   12  A    between atoms: S_19  and  N_22
REMARK                            x       y       z     vdW  Elec       q    Type
REMARK                         _______ _______ _______ _____ _____    ______ ____
ROOT
ATOM      1  N   UNL     1      -2.630  -0.159   2.173  0.00  0.00    -0.344 N 
ATOM      2  H   UNL     1      -2.396   0.280   3.005  0.00  0.00    +0.146 HD
ENDROOT
BRANCH   1   3
ATOM      3  C   UNL     1      -3.713  -1.039   2.128  0.00  0.00    +0.058 A 
ATOM      4  C   UNL     1      -3.965  -1.776   0.978  0.00  0.00    +0.027 A 
ATOM      5  C   UNL     1      -5.037  -2.645   0.937  0.00  0.00    +0.030 A 
ATOM      6  C   UNL     1      -5.859  -2.784   2.041  0.00  0.00    +0.107 A 
ATOM      7  C   UNL     1      -5.611  -2.052   3.187  0.00  0.00    +0.063 A 
ATOM      8  C   UNL     1      -4.537  -1.185   3.237  0.00  0.00    +0.149 A 
BRANCH   8   9
ATOM      9  N   UNL     1      -4.269  -0.407   4.467  0.00  0.00    +0.058 N 
ATOM     10  O   UNL     1      -4.917  -0.621   5.476  0.00  0.00    -0.126 OA
ATOM     11  O   UNL     1      -3.401   0.447   4.470  0.00  0.00    -0.126 OA
ENDBRANCH   8   9
BRANCH   6  12
ATOM     12  S   UNL     1      -7.226  -3.894   1.984  0.00  0.00    +0.056 S 
ATOM     13  O   UNL     1      -8.161  -3.437   2.952  0.00  0.00    -0.153 OA
ATOM     14  O   UNL     1      -7.564  -4.053   0.613  0.00  0.00    -0.153 OA
BRANCH  12  15
ATOM     15  N   UNL     1      -6.682  -5.367   2.511  0.00  0.00    -0.204 NA
ATOM     16  H   UNL     1      -5.755  -5.476   2.776  0.00  0.00    +0.144 HD
ATOM     17  H   UNL     1      -7.290  -6.122   2.554  0.00  0.00    +0.144 HD
ENDBRANCH  12  15
ENDBRANCH   6  12
ENDBRANCH   1   3
BRANCH   1  18
ATOM     18  C   UNL     1      -1.848   0.102   0.962  0.00  0.00    +0.086 C 
BRANCH  18  19
ATOM     19  C   UNL     1      -0.634   0.964   1.314  0.00  0.00    -0.048 C 
BRANCH  19  24
ATOM     20  C   UNL     1       1.531   0.947   2.429  0.00  0.00    -0.078 C 
ATOM     21  C   UNL     1       2.082   0.310   3.730  0.00  0.00    -0.020 C 
ATOM     22  C   UNL     1       0.803   0.065   4.563  0.00  0.00    -0.020 C 
ATOM     23  C   UNL     1      -0.345   0.026   3.537  0.00  0.00    -0.078 C 
ATOM     24  N   UNL     1       0.277   0.205   2.224  0.00  0.00    +0.383 N 
ATOM     25  H   UNL     1       0.480  -0.712   1.809  0.00  0.00    -0.081 HD
ENDBRANCH  19  24
BRANCH  19  26
ATOM     26  C   UNL     1       0.114   1.340   0.034  0.00  0.00    -0.024 C 
BRANCH  26  28
ATOM     27  C   UNL     1      -0.946   3.601  -0.061  0.00  0.00    +0.004 C 
ATOM     28  C   UNL     1      -0.754   2.279  -0.807  0.00  0.00    -0.002 C 
ENDBRANCH  26  28
BRANCH  26  29
ATOM     29  C   UNL     1       0.420   0.074  -0.769  0.00  0.00    -0.002 C 
ATOM     30  C   UNL     1       1.425  -0.786   0.000  0.00  0.00    +0.004 C 
ENDBRANCH  26  29
ENDBRANCH  19  26
ENDBRANCH  18  19
ENDBRANCH   1  18
TORSDOF 10
