REMARK  Name = ZINC07546816
REMARK  7 active torsions:
REMARK  status: ('A' for Active; 'I' for Inactive)
REMARK    1  A    between atoms: C_1  and  C_2
REMARK    2  A    between atoms: C_2  and  C_4
REMARK    3  A    between atoms: C_2  and  N_57
REMARK    4  A    between atoms: C_15  and  C_16
REMARK    5  A    between atoms: C_15  and  N_57
REMARK    6  A    between atoms: C_16  and  C_18
REMARK    7  A    between atoms: C_16  and  C_24
REMARK                            x       y       z     vdW  Elec       q    Type
REMARK                         _______ _______ _______ _____ _____    ______ ____
ROOT
ATOM      1  C   UNL     1       0.343   7.788  -1.503  0.00  0.00    -0.069 C 
ENDROOT
BRANCH   1   2
ATOM      2  N   UNL     1      -0.815   8.646  -1.185  0.00  0.00    +0.387 N 
ATOM      3  H   UNL     1      -1.513   8.096  -0.672  0.00  0.00    -0.085 HD
ATOM      4  H   UNL     1      -0.504   9.432  -0.603  0.00  0.00    -0.085 HD
BRANCH   2   6
ATOM      5  C   UNL     1      -2.411   8.143  -2.980  0.00  0.00    -0.004 C 
ATOM      6  C   UNL     1      -1.420   9.168  -2.425  0.00  0.00    +0.013 C 
BRANCH   6   7
ATOM      7  C   UNL     1      -2.146  10.453  -2.118  0.00  0.00    +0.206 C 
ATOM      8  O   UNL     1      -2.578  10.653  -1.002  0.00  0.00    -0.277 OA
ATOM      9  N   UNL     1      -2.314  11.379  -3.082  0.00  0.00    -0.272 N 
ATOM     10  C   UNL     1      -1.930  11.209  -4.486  0.00  0.00    +0.118 C 
ATOM     11  C   UNL     1      -2.323  12.526  -5.174  0.00  0.00    +0.056 C 
ATOM     12  C   UNL     1      -2.919  13.370  -4.070  0.00  0.00    -0.024 A 
ATOM     13  C   UNL     1      -2.885  12.641  -2.891  0.00  0.00    +0.039 A 
ATOM     14  C   UNL     1      -3.381  13.220  -1.722  0.00  0.00    +0.024 A 
ATOM     15  C   UNL     1      -3.906  14.495  -1.746  0.00  0.00    +0.002 A 
ATOM     16  C   UNL     1      -3.939  15.212  -2.927  0.00  0.00    +0.000 A 
ATOM     17  C   UNL     1      -3.445  14.647  -4.089  0.00  0.00    +0.005 A 
ENDBRANCH   6   7
ENDBRANCH   2   6
ENDBRANCH   1   2
BRANCH   1  18
ATOM     18  C   UNL     1       0.949   7.263  -0.200  0.00  0.00    +0.034 C 
BRANCH  18  19
ATOM     19  C   UNL     1       2.055   6.289  -0.518  0.00  0.00    -0.017 A 
ATOM     20  C   UNL     1       3.171   6.549  -1.217  0.00  0.00    +0.087 A 
ATOM     21  N   UNL     1       3.942   5.421  -1.301  0.00  0.00    -0.360 N 
ATOM     22  H   UNL     1       4.796   5.363  -1.758  0.00  0.00    +0.165 HD
ATOM     23  C   UNL     1       3.325   4.382  -0.641  0.00  0.00    +0.047 A 
ATOM     24  C   UNL     1       2.116   4.880  -0.122  0.00  0.00    +0.003 A 
ATOM     25  C   UNL     1       1.271   4.039   0.605  0.00  0.00    +0.010 A 
ATOM     26  C   UNL     1       1.621   2.733   0.803  0.00  0.00    +0.001 A 
ATOM     27  C   UNL     1       2.815   2.238   0.297  0.00  0.00    +0.002 A 
ATOM     28  C   UNL     1       3.663   3.051  -0.423  0.00  0.00    +0.026 A 
ENDBRANCH  18  19
BRANCH  18  29
ATOM     29  C   UNL     1       1.508   8.414   0.595  0.00  0.00    -0.042 A 
ATOM     30  C   UNL     1       2.509   9.203   0.060  0.00  0.00    +0.004 A 
ATOM     31  C   UNL     1       3.018  10.262   0.788  0.00  0.00    +0.000 A 
ATOM     32  C   UNL     1       2.532  10.527   2.054  0.00  0.00    +0.000 A 
ATOM     33  C   UNL     1       1.534   9.736   2.591  0.00  0.00    +0.000 A 
ATOM     34  C   UNL     1       1.022   8.680   1.862  0.00  0.00    +0.004 A 
ENDBRANCH  18  29
ENDBRANCH   1  18
TORSDOF 6
