REMARK  Name = ZINC63825227
REMARK  3 active torsions:
REMARK  status: ('A' for Active; 'I' for Inactive)
REMARK    1  A    between atoms: C_6  and  N_10
REMARK    2  A    between atoms: C_11  and  C_13
REMARK    3  A    between atoms: C_13  and  N_14
REMARK                            x       y       z     vdW  Elec       q    Type
REMARK                         _______ _______ _______ _____ _____    ______ ____
ROOT
ATOM      1  N   UNL     1       3.545  -2.769   1.153  0.00  0.00    -0.277 N 
ATOM      2  C   UNL     1       3.470  -4.113   1.214  0.00  0.00    +0.236 C 
ATOM      3  O   UNL     1       3.010  -4.737   0.282  0.00  0.00    -0.274 OA
ATOM      4  H   UNL     1       3.913  -2.269   1.899  0.00  0.00    +0.152 HD
ENDROOT
BRANCH   1  10
ATOM      5  C   UNL     1      -0.016   1.344   0.009  0.00  0.00    +0.002 A 
ATOM      6  C   UNL     1       1.158   2.118   0.002  0.00  0.00    +0.002 A 
ATOM      7  C   UNL     1       2.389   1.570  -0.013  0.00  0.00    +0.027 A 
ATOM      8  C   UNL     1       2.533   0.108  -0.022  0.00  0.00    +0.061 A 
ATOM      9  N   UNL     1       3.569  -0.680  -0.036  0.00  0.00    -0.348 N 
ATOM     10  C   UNL     1       3.071  -2.062  -0.039  0.00  0.00    +0.269 C 
ATOM     11  N   UNL     1       1.606  -1.974  -0.024  0.00  0.00    -0.348 N 
ATOM     12  C   UNL     1       1.290  -0.712  -0.014  0.00  0.00    +0.061 A 
ATOM     13  C   UNL     1       0.002  -0.004   0.002  0.00  0.00    +0.027 A 
ATOM     14  H   UNL     1       4.499  -0.405  -0.045  0.00  0.00    +0.163 HD
ATOM     15  H   UNL     1       0.987  -2.721  -0.022  0.00  0.00    +0.163 HD
ENDBRANCH   1  10
BRANCH   2  16
ATOM     16  C   UNL     1       3.958  -4.840   2.441  0.00  0.00    +0.217 C 
BRANCH  16  17
ATOM     17  N   UNL     1       3.769  -6.282   2.261  0.00  0.00    -0.338 N 
ATOM     18  C   UNL     1       2.685  -6.993   2.698  0.00  0.00    +0.087 A 
ATOM     19  C   UNL     1       2.825  -8.288   2.372  0.00  0.00    +0.027 A 
ATOM     20  C   UNL     1       4.104  -8.416   1.669  0.00  0.00    -0.000 A 
ATOM     21  C   UNL     1       4.653  -7.122   1.622  0.00  0.00    +0.051 A 
ATOM     22  C   UNL     1       5.881  -6.925   1.000  0.00  0.00    +0.041 A 
ATOM     23  C   UNL     1       6.543  -7.995   0.436  0.00  0.00    +0.020 A 
ATOM     24  C   UNL     1       5.994  -9.270   0.482  0.00  0.00    +0.016 A 
ATOM     25  C   UNL     1       4.792  -9.487   1.095  0.00  0.00    +0.011 A 
ATOM     26 BR   UNL     1       8.213  -7.725  -0.408  0.00  0.00    -0.050 Br
ENDBRANCH  16  17
ENDBRANCH   2  16
TORSDOF 3
