REMARK  Name = ZINC58912529
REMARK  6 active torsions:
REMARK  status: ('A' for Active; 'I' for Inactive)
REMARK    1  A    between atoms: C_1  and  C_2
REMARK    2  A    between atoms: C_4  and  C_16
REMARK    3  A    between atoms: C_5  and  C_15
REMARK    4  A    between atoms: N_6  and  C_7
REMARK    5  A    between atoms: N_17  and  N_18
REMARK    6  A    between atoms: C_19  and  C_21
REMARK                            x       y       z     vdW  Elec       q    Type
REMARK                         _______ _______ _______ _____ _____    ______ ____
ROOT
ATOM      1  C   UNL     1      -0.569   1.467   0.071  0.00  0.00    +0.064 C 
ATOM      2  C   UNL     1      -0.405  -0.030   0.048  0.00  0.00    +0.022 A 
ATOM      3  C   UNL     1      -0.538  -0.815  -1.037  0.00  0.00    +0.032 A 
ATOM      4  C   UNL     1      -0.290  -2.190  -0.592  0.00  0.00    +0.016 A 
ATOM      5  C   UNL     1      -0.023  -2.117   0.746  0.00  0.00    +0.030 A 
ATOM      6  N   UNL     1      -0.089  -0.812   1.122  0.00  0.00    -0.316 N 
ATOM      7  C   UNL     1       0.295  -3.281   1.648  0.00  0.00    +0.064 C 
ENDROOT
BRANCH   6   8
ATOM      8  C   UNL     1       0.131  -0.339   2.423  0.00  0.00    +0.066 A 
ATOM      9  C   UNL     1      -0.927  -0.243   3.317  0.00  0.00    +0.047 A 
ATOM     10  C   UNL     1      -0.706   0.224   4.599  0.00  0.00    +0.043 A 
ATOM     11  C   UNL     1       0.568   0.596   4.992  0.00  0.00    +0.021 A 
ATOM     12  C   UNL     1       1.623   0.502   4.104  0.00  0.00    +0.023 A 
ATOM     13  C   UNL     1       1.410   0.030   2.823  0.00  0.00    +0.065 A 
ATOM     14 CL   UNL     1       2.737  -0.095   1.711  0.00  0.00    -0.081 Cl
ATOM     15 CL   UNL     1      -2.029   0.344   5.717  0.00  0.00    -0.083 Cl
ENDBRANCH   6   8
BRANCH   4  16
ATOM     16  C   UNL     1      -0.322  -3.407  -1.422  0.00  0.00    +0.140 C 
ATOM     17  N   UNL     1      -0.080  -4.566  -0.885  0.00  0.00    -0.187 NA
BRANCH  17  18
ATOM     18  N   UNL     1      -0.111  -5.723  -1.674  0.00  0.00    -0.199 N 
ATOM     19  C   UNL     1       0.140  -6.925  -1.118  0.00  0.00    +0.318 C 
ATOM     20  O   UNL     1       0.393  -7.004   0.068  0.00  0.00    -0.263 OA
ATOM     21  H   UNL     1      -0.313  -5.659  -2.621  0.00  0.00    +0.178 HD
BRANCH  19  22
ATOM     22  C   UNL     1       0.107  -8.157  -1.958  0.00  0.00    +0.303 C 
ATOM     23  O   UNL     1      -0.028  -8.068  -3.161  0.00  0.00    -0.265 OA
ATOM     24  N   UNL     1       0.228  -9.369  -1.381  0.00  0.00    -0.294 N 
ATOM     25  C   UNL     1       0.359 -10.579  -2.203  0.00  0.00    +0.108 C 
ATOM     26  C   UNL     1       1.609 -11.345  -1.758  0.00  0.00    +0.019 C 
ATOM     27  C   UNL     1       1.528 -11.613  -0.253  0.00  0.00    +0.003 C 
ATOM     28  C   UNL     1       1.483 -10.283   0.502  0.00  0.00    +0.019 C 
ATOM     29  C   UNL     1       0.238  -9.504   0.082  0.00  0.00    +0.108 C 
ENDBRANCH  19  22
ENDBRANCH  17  18
ENDBRANCH   4  16
TORSDOF 4
