REMARK  Name = ZINC13806318
REMARK  7 active torsions:
REMARK  status: ('A' for Active; 'I' for Inactive)
REMARK    1  A    between atoms: C_1  and  C_2
REMARK    2  A    between atoms: C_2  and  C_4
REMARK    3  A    between atoms: C_2  and  N_10
REMARK    4  A    between atoms: C_11  and  C_13
REMARK    5  A    between atoms: C_13  and  C_34
REMARK    6  A    between atoms: N_15  and  C_28
REMARK    7  A    between atoms: C_19  and  C_20
REMARK                            x       y       z     vdW  Elec       q    Type
REMARK                         _______ _______ _______ _____ _____    ______ ____
ROOT
ATOM      1  C   UNL     1      -4.857   1.663   1.431  0.00  0.00    +0.144 C 
ATOM      2  C   UNL     1      -5.608   2.236   0.402  0.00  0.00    +0.111 A 
ATOM      3  N   UNL     1      -5.334   3.367  -0.327  0.00  0.00    -0.269 N 
ATOM      4  C   UNL     1      -6.156   3.776  -1.278  0.00  0.00    +0.270 A 
ATOM      5  O   UNL     1      -5.924   4.773  -1.935  0.00  0.00    -0.266 OA
ATOM      6  C   UNL     1      -7.372   2.969  -1.502  0.00  0.00    +0.080 A 
ATOM      7  C   UNL     1      -8.377   3.155  -2.394  0.00  0.00    +0.030 C 
ATOM      8  S   UNL     1      -7.162   1.682  -0.280  0.00  0.00    -0.064 S 
ENDROOT
BRANCH   7   9
ATOM      9  C   UNL     1      -8.262   4.195  -3.425  0.00  0.00    -0.005 A 
ATOM     10  C   UNL     1      -7.046   4.396  -4.089  0.00  0.00    +0.009 A 
ATOM     11  C   UNL     1      -6.947   5.370  -5.059  0.00  0.00    +0.001 A 
ATOM     12  C   UNL     1      -8.043   6.157  -5.370  0.00  0.00    +0.001 A 
ATOM     13  C   UNL     1      -9.248   5.970  -4.716  0.00  0.00    +0.020 A 
ATOM     14  C   UNL     1      -9.366   4.995  -3.746  0.00  0.00    +0.048 A 
ATOM     15 CL   UNL     1     -10.878   4.761  -2.926  0.00  0.00    -0.083 Cl
ENDBRANCH   7   9
BRANCH   3  16
ATOM     16  C   UNL     1      -4.166   4.095  -0.062  0.00  0.00    +0.051 A 
ATOM     17  C   UNL     1      -4.233   5.280   0.657  0.00  0.00    +0.026 A 
ATOM     18  C   UNL     1      -3.079   5.992   0.921  0.00  0.00    +0.002 A 
ATOM     19  C   UNL     1      -1.860   5.531   0.460  0.00  0.00    +0.000 A 
ATOM     20  C   UNL     1      -1.790   4.354  -0.262  0.00  0.00    +0.002 A 
ATOM     21  C   UNL     1      -2.940   3.634  -0.524  0.00  0.00    +0.026 A 
ENDBRANCH   3  16
BRANCH   1  23
ATOM     22  N   UNL     1      -3.817   3.311   2.889  0.00  0.00    -0.304 N 
ATOM     23  C   UNL     1      -3.678   2.355   1.949  0.00  0.00    +0.257 C 
ATOM     24  O   UNL     1      -2.571   2.068   1.532  0.00  0.00    -0.269 OA
ATOM     25  H   UNL     1      -4.691   3.495   3.268  0.00  0.00    +0.150 HD
BRANCH  22  27
ATOM     26  C   UNL     1      -1.922   3.292   4.434  0.00  0.00    +0.033 C 
ATOM     27  C   UNL     1      -2.649   4.073   3.337  0.00  0.00    +0.100 C 
BRANCH  27  28
ATOM     28  C   UNL     1      -3.096   5.405   3.881  0.00  0.00    -0.027 A 
ATOM     29  C   UNL     1      -4.244   5.489   4.646  0.00  0.00    +0.005 A 
ATOM     30  C   UNL     1      -4.652   6.710   5.149  0.00  0.00    +0.000 A 
ATOM     31  C   UNL     1      -3.917   7.849   4.878  0.00  0.00    +0.000 A 
ATOM     32  C   UNL     1      -2.772   7.766   4.109  0.00  0.00    +0.000 A 
ATOM     33  C   UNL     1      -2.361   6.544   3.610  0.00  0.00    +0.005 A 
ENDBRANCH  27  28
ENDBRANCH  22  27
ENDBRANCH   1  23
BRANCH   1  34
ATOM     34  C   UNL     1      -5.241   0.396   1.978  0.00  0.00    +0.107 C 
ATOM     35  N   UNL     1      -5.546  -0.609   2.411  0.00  0.00    -0.191 NA
ENDBRANCH   1  34
TORSDOF 6
