REMARK  Name = ZINC66930006
REMARK  9 active torsions:
REMARK  status: ('A' for Active; 'I' for Inactive)
REMARK    1  A    between atoms: C_1  and  C_2
REMARK    2  A    between atoms: C_2  and  C_3
REMARK    3  A    between atoms: C_3  and  N_4
REMARK    4  A    between atoms: N_7  and  C_8
REMARK    5  A    between atoms: C_11  and  C_14
REMARK    6  A    between atoms: C_14  and  C_15
REMARK    7  A    between atoms: N_17  and  C_18
REMARK    8  A    between atoms: C_18  and  C_19
REMARK    9  A    between atoms: C_19  and  O_29
REMARK                            x       y       z     vdW  Elec       q    Type
REMARK                         _______ _______ _______ _____ _____    ______ ____
ROOT
ATOM      1  C   UNL     1       2.571  -6.898   7.733  0.00  0.00    +0.217 C 
ATOM      2  O   UNL     1       1.429  -6.556   7.514  0.00  0.00    -0.275 OA
ATOM      3  N   UNL     1       2.879  -7.518   8.890  0.00  0.00    -0.312 N 
ATOM      4  H   UNL     1       3.793  -7.792   9.065  0.00  0.00    +0.149 HD
ENDROOT
BRANCH   1   5
ATOM      5  C   UNL     1       3.647  -6.631   6.712  0.00  0.00    +0.130 C 
BRANCH   5   9
ATOM      6  C   UNL     1       1.941  -4.651   3.330  0.00  0.00    +0.035 A 
ATOM      7  C   UNL     1       2.440  -3.909   4.393  0.00  0.00    +0.023 A 
ATOM      8  C   UNL     1       2.991  -4.552   5.484  0.00  0.00    +0.006 A 
ATOM      9  C   UNL     1       3.046  -5.933   5.520  0.00  0.00    -0.039 A 
ATOM     10  C   UNL     1       2.550  -6.675   4.464  0.00  0.00    +0.006 A 
ATOM     11  C   UNL     1       1.993  -6.038   3.372  0.00  0.00    +0.023 A 
BRANCH   6  15
ATOM     12  N   UNL     1      -0.266  -3.884   0.574  0.00  0.00    -0.299 N 
ATOM     13  C   UNL     1       0.331  -4.551   1.582  0.00  0.00    +0.304 C 
ATOM     14  O   UNL     1      -0.078  -5.647   1.911  0.00  0.00    -0.253 OA
ATOM     15  N   UNL     1       1.382  -4.003   2.223  0.00  0.00    -0.269 N 
ATOM     16  H   UNL     1       0.061  -3.009   0.311  0.00  0.00    +0.150 HD
ATOM     17  H   UNL     1       1.751  -3.160   1.918  0.00  0.00    +0.156 HD
BRANCH  12  18
ATOM     18  C   UNL     1      -1.408  -4.479  -0.123  0.00  0.00    +0.105 C 
BRANCH  18  20
ATOM     19  C   UNL     1      -3.087  -4.145  -1.943  0.00  0.00    +0.005 C 
ATOM     20  C   UNL     1      -1.894  -3.523  -1.215  0.00  0.00    +0.015 C 
ENDBRANCH  18  20
ENDBRANCH  12  18
ENDBRANCH   6  15
ENDBRANCH   5   9
ENDBRANCH   1   5
BRANCH   3  21
ATOM     21  C   UNL     1       1.833  -7.778   9.883  0.00  0.00    +0.143 C 
BRANCH  21  22
ATOM     22  C   UNL     1       2.464  -8.373  11.143  0.00  0.00    +0.107 C 
ATOM     23  C   UNL     1       3.192  -9.666  10.780  0.00  0.00    +0.041 C 
ATOM     24  C   UNL     1       3.626 -10.357  12.077  0.00  0.00    +0.008 C 
ATOM     25  C   UNL     1       2.378 -10.881  12.785  0.00  0.00    +0.035 C 
ATOM     26  C   UNL     1       1.347  -9.791  12.916  0.00  0.00    -0.041 A 
ATOM     27  C   UNL     1       1.384  -8.641  12.159  0.00  0.00    -0.011 A 
ATOM     28  C   UNL     1       0.398  -7.677  12.324  0.00  0.00    +0.007 A 
ATOM     29  C   UNL     1      -0.616  -7.861  13.242  0.00  0.00    +0.000 A 
ATOM     30  C   UNL     1      -0.650  -9.013  14.005  0.00  0.00    +0.000 A 
ATOM     31  C   UNL     1       0.327  -9.973  13.841  0.00  0.00    +0.004 A 
BRANCH  22  32
ATOM     32  O   UNL     1       3.401  -7.442  11.686  0.00  0.00    -0.382 OA
ATOM     33  H   UNL     1       3.013  -6.592  11.934  0.00  0.00    +0.211 HD
ENDBRANCH  22  32
ENDBRANCH  21  22
ENDBRANCH   3  21
TORSDOF 8
