REMARK  Name = ZINC63137126
REMARK  10 active torsions:
REMARK  status: ('A' for Active; 'I' for Inactive)
REMARK    1  A    between atoms: C_1  and  O_2
REMARK    2  A    between atoms: O_2  and  C_3
REMARK    3  A    between atoms: C_6  and  C_9
REMARK    4  A    between atoms: C_9  and  C_10
REMARK    5  A    between atoms: C_10  and  N_11
REMARK    6  A    between atoms: C_31  and  C_33
REMARK    7  A    between atoms: C_37  and  O_41
REMARK    8  A    between atoms: C_38  and  O_39
REMARK    9  A    between atoms: O_39  and  C_40
REMARK   10  A    between atoms: O_41  and  C_42
REMARK                            x       y       z     vdW  Elec       q    Type
REMARK                         _______ _______ _______ _____ _____    ______ ____
ROOT
ATOM      1  N   UNL     1       4.168  -3.367  -5.606  0.00  0.00    -0.291 N 
ATOM      2  C   UNL     1       4.221  -4.820  -5.605  0.00  0.00    +0.203 C 
ATOM      3  C   UNL     1       5.099  -5.353  -6.688  0.00  0.00    +0.234 C 
ATOM      4  O   UNL     1       5.217  -6.557  -6.776  0.00  0.00    -0.274 OA
ATOM      5  N   UNL     1       5.766  -4.598  -7.569  0.00  0.00    -0.279 N 
ATOM      6  C   UNL     1       5.689  -3.141  -7.575  0.00  0.00    +0.167 C 
ATOM      7  C   UNL     1       4.816  -2.607  -6.487  0.00  0.00    +0.237 C 
ATOM      8  O   UNL     1       4.693  -1.404  -6.397  0.00  0.00    -0.274 OA
ATOM      9  C   UNL     1       5.170  -2.647  -8.938  0.00  0.00    +0.065 C 
ATOM     10  C   UNL     1       5.939  -3.408  -9.991  0.00  0.00    -0.034 C 
ATOM     11  C   UNL     1       6.617  -2.996 -11.055  0.00  0.00    -0.001 A 
ATOM     12  C   UNL     1       6.776  -1.665 -11.661  0.00  0.00    +0.010 A 
ATOM     13  C   UNL     1       7.576  -1.597 -12.758  0.00  0.00    +0.001 A 
ATOM     14  C   UNL     1       8.226  -2.707 -13.305  0.00  0.00    +0.002 A 
ATOM     15  C   UNL     1       8.129  -3.970 -12.819  0.00  0.00    +0.026 A 
ATOM     16  C   UNL     1       7.308  -4.170 -11.671  0.00  0.00    +0.043 A 
ATOM     17  N   UNL     1       7.021  -5.259 -11.021  0.00  0.00    -0.375 N 
ATOM     18  C   UNL     1       6.073  -4.926  -9.958  0.00  0.00    +0.131 C 
ATOM     19  C   UNL     1       6.611  -5.287  -8.571  0.00  0.00    +0.137 C 
ATOM     20  H   UNL     1       7.376  -6.142 -11.209  0.00  0.00    +0.160 HD
ENDROOT
BRANCH  19  21
ATOM     21  C   UNL     1       6.534  -6.778  -8.365  0.00  0.00    +0.021 A 
ATOM     22  C   UNL     1       5.596  -7.524  -9.055  0.00  0.00    +0.009 A 
ATOM     23  C   UNL     1       5.524  -8.891  -8.868  0.00  0.00    +0.004 A 
ATOM     24  C   UNL     1       6.388  -9.520  -7.990  0.00  0.00    +0.049 A 
ATOM     25  C   UNL     1       7.330  -8.778  -7.296  0.00  0.00    +0.162 A 
ATOM     26  C   UNL     1       7.407  -7.402  -7.489  0.00  0.00    +0.166 A 
BRANCH  26  27
ATOM     27  O   UNL     1       8.333  -6.670  -6.813  0.00  0.00    -0.491 OA
ATOM     28  C   UNL     1       7.997  -6.264  -5.485  0.00  0.00    +0.277 C 
ENDBRANCH  26  27
BRANCH  25  29
ATOM     29  O   UNL     1       8.180  -9.394  -6.432  0.00  0.00    -0.491 OA
ATOM     30  C   UNL     1       8.047 -10.810  -6.290  0.00  0.00    +0.277 C 
ENDBRANCH  25  29
ENDBRANCH  19  21
BRANCH   1  31
ATOM     31  C   UNL     1       3.352  -2.704  -4.587  0.00  0.00    +0.113 C 
BRANCH  31  32
ATOM     32  C   UNL     1       1.927  -2.521  -5.114  0.00  0.00    +0.054 C 
BRANCH  32  36
ATOM     33  C   UNL     1      -0.455  -0.585  -2.140  0.00  0.00    +0.120 A 
ATOM     34  C   UNL     1       0.237   0.170  -3.076  0.00  0.00    +0.046 A 
ATOM     35  C   UNL     1       1.006  -0.459  -4.036  0.00  0.00    +0.007 A 
ATOM     36  C   UNL     1       1.087  -1.839  -4.065  0.00  0.00    -0.046 A 
ATOM     37  C   UNL     1       0.399  -2.593  -3.133  0.00  0.00    +0.007 A 
ATOM     38  C   UNL     1      -0.367  -1.970  -2.167  0.00  0.00    +0.046 A 
BRANCH  33  40
ATOM     39  C   UNL     1      -1.255   1.458  -1.226  0.00  0.00    +0.277 C 
ATOM     40  O   UNL     1      -1.212   0.030  -1.194  0.00  0.00    -0.495 OA
ENDBRANCH  33  40
ENDBRANCH  32  36
ENDBRANCH  31  32
ENDBRANCH   1  31
TORSDOF 7
