REMARK  Name = ZINC39911626
REMARK  9 active torsions:
REMARK  status: ('A' for Active; 'I' for Inactive)
REMARK    1  A    between atoms: C_1  and  C_2
REMARK    2  A    between atoms: C_4  and  C_31
REMARK    3  A    between atoms: C_5  and  O_30
REMARK    4  A    between atoms: C_6  and  C_8
REMARK    5  A    between atoms: N_16  and  C_26
REMARK    6  A    between atoms: C_17  and  C_19
REMARK    7  A    between atoms: C_26  and  C_27
REMARK    8  A    between atoms: C_27  and  O_28
REMARK    9  A    between atoms: O_28  and  C_29
REMARK                            x       y       z     vdW  Elec       q    Type
REMARK                         _______ _______ _______ _____ _____    ______ ____
ROOT
ATOM      1  C   UNL     1      -0.623  -2.068   2.204  0.00  0.00    +0.102 A 
ATOM      2  C   UNL     1      -0.210  -1.895   3.529  0.00  0.00    +0.035 A 
ATOM      3  C   UNL     1      -0.015  -3.168   4.032  0.00  0.00    +0.126 A 
ATOM      4  N   UNL     1      -0.311  -4.028   3.013  0.00  0.00    -0.272 N 
ATOM      5  H   UNL     1      -0.265  -4.995   3.069  0.00  0.00    +0.189 HD
ATOM      6  N   UNL     1      -0.664  -3.365   1.970  0.00  0.00    -0.173 NA
ATOM      7  C   UNL     1       0.422  -3.056   5.428  0.00  0.00    +0.266 C 
ATOM      8  O   UNL     1       0.679  -3.998   6.153  0.00  0.00    -0.268 OA
ATOM      9  N   UNL     1       0.500  -1.763   5.792  0.00  0.00    -0.283 N 
ATOM     10  C   UNL     1       0.113  -0.936   4.642  0.00  0.00    +0.141 C 
ENDROOT
BRANCH   1  16
ATOM     11  C   UNL     1      -1.348   2.772   1.218  0.00  0.00    +0.044 C 
ATOM     12  C   UNL     1      -1.308   1.336   0.762  0.00  0.00    -0.049 A 
ATOM     13  C   UNL     1      -1.587   1.024  -0.557  0.00  0.00    +0.010 A 
ATOM     14  C   UNL     1      -1.553  -0.290  -0.985  0.00  0.00    -0.008 A 
ATOM     15  C   UNL     1      -1.240  -1.302  -0.092  0.00  0.00    +0.129 A 
ATOM     16  C   UNL     1      -0.958  -0.990   1.241  0.00  0.00    +0.044 A 
ATOM     17  C   UNL     1      -0.989   0.338   1.660  0.00  0.00    +0.017 A 
ATOM     18  C   UNL     1      -1.857  -0.621  -2.423  0.00  0.00    +0.047 C 
BRANCH  15  19
ATOM     19  O   UNL     1      -1.207  -2.594  -0.511  0.00  0.00    -0.506 OA
ATOM     20  H   UNL     1      -0.342  -2.881  -0.834  0.00  0.00    +0.292 HD
ENDBRANCH  15  19
ENDBRANCH   1  16
BRANCH  10  21
ATOM     21  C   UNL     1       1.256  -0.041   4.240  0.00  0.00    -0.021 A 
ATOM     22  C   UNL     1       1.025   1.294   3.965  0.00  0.00    +0.006 A 
ATOM     23  C   UNL     1       2.073   2.116   3.596  0.00  0.00    +0.002 A 
ATOM     24  C   UNL     1       3.354   1.604   3.501  0.00  0.00    +0.020 A 
ATOM     25  C   UNL     1       3.586   0.268   3.775  0.00  0.00    +0.041 A 
ATOM     26  C   UNL     1       2.537  -0.553   4.151  0.00  0.00    +0.025 A 
ATOM     27 CL   UNL     1       5.193  -0.377   3.656  0.00  0.00    -0.084 Cl
ENDBRANCH  10  21
BRANCH   9  28
ATOM     28  C   UNL     1       0.902  -1.266   7.111  0.00  0.00    +0.137 C 
BRANCH  28  29
ATOM     29  C   UNL     1      -0.344  -1.014   7.962  0.00  0.00    +0.178 C 
BRANCH  29  30
ATOM     30  O   UNL     1      -1.003  -2.255   8.222  0.00  0.00    -0.381 OA
ATOM     31  C   UNL     1      -2.228  -2.122   8.945  0.00  0.00    +0.194 C 
ENDBRANCH  29  30
ENDBRANCH  28  29
ENDBRANCH   9  28
TORSDOF 6
