REMARK  Name = ZINC14268701
REMARK  9 active torsions:
REMARK  status: ('A' for Active; 'I' for Inactive)
REMARK    1  A    between atoms: C_1  and  C_2
REMARK    2  A    between atoms: C_2  and  C_23
REMARK    3  A    between atoms: N_5  and  C_9
REMARK    4  A    between atoms: C_9  and  C_10
REMARK    5  A    between atoms: C_15  and  C_17
REMARK    6  A    between atoms: C_26  and  C_29
REMARK    7  A    between atoms: C_29  and  C_30
REMARK    8  A    between atoms: C_29  and  C_31
REMARK    9  A    between atoms: C_29  and  C_32
REMARK                            x       y       z     vdW  Elec       q    Type
REMARK                         _______ _______ _______ _____ _____    ______ ____
ROOT
ATOM      1  C   UNL     1       8.409   0.538   1.039  0.00  0.00    +0.047 C 
ATOM      2  C   UNL     1       7.748  -0.755   0.558  0.00  0.00    +0.135 C 
ATOM      3  C   UNL     1       6.317  -0.838   1.053  0.00  0.00    +0.251 C 
ATOM      4  O   UNL     1       5.941  -0.864   2.205  0.00  0.00    -0.272 OA
ATOM      5  N   UNL     1       5.551  -0.875  -0.055  0.00  0.00    -0.215 N 
ATOM      6  C   UNL     1       6.291  -0.833  -1.169  0.00  0.00    +0.310 C 
ATOM      7  O   UNL     1       5.825  -0.858  -2.291  0.00  0.00    -0.252 OA
ATOM      8  N   UNL     1       7.608  -0.756  -0.908  0.00  0.00    -0.281 N 
ATOM      9  H   UNL     1       8.326  -0.713  -1.559  0.00  0.00    +0.152 HD
ENDROOT
BRANCH   2  10
ATOM     10  C   UNL     1       8.537  -1.955   1.016  0.00  0.00    -0.015 A 
ATOM     11  C   UNL     1       8.216  -2.580   2.207  0.00  0.00    +0.006 A 
ATOM     12  C   UNL     1       8.938  -3.682   2.625  0.00  0.00    +0.004 A 
ATOM     13  C   UNL     1       9.985  -4.155   1.856  0.00  0.00    -0.042 A 
ATOM     14  C   UNL     1      10.309  -3.527   0.668  0.00  0.00    +0.004 A 
ATOM     15  C   UNL     1       9.585  -2.427   0.248  0.00  0.00    +0.006 A 
BRANCH  13  16
ATOM     16  C   UNL     1      10.774  -5.354   2.314  0.00  0.00    -0.013 C 
ATOM     17  C   UNL     1      12.242  -4.961   2.491  0.00  0.00    +0.015 C 
ATOM     18  C   UNL     1      10.216  -5.854   3.648  0.00  0.00    +0.015 C 
ATOM     19  C   UNL     1      10.667  -6.465   1.268  0.00  0.00    +0.015 C 
ENDBRANCH  13  16
ENDBRANCH   2  10
BRANCH   5  20
ATOM     20  C   UNL     1       4.088  -0.958  -0.042  0.00  0.00    +0.215 C 
BRANCH  20  21
ATOM     21  C   UNL     1       3.506   0.432  -0.029  0.00  0.00    +0.253 C 
ATOM     22  O   UNL     1       4.241   1.397  -0.031  0.00  0.00    -0.272 OA
ATOM     23  N   UNL     1       2.170   0.604  -0.015  0.00  0.00    -0.191 N 
ATOM     24  C   UNL     1       1.472   1.899  -0.002  0.00  0.00    +0.141 C 
ATOM     25  C   UNL     1      -0.018   1.508   0.010  0.00  0.00    +0.078 C 
ATOM     26  C   UNL     1       0.002  -0.004   0.002  0.00  0.00    +0.068 C 
ATOM     27  N   UNL     1       1.222  -0.418  -0.012  0.00  0.00    -0.181 NA
BRANCH  26  28
ATOM     28  C   UNL     1      -1.191  -0.871   0.009  0.00  0.00    -0.002 A 
ATOM     29  C   UNL     1      -2.469  -0.307   0.030  0.00  0.00    +0.010 A 
ATOM     30  C   UNL     1      -3.580  -1.124   0.032  0.00  0.00    +0.001 A 
ATOM     31  C   UNL     1      -3.431  -2.500   0.023  0.00  0.00    +0.000 A 
ATOM     32  C   UNL     1      -2.168  -3.066   0.007  0.00  0.00    +0.001 A 
ATOM     33  C   UNL     1      -1.048  -2.261  -0.000  0.00  0.00    +0.010 A 
ENDBRANCH  26  28
ENDBRANCH  20  21
ENDBRANCH   5  20
TORSDOF 5
