REMARK  Name = ZINC03402030
REMARK  12 active torsions:
REMARK  status: ('A' for Active; 'I' for Inactive)
REMARK    1  A    between atoms: C_1  and  C_2
REMARK    2  A    between atoms: C_2  and  C_3
REMARK    3  A    between atoms: C_2  and  C_4
REMARK    4  A    between atoms: C_2  and  C_10
REMARK    5  A    between atoms: C_13  and  O_16
REMARK    6  A    between atoms: O_16  and  C_17
REMARK    7  A    between atoms: C_17  and  C_18
REMARK    8  A    between atoms: C_18  and  C_20
REMARK    9  A    between atoms: C_18  and  O_27
REMARK   10  A    between atoms: C_20  and  N_53
REMARK   11  A    between atoms: C_21  and  C_22
REMARK   12  A    between atoms: C_21  and  N_53
REMARK                            x       y       z     vdW  Elec       q    Type
REMARK                         _______ _______ _______ _____ _____    ______ ____
ROOT
ATOM      1  C   UNL     1       3.547   2.119  -0.084  0.00  0.00    -0.037 A 
ATOM      2  C   UNL     1       3.183   3.452  -0.037  0.00  0.00    +0.008 A 
ATOM      3  C   UNL     1       4.151   4.436  -0.093  0.00  0.00    +0.046 A 
ATOM      4  C   UNL     1       5.489   4.086  -0.208  0.00  0.00    +0.121 A 
ATOM      5  C   UNL     1       5.851   2.748  -0.261  0.00  0.00    +0.046 A 
ATOM      6  C   UNL     1       4.880   1.768  -0.199  0.00  0.00    +0.008 A 
ENDROOT
BRANCH   1   8
ATOM      7  C   UNL     1       3.133  -0.319  -0.260  0.00  0.00    +0.021 C 
ATOM      8  C   UNL     1       2.490   1.048  -0.016  0.00  0.00    +0.015 C 
ATOM      9  C   UNL     1       1.428   1.310  -1.086  0.00  0.00    +0.021 C 
BRANCH   8  10
ATOM     10  C   UNL     1       1.845   1.063   1.346  0.00  0.00    -0.037 A 
ATOM     11  C   UNL     1       0.758   0.250   1.606  0.00  0.00    +0.004 A 
ATOM     12  C   UNL     1       0.164   0.269   2.853  0.00  0.00    +0.000 A 
ATOM     13  C   UNL     1       0.662   1.093   3.845  0.00  0.00    +0.000 A 
ATOM     14  C   UNL     1       1.749   1.907   3.585  0.00  0.00    +0.000 A 
ATOM     15  C   UNL     1       2.341   1.892   2.336  0.00  0.00    +0.004 A 
ENDBRANCH   8  10
ENDBRANCH   1   8
BRANCH   4  16
ATOM     16  O   UNL     1       6.442   5.053  -0.269  0.00  0.00    -0.489 OA
BRANCH  16  17
ATOM     17  C   UNL     1       5.996   6.409  -0.209  0.00  0.00    +0.258 C 
BRANCH  17  18
ATOM     18  C   UNL     1       7.202   7.347  -0.291  0.00  0.00    +0.135 C 
BRANCH  18  19
ATOM     19  O   UNL     1       8.024   7.168   0.864  0.00  0.00    -0.390 OA
ATOM     20  H   UNL     1       7.574   7.354   1.700  0.00  0.00    +0.210 HD
ENDBRANCH  18  19
BRANCH  18  21
ATOM     21  C   UNL     1       6.718   8.797  -0.352  0.00  0.00    -0.047 C 
BRANCH  21  22
ATOM     22  N   UNL     1       7.878   9.686  -0.552  0.00  0.00    +0.384 N 
ATOM     23  H   UNL     1       8.347   9.438  -1.430  0.00  0.00    -0.085 HD
ATOM     24  H   UNL     1       8.532   9.570   0.231  0.00  0.00    -0.085 HD
BRANCH  22  25
ATOM     25  C   UNL     1       7.439  11.093  -0.615  0.00  0.00    -0.039 C 
BRANCH  25  26
ATOM     26  C   UNL     1       8.643  11.976  -0.819  0.00  0.00    -0.027 A 
ATOM     27  C   UNL     1       9.212  12.389  -1.978  0.00  0.00    +0.009 A 
ATOM     28  C   UNL     1      10.323  13.210  -1.924  0.00  0.00    +0.008 A 
ATOM     29  C   UNL     1      10.817  13.569  -0.714  0.00  0.00    +0.045 A 
ATOM     30  S   UNL     1       9.694  12.744   0.403  0.00  0.00    -0.104 S 
ENDBRANCH  25  26
ENDBRANCH  22  25
ENDBRANCH  21  22
ENDBRANCH  18  21
ENDBRANCH  17  18
ENDBRANCH  16  17
ENDBRANCH   4  16
TORSDOF 10
