REMARK  Name = ZINC05185277
REMARK  1 active torsions:
REMARK  status: ('A' for Active; 'I' for Inactive)
REMARK    1  A    between atoms: C_14  and  O_16
REMARK                            x       y       z     vdW  Elec       q    Type
REMARK                         _______ _______ _______ _____ _____    ______ ____
ROOT
ATOM      1  C   UNL     1       1.193  -0.360  -0.943  0.00  0.00    +0.001 C 
ATOM      2  C   UNL     1       0.002  -0.004   0.002  0.00  0.00    +0.004 C 
ATOM      3  C   UNL     1      -0.019   1.522   0.010  0.00  0.00    -0.004 C 
ATOM      4  C   UNL     1       1.545   1.748  -0.003  0.00  0.00    -0.002 C 
ATOM      5  C   UNL     1       1.962   0.986  -1.197  0.00  0.00    +0.004 C 
ATOM      6  C   UNL     1       1.772   3.101   0.590  0.00  0.00    +0.021 C 
ATOM      7  C   UNL     1       0.313   3.686   0.768  0.00  0.00    +0.010 C 
ATOM      8  C   UNL     1      -0.320   2.304   1.295  0.00  0.00    -0.005 C 
ATOM      9  C   UNL     1       0.670   1.958   2.427  0.00  0.00    +0.035 C 
ATOM     10  C   UNL     1       2.005   2.679   2.097  0.00  0.00    +0.118 C 
ENDROOT
BRANCH  10  11
ATOM     11  O   UNL     1       2.187   3.828   2.928  0.00  0.00    -0.391 OA
ATOM     12  H   UNL     1       2.334   3.619   3.861  0.00  0.00    +0.210 HD
ENDBRANCH  10  11
TORSDOF 1
