REMARK  Name = ZINC65006065
REMARK  6 active torsions:
REMARK  status: ('A' for Active; 'I' for Inactive)
REMARK    1  A    between atoms: C_1  and  C_2
REMARK    2  A    between atoms: C_2  and  C_3
REMARK    3  A    between atoms: C_2  and  S_4
REMARK    4  A    between atoms: S_4  and  C_5
REMARK    5  A    between atoms: N_13  and  C_14
REMARK    6  A    between atoms: C_20  and  O_22
REMARK                            x       y       z     vdW  Elec       q    Type
REMARK                         _______ _______ _______ _____ _____    ______ ____
ROOT
ATOM      1  C   UNL     1      -0.136  -0.087   2.816  0.00  0.00    +0.170 A 
ATOM      2  N   UNL     1      -1.261   0.574   2.698  0.00  0.00    -0.222 NA
ATOM      3  C   UNL     1      -1.782   0.810   3.931  0.00  0.00    +0.090 A 
ATOM      4  C   UNL     1      -2.937   1.458   4.376  0.00  0.00    +0.030 A 
ATOM      5  C   UNL     1      -3.200   1.537   5.725  0.00  0.00    +0.002 A 
ATOM      6  C   UNL     1      -2.326   0.978   6.646  0.00  0.00    +0.002 A 
ATOM      7  C   UNL     1      -1.181   0.336   6.223  0.00  0.00    +0.028 A 
ATOM      8  C   UNL     1      -0.901   0.246   4.868  0.00  0.00    +0.070 A 
ATOM      9  N   UNL     1       0.130  -0.320   4.135  0.00  0.00    -0.313 N 
ENDROOT
BRANCH   9  10
ATOM     10  C   UNL     1       1.291  -1.032   4.676  0.00  0.00    +0.118 C 
ATOM     11  C   UNL     1       2.573  -0.309   4.258  0.00  0.00    +0.028 C 
ATOM     12  C   UNL     1       3.785  -1.053   4.822  0.00  0.00    +0.002 C 
ATOM     13  C   UNL     1       3.805  -2.483   4.278  0.00  0.00    +0.003 C 
ATOM     14  C   UNL     1       2.523  -3.206   4.696  0.00  0.00    +0.033 C 
ATOM     15  C   UNL     1       1.310  -2.462   4.131  0.00  0.00    +0.137 C 
BRANCH  15  16
ATOM     16  O   UNL     1       0.113  -3.137   4.522  0.00  0.00    -0.390 OA
ATOM     17  H   UNL     1       0.057  -4.051   4.210  0.00  0.00    +0.210 HD
ENDBRANCH  15  16
ENDBRANCH   9  10
BRANCH   1  18
ATOM     18  S   UNL     1       0.879  -0.605   1.472  0.00  0.00    -0.085 S 
BRANCH  18  20
ATOM     19  C   UNL     1      -0.019   1.526   0.010  0.00  0.00    +0.019 C 
ATOM     20  C   UNL     1       0.002  -0.004   0.002  0.00  0.00    +0.048 C 
ATOM     21  C   UNL     1       0.718  -0.497  -1.257  0.00  0.00    +0.019 C 
ENDBRANCH  18  20
ENDBRANCH   1  18
TORSDOF 4
