REMARK  Name = ZINC54440117
REMARK  6 active torsions:
REMARK  status: ('A' for Active; 'I' for Inactive)
REMARK    1  A    between atoms: C_1  and  N_2
REMARK    2  A    between atoms: C_3  and  C_15
REMARK    3  A    between atoms: C_17  and  N_24
REMARK    4  A    between atoms: C_18  and  O_23
REMARK    5  A    between atoms: C_19  and  O_21
REMARK    6  A    between atoms: O_21  and  C_22
REMARK                            x       y       z     vdW  Elec       q    Type
REMARK                         _______ _______ _______ _____ _____    ______ ____
ROOT
ATOM      1  C   UNL     1      -0.018   1.461   0.010  0.00  0.00    +0.134 C 
ATOM      2  N   UNL     1       0.002  -0.004   0.002  0.00  0.00    -0.278 N 
ATOM      3  C   UNL     1      -1.262  -0.739   0.004  0.00  0.00    +0.192 C 
ATOM      4  N   UNL     1      -1.113  -2.012  -0.713  0.00  0.00    -0.321 N 
ATOM      5  C   UNL     1       0.018  -2.783  -0.468  0.00  0.00    +0.042 A 
ATOM      6  C   UNL     1       0.001  -4.162  -0.575  0.00  0.00    +0.043 A 
ATOM      7  C   UNL     1       1.153  -4.882  -0.314  0.00  0.00    +0.043 A 
ATOM      8  C   UNL     1       2.323  -4.233   0.054  0.00  0.00    +0.021 A 
ATOM      9  C   UNL     1       2.356  -2.858   0.163  0.00  0.00    +0.016 A 
ATOM     10  C   UNL     1       1.204  -2.121  -0.099  0.00  0.00    +0.058 A 
ATOM     11  C   UNL     1       1.186  -0.650  -0.013  0.00  0.00    +0.250 C 
ATOM     12  O   UNL     1       2.228  -0.026   0.049  0.00  0.00    -0.270 OA
ATOM     13 CL   UNL     1       1.135  -6.613  -0.448  0.00  0.00    -0.083 Cl
ATOM     14  H   UNL     1      -1.788  -2.308  -1.343  0.00  0.00    +0.148 HD
ENDROOT
BRANCH   3  15
ATOM     15  C   UNL     1      -1.676  -1.018   1.426  0.00  0.00    -0.003 A 
ATOM     16  C   UNL     1      -1.320  -0.139   2.432  0.00  0.00    +0.043 A 
ATOM     17  C   UNL     1      -1.696  -0.389   3.739  0.00  0.00    +0.171 A 
ATOM     18  C   UNL     1      -2.432  -1.523   4.042  0.00  0.00    +0.189 A 
ATOM     19  C   UNL     1      -2.791  -2.408   3.029  0.00  0.00    +0.164 A 
ATOM     20  C   UNL     1      -2.414  -2.148   1.721  0.00  0.00    +0.056 A 
BRANCH  17  21
ATOM     21  N   UNL     1      -1.313   0.553   4.814  0.00  0.00    +0.060 N 
ATOM     22  O   UNL     1      -0.670   1.543   4.549  0.00  0.00    -0.126 OA
ATOM     23  O   UNL     1      -1.642   0.334   5.956  0.00  0.00    -0.126 OA
ENDBRANCH  17  21
BRANCH  19  24
ATOM     24  O   UNL     1      -3.513  -3.522   3.322  0.00  0.00    -0.491 OA
ATOM     25  C   UNL     1      -3.845  -4.385   2.232  0.00  0.00    +0.277 C 
ENDBRANCH  19  24
BRANCH  18  26
ATOM     26  O   UNL     1      -2.803  -1.772   5.327  0.00  0.00    -0.502 OA
ATOM     27  H   UNL     1      -3.659  -1.392   5.569  0.00  0.00    +0.292 HD
ENDBRANCH  18  26
ENDBRANCH   3  15
TORSDOF 4
