REMARK  Name = ZINC33879236
REMARK  8 active torsions:
REMARK  status: ('A' for Active; 'I' for Inactive)
REMARK    1  A    between atoms: C_1  and  O_2
REMARK    2  A    between atoms: O_2  and  C_3
REMARK    3  A    between atoms: C_5  and  C_11
REMARK    4  A    between atoms: C_7  and  O_9
REMARK    5  A    between atoms: O_9  and  C_10
REMARK    6  A    between atoms: N_12  and  N_13
REMARK    7  A    between atoms: C_14  and  C_16
REMARK    8  A    between atoms: C_18  and  N_24
REMARK                            x       y       z     vdW  Elec       q    Type
REMARK                         _______ _______ _______ _____ _____    ______ ____
ROOT
ATOM      1  N   UNL     1       1.960  -6.050  -3.386  0.00  0.00    -0.202 N 
ATOM      2  C   UNL     1       2.559  -6.644  -4.436  0.00  0.00    +0.283 C 
ATOM      3  O   UNL     1       3.055  -5.968  -5.317  0.00  0.00    -0.267 OA
ATOM      4  H   UNL     1       1.565  -6.590  -2.684  0.00  0.00    +0.178 HD
ENDROOT
BRANCH   2   5
ATOM      5  C   UNL     1       2.615  -8.121  -4.518  0.00  0.00    +0.149 A 
ATOM      6  C   UNL     1       3.240  -8.728  -5.603  0.00  0.00    +0.094 A 
ATOM      7  C   UNL     1       3.284 -10.121  -5.665  0.00  0.00    +0.067 A 
ATOM      8  C   UNL     1       2.695 -10.849  -4.632  0.00  0.00    +0.100 A 
ATOM      9  C   UNL     1       2.091 -10.171  -3.586  0.00  0.00    +0.150 A 
ATOM     10  N   UNL     1       2.071  -8.854  -3.552  0.00  0.00    -0.228 NA
ATOM     11 CL   UNL     1       1.355 -11.070  -2.296  0.00  0.00    -0.060 Cl
ATOM     12 CL   UNL     1       2.718 -12.584  -4.657  0.00  0.00    -0.078 Cl
ATOM     13 CL   UNL     1       3.955  -7.767  -6.860  0.00  0.00    -0.079 Cl
BRANCH   7  14
ATOM     14  N   UNL     1       3.900 -10.770  -6.734  0.00  0.00    -0.356 N 
ATOM     15  H   UNL     1       4.306 -10.252  -7.447  0.00  0.00    +0.142 HD
ATOM     16  H   UNL     1       3.923 -11.739  -6.765  0.00  0.00    +0.142 HD
ENDBRANCH   7  14
ENDBRANCH   2   5
BRANCH   1  18
ATOM     17  C   UNL     1       1.330  -4.079  -2.297  0.00  0.00    +0.138 C 
ATOM     18  N   UNL     1       1.908  -4.652  -3.309  0.00  0.00    -0.187 NA
BRANCH  17  21
ATOM     19  C   UNL     1       0.606  -0.607  -1.056  0.00  0.00    +0.124 A 
ATOM     20  C   UNL     1       0.655  -1.989  -1.128  0.00  0.00    +0.055 A 
ATOM     21  C   UNL     1       1.275  -2.608  -2.216  0.00  0.00    +0.001 A 
ATOM     22  C   UNL     1       1.844  -1.828  -3.225  0.00  0.00    +0.055 A 
ATOM     23  C   UNL     1       1.790  -0.447  -3.144  0.00  0.00    +0.124 A 
ATOM     24  C   UNL     1       1.167   0.163  -2.064  0.00  0.00    +0.091 A 
BRANCH  19  26
ATOM     25  C   UNL     1      -0.017   1.425   0.010  0.00  0.00    +0.277 C 
ATOM     26  O   UNL     1       0.002  -0.004   0.002  0.00  0.00    -0.495 OA
ENDBRANCH  19  26
BRANCH  23  27
ATOM     27  O   UNL     1       2.344   0.312  -4.126  0.00  0.00    -0.495 OA
ATOM     28  C   UNL     1       2.252   1.731  -3.978  0.00  0.00    +0.277 C 
ENDBRANCH  23  27
ENDBRANCH  17  21
ENDBRANCH   1  18
TORSDOF 6
