REMARK  Name = ZINC66422111
REMARK  7 active torsions:
REMARK  status: ('A' for Active; 'I' for Inactive)
REMARK    1  A    between atoms: C_3  and  C_7
REMARK    2  A    between atoms: N_12  and  C_13
REMARK    3  A    between atoms: C_13  and  C_14
REMARK    4  A    between atoms: C_14  and  C_16
REMARK    5  A    between atoms: C_14  and  O_26
REMARK    6  A    between atoms: C_16  and  O_17
REMARK    7  A    between atoms: O_17  and  C_18
REMARK                            x       y       z     vdW  Elec       q    Type
REMARK                         _______ _______ _______ _____ _____    ______ ____
ROOT
ATOM      1  C   UNL     1       4.981  -0.301   1.690  0.00  0.00    -0.043 C 
ENDROOT
BRANCH   1   6
ATOM      2  C   UNL     1       3.614   0.681  -0.029  0.00  0.00    -0.021 C 
ATOM      3  C   UNL     1       4.125   0.768  -1.483  0.00  0.00    -0.011 C 
ATOM      4  C   UNL     1       5.355  -0.177  -1.478  0.00  0.00    -0.020 C 
ATOM      5  C   UNL     1       4.889  -1.292  -0.509  0.00  0.00    -0.078 C 
ATOM      6  N   UNL     1       4.115  -0.585   0.538  0.00  0.00    +0.387 N 
ATOM      7  H   UNL     1       3.338  -1.157   0.832  0.00  0.00    -0.081 HD
BRANCH   2  10
ATOM      8  C   UNL     1      -0.016   1.344   0.009  0.00  0.00    +0.019 A 
ATOM      9  C   UNL     1       1.322   1.784  -0.001  0.00  0.00    +0.021 A 
ATOM     10  C   UNL     1       2.107   0.688  -0.014  0.00  0.00    +0.002 A 
ATOM     11  N   UNL     1       1.303  -0.413  -0.013  0.00  0.00    -0.366 N 
ATOM     12  H   UNL     1       1.606  -1.334  -0.021  0.00  0.00    +0.165 HD
ATOM     13  C   UNL     1       0.002  -0.004   0.002  0.00  0.00    +0.082 A 
ENDBRANCH   2  10
ENDBRANCH   1   6
BRANCH   1  14
ATOM     14  C   UNL     1       5.398  -1.617   2.351  0.00  0.00    +0.135 C 
BRANCH  14  15
ATOM     15  O   UNL     1       4.234  -2.318   2.791  0.00  0.00    -0.390 OA
ATOM     16  H   UNL     1       3.702  -1.832   3.436  0.00  0.00    +0.210 HD
ENDBRANCH  14  15
BRANCH  14  17
ATOM     17  C   UNL     1       6.300  -1.321   3.551  0.00  0.00    +0.258 C 
BRANCH  17  18
ATOM     18  O   UNL     1       6.784  -2.550   4.097  0.00  0.00    -0.488 OA
BRANCH  18  19
ATOM     19  C   UNL     1       7.605  -2.465   5.177  0.00  0.00    +0.135 A 
ATOM     20  C   UNL     1       7.934  -1.224   5.703  0.00  0.00    +0.048 A 
ATOM     21  C   UNL     1       8.768  -1.139   6.801  0.00  0.00    +0.023 A 
ATOM     22  C   UNL     1       9.276  -2.291   7.376  0.00  0.00    +0.042 A 
ATOM     23  C   UNL     1       8.950  -3.529   6.853  0.00  0.00    +0.039 A 
ATOM     24  C   UNL     1       8.111  -3.619   5.758  0.00  0.00    +0.061 A 
ATOM     25 BR   UNL     1       7.659  -5.312   5.049  0.00  0.00    -0.046 Br
ATOM     26 CL   UNL     1      10.325  -2.181   8.755  0.00  0.00    -0.084 Cl
ENDBRANCH  18  19
ENDBRANCH  17  18
ENDBRANCH  14  17
ENDBRANCH   1  14
TORSDOF 7
