REMARK  Name = ZINC53113349
REMARK  7 active torsions:
REMARK  status: ('A' for Active; 'I' for Inactive)
REMARK    1  A    between atoms: C_1  and  C_2
REMARK    2  A    between atoms: C_7  and  C_9
REMARK    3  A    between atoms: C_7  and  N_11
REMARK    4  A    between atoms: C_9  and  O_10
REMARK    5  A    between atoms: N_11  and  S_12
REMARK    6  A    between atoms: S_12  and  C_15
REMARK    7  A    between atoms: C_18  and  N_22
REMARK                            x       y       z     vdW  Elec       q    Type
REMARK                         _______ _______ _______ _____ _____    ______ ____
ROOT
ATOM      1  S   UNL     1       3.029   2.588   0.814  0.00  0.00    +0.060 S 
ATOM      2  O   UNL     1       3.385   2.337  -0.539  0.00  0.00    -0.153 OA
ATOM      3  O   UNL     1       2.407   3.797   1.226  0.00  0.00    -0.153 OA
ENDROOT
BRANCH   1   4
ATOM      4  C   UNL     1       4.508   2.434   1.760  0.00  0.00    +0.119 A 
ATOM      5  C   UNL     1       5.710   2.177   1.125  0.00  0.00    +0.031 A 
ATOM      6  C   UNL     1       6.870   2.056   1.863  0.00  0.00    +0.025 A 
ATOM      7  C   UNL     1       6.830   2.192   3.246  0.00  0.00    +0.026 A 
ATOM      8  C   UNL     1       5.623   2.450   3.881  0.00  0.00    +0.040 A 
ATOM      9  C   UNL     1       4.465   2.576   3.135  0.00  0.00    +0.046 A 
ATOM     10 BR   UNL     1       2.821   2.935   3.998  0.00  0.00    -0.048 Br
BRANCH   7  11
ATOM     11  N   UNL     1       8.003   2.069   3.995  0.00  0.00    -0.358 N 
ATOM     12  H   UNL     1       8.846   1.888   3.550  0.00  0.00    +0.142 HD
ATOM     13  H   UNL     1       7.974   2.164   4.960  0.00  0.00    +0.142 HD
ENDBRANCH   7  11
ENDBRANCH   1   4
BRANCH   1  14
ATOM     14  N   UNL     1       2.023   1.357   1.275  0.00  0.00    -0.182 NA
ATOM     15  H   UNL     1       1.215   1.552   1.775  0.00  0.00    +0.149 HD
BRANCH  14  21
ATOM     16  C   UNL     1      -0.246   1.144   0.248  0.00  0.00    +0.007 C 
ATOM     17  C   UNL     1       0.098  -0.302  -0.115  0.00  0.00    -0.012 C 
ATOM     18  C   UNL     1       0.744  -0.340  -1.501  0.00  0.00    +0.003 C 
ATOM     19  C   UNL     1       2.022   0.501  -1.492  0.00  0.00    +0.002 C 
ATOM     20  C   UNL     1       2.998  -0.066  -0.459  0.00  0.00    +0.026 C 
ATOM     21  C   UNL     1       2.352  -0.028   0.927  0.00  0.00    +0.063 C 
ATOM     22  C   UNL     1       1.074  -0.869   0.918  0.00  0.00    +0.029 C 
BRANCH  21  23
ATOM     23  C   UNL     1       3.328  -0.595   1.960  0.00  0.00    +0.179 C 
BRANCH  23  24
ATOM     24  O   UNL     1       4.577   0.092   1.862  0.00  0.00    -0.393 OA
ATOM     25  H   UNL     1       5.246  -0.216   2.489  0.00  0.00    +0.209 HD
ENDBRANCH  23  24
ENDBRANCH  21  23
ENDBRANCH  14  21
ENDBRANCH   1  14
TORSDOF 6
