REMARK  Name = ZINC13980069
REMARK  9 active torsions:
REMARK  status: ('A' for Active; 'I' for Inactive)
REMARK    1  A    between atoms: C_4  and  C_7
REMARK    2  A    between atoms: C_12  and  O_13
REMARK    3  A    between atoms: O_13  and  C_14
REMARK    4  A    between atoms: C_14  and  C_15
REMARK    5  A    between atoms: N_17  and  N_18
REMARK    6  A    between atoms: N_18  and  C_19
REMARK    7  A    between atoms: C_19  and  N_21
REMARK    8  A    between atoms: C_22  and  C_24
REMARK    9  A    between atoms: C_24  and  C_25
REMARK                            x       y       z     vdW  Elec       q    Type
REMARK                         _______ _______ _______ _____ _____    ______ ____
ROOT
ATOM      1  N   UNL     1       3.478   1.930  -0.021  0.00  0.00    -0.245 N 
ATOM      2  H   UNL     1       4.324   1.456  -0.031  0.00  0.00    +0.172 HD
ENDROOT
BRANCH   1   5
ATOM      3  C   UNL     1       4.617   4.020  -0.020  0.00  0.00    +0.267 C 
ATOM      4  O   UNL     1       5.675   3.428  -0.034  0.00  0.00    -0.271 OA
ATOM      5  N   UNL     1       3.459   3.331  -0.013  0.00  0.00    -0.232 N 
ATOM      6  H   UNL     1       2.612   3.804  -0.003  0.00  0.00    +0.173 HD
BRANCH   3   7
ATOM      7  C   UNL     1       4.596   5.527  -0.012  0.00  0.00    +0.326 C 
BRANCH   7   8
ATOM      8  O   UNL     1       5.937   6.022  -0.022  0.00  0.00    -0.482 OA
BRANCH   8  14
ATOM      9  C   UNL     1       7.380   7.925  -0.020  0.00  0.00    +0.024 A 
ATOM     10  C   UNL     1       7.533   9.310  -0.018  0.00  0.00    +0.012 A 
ATOM     11  C   UNL     1       6.421  10.126  -0.003  0.00  0.00    +0.001 A 
ATOM     12  C   UNL     1       5.152   9.574   0.005  0.00  0.00    +0.004 A 
ATOM     13  C   UNL     1       4.988   8.202  -0.002  0.00  0.00    +0.046 A 
ATOM     14  C   UNL     1       6.096   7.371  -0.017  0.00  0.00    +0.129 A 
BRANCH   9  18
ATOM     15  C   UNL     1      10.798   5.397  -0.050  0.00  0.00    +0.000 A 
ATOM     16  C   UNL     1      10.698   6.431  -0.963  0.00  0.00    +0.001 A 
ATOM     17  C   UNL     1       9.591   7.255  -0.958  0.00  0.00    +0.008 A 
ATOM     18  C   UNL     1       8.572   7.043  -0.030  0.00  0.00    -0.014 A 
ATOM     19  C   UNL     1       8.681   6.003   0.891  0.00  0.00    +0.008 A 
ATOM     20  C   UNL     1       9.790   5.182   0.873  0.00  0.00    +0.001 A 
ENDBRANCH   9  18
ENDBRANCH   8  14
ENDBRANCH   7   8
ENDBRANCH   3   7
ENDBRANCH   1   5
BRANCH   1  21
ATOM     21  C   UNL     1       2.320   1.240  -0.013  0.00  0.00    +0.153 C 
ATOM     22  S   UNL     1       2.343  -0.472  -0.023  0.00  0.00    -0.017 S 
BRANCH  21  23
ATOM     23  N   UNL     1       1.143   1.898   0.001  0.00  0.00    -0.266 N 
ATOM     24  C   UNL     1      -0.014   1.208   0.009  0.00  0.00    +0.223 C 
ATOM     25  O   UNL     1       0.002  -0.004   0.002  0.00  0.00    -0.275 OA
ATOM     26  H   UNL     1       1.130   2.868   0.007  0.00  0.00    +0.157 HD
BRANCH  24  27
ATOM     27  C   UNL     1      -1.330   1.944   0.019  0.00  0.00    +0.131 C 
BRANCH  27  28
ATOM     28  C   UNL     1      -2.462   0.949   0.019  0.00  0.00    -0.031 A 
ATOM     29  C   UNL     1      -3.049   0.581  -1.153  0.00  0.00    +0.005 A 
ATOM     30  C   UNL     1      -4.097  -0.337  -1.173  0.00  0.00    +0.001 A 
ATOM     31  C   UNL     1      -4.563  -0.893  -0.021  0.00  0.00    +0.008 A 
ATOM     32  C   UNL     1      -3.982  -0.538   1.208  0.00  0.00    -0.018 A 
ATOM     33  C   UNL     1      -2.913   0.393   1.228  0.00  0.00    -0.014 A 
ATOM     34  C   UNL     1      -2.334   0.751   2.457  0.00  0.00    +0.009 A 
ATOM     35  C   UNL     1      -2.801   0.196   3.608  0.00  0.00    +0.001 A 
ATOM     36  C   UNL     1      -3.849  -0.722   3.589  0.00  0.00    +0.001 A 
ATOM     37  C   UNL     1      -4.437  -1.090   2.417  0.00  0.00    +0.008 A 
ENDBRANCH  27  28
ENDBRANCH  24  27
ENDBRANCH  21  23
ENDBRANCH   1  21
TORSDOF 9
