REMARK  Name = ZINC63447862
REMARK  6 active torsions:
REMARK  status: ('A' for Active; 'I' for Inactive)
REMARK    1  A    between atoms: C_1  and  O_2
REMARK    2  A    between atoms: O_2  and  C_3
REMARK    3  A    between atoms: C_5  and  C_12
REMARK    4  A    between atoms: C_7  and  O_10
REMARK    5  A    between atoms: C_8  and  O_9
REMARK    6  A    between atoms: O_10  and  C_11
REMARK                            x       y       z     vdW  Elec       q    Type
REMARK                         _______ _______ _______ _____ _____    ______ ____
ROOT
ATOM      1  C   UNL     1      -4.871   0.264   0.038  0.00  0.00    +0.111 C 
ATOM      2  C   UNL     1      -5.392   0.424  -1.392  0.00  0.00    +0.128 C 
ATOM      3  C   UNL     1      -5.791  -0.971  -1.859  0.00  0.00    -0.035 C 
ATOM      4  C   UNL     1      -5.147  -1.184  -2.997  0.00  0.00    +0.001 A 
ATOM      5  C   UNL     1      -5.189  -2.301  -3.955  0.00  0.00    +0.030 A 
ATOM      6  C   UNL     1      -4.368  -2.197  -5.034  0.00  0.00    +0.042 A 
ATOM      7  C   UNL     1      -3.518  -1.107  -5.253  0.00  0.00    +0.022 A 
ATOM      8  C   UNL     1      -3.419  -0.035  -4.427  0.00  0.00    +0.027 A 
ATOM      9  C   UNL     1      -4.238  -0.026  -3.261  0.00  0.00    +0.043 A 
ATOM     10  N   UNL     1      -4.360   0.888  -2.318  0.00  0.00    -0.376 N 
ATOM     11 CL   UNL     1      -4.373  -3.484  -6.200  0.00  0.00    -0.084 Cl
ATOM     12  C   UNL     1      -6.680  -1.861  -1.024  0.00  0.00    +0.048 C 
ATOM     13  C   UNL     1      -6.105  -1.825   0.404  0.00  0.00    +0.086 C 
ATOM     14  N   UNL     1      -5.896  -0.437   0.829  0.00  0.00    -0.307 NA
ATOM     15  H   UNL     1      -5.688  -0.388   1.815  0.00  0.00    +0.123 HD
ATOM     16  H   UNL     1      -3.859   1.715  -2.242  0.00  0.00    +0.160 HD
ENDROOT
BRANCH   1  19
ATOM     17  C   UNL     1      -1.282  -0.773   0.607  0.00  0.00    +0.165 A 
ATOM     18  C   UNL     1      -2.455  -0.034   0.615  0.00  0.00    +0.055 A 
ATOM     19  C   UNL     1      -3.598  -0.543   0.028  0.00  0.00    -0.021 A 
ATOM     20  C   UNL     1      -3.577  -1.790  -0.569  0.00  0.00    +0.055 A 
ATOM     21  C   UNL     1      -2.408  -2.535  -0.580  0.00  0.00    +0.165 A 
ATOM     22  C   UNL     1      -1.255  -2.025   0.004  0.00  0.00    +0.201 A 
BRANCH  17  24
ATOM     23  C   UNL     1      -0.258   1.021   1.786  0.00  0.00    +0.277 C 
ATOM     24  O   UNL     1      -0.157  -0.271   1.185  0.00  0.00    -0.491 OA
ENDBRANCH  17  24
BRANCH  22  25
ATOM     25  O   UNL     1      -0.104  -2.751  -0.010  0.00  0.00    -0.501 OA
ATOM     26  H   UNL     1       0.002  -3.335   0.753  0.00  0.00    +0.292 HD
ENDBRANCH  22  25
BRANCH  21  27
ATOM     27  O   UNL     1      -2.389  -3.762  -1.167  0.00  0.00    -0.491 OA
ATOM     28  C   UNL     1      -3.609  -4.221  -1.752  0.00  0.00    +0.277 C 
ENDBRANCH  21  27
ENDBRANCH   1  19
TORSDOF 4
