REMARK  Name = ZINC15958196
REMARK  7 active torsions:
REMARK  status: ('A' for Active; 'I' for Inactive)
REMARK    1  A    between atoms: C_1  and  O_2
REMARK    2  A    between atoms: O_2  and  C_3
REMARK    3  A    between atoms: C_8  and  C_9
REMARK    4  A    between atoms: C_9  and  N_10
REMARK    5  A    between atoms: C_15  and  C_32
REMARK    6  A    between atoms: C_32  and  C_33
REMARK    7  A    between atoms: C_36  and  O_39
REMARK                            x       y       z     vdW  Elec       q    Type
REMARK                         _______ _______ _______ _____ _____    ______ ____
ROOT
ATOM      1  N   UNL     1       1.828  -3.162  -0.725  0.00  0.00    -0.237 N 
ATOM      2  C   UNL     1       1.448  -2.653  -1.903  0.00  0.00    +0.227 C 
ATOM      3  O   UNL     1       0.338  -2.242  -2.163  0.00  0.00    -0.275 OA
ATOM      4  C   UNL     1       2.619  -2.671  -2.859  0.00  0.00    +0.107 C 
ATOM      5  C   UNL     1       3.054  -1.222  -3.161  0.00  0.00    +0.072 C 
ATOM      6  N   UNL     1       4.012  -0.876  -2.077  0.00  0.00    -0.295 NA
ATOM      7  C   UNL     1       4.781  -2.117  -1.867  0.00  0.00    +0.136 C 
ATOM      8  C   UNL     1       3.768  -3.281  -2.008  0.00  0.00    +0.122 C 
ATOM      9  C   UNL     1       3.110  -3.542  -0.672  0.00  0.00    +0.229 C 
ATOM     10  O   UNL     1       3.657  -4.023   0.297  0.00  0.00    -0.275 OA
ATOM     11  C   UNL     1       5.457  -2.127  -0.526  0.00  0.00    +0.003 A 
ATOM     12  C   UNL     1       4.996  -2.047   0.769  0.00  0.00    +0.008 A 
ATOM     13  C   UNL     1       5.889  -2.083   1.826  0.00  0.00    +0.000 A 
ATOM     14  C   UNL     1       7.245  -2.200   1.577  0.00  0.00    +0.002 A 
ATOM     15  C   UNL     1       7.711  -2.282   0.282  0.00  0.00    +0.023 A 
ATOM     16  C   UNL     1       6.819  -2.246  -0.787  0.00  0.00    +0.039 A 
ATOM     17  N   UNL     1       7.043  -2.313  -2.164  0.00  0.00    -0.283 N 
ATOM     18  C   UNL     1       5.896  -2.245  -2.869  0.00  0.00    +0.243 C 
ATOM     19  O   UNL     1       5.785  -2.280  -4.076  0.00  0.00    -0.273 OA
ATOM     20  H   UNL     1       4.616  -0.119  -2.357  0.00  0.00    +0.124 HD
ATOM     21  H   UNL     1       7.921  -2.399  -2.567  0.00  0.00    +0.155 HD
ENDROOT
BRANCH   1  22
ATOM     22  C   UNL     1       0.916  -3.286   0.415  0.00  0.00    +0.155 C 
BRANCH  22  28
ATOM     23  C   UNL     1       0.264  -0.903   0.843  0.00  0.00    +0.125 A 
ATOM     24  C   UNL     1       0.313   0.253   1.610  0.00  0.00    +0.046 A 
ATOM     25  C   UNL     1       1.070   0.283   2.764  0.00  0.00    +0.004 A 
ATOM     26  C   UNL     1       1.779  -0.837   3.157  0.00  0.00    +0.001 A 
ATOM     27  C   UNL     1       1.732  -1.990   2.395  0.00  0.00    +0.009 A 
ATOM     28  C   UNL     1       0.972  -2.027   1.242  0.00  0.00    +0.012 A 
BRANCH  23  30
ATOM     29  C   UNL     1      -1.183   0.259  -0.642  0.00  0.00    +0.277 C 
ATOM     30  O   UNL     1      -0.481  -0.935  -0.293  0.00  0.00    -0.495 OA
ENDBRANCH  23  30
ENDBRANCH  22  28
ENDBRANCH   1  22
BRANCH   5  31
ATOM     31  C   UNL     1       3.742  -1.146  -4.526  0.00  0.00    +0.054 C 
BRANCH  31  32
ATOM     32  C   UNL     1       2.723  -0.806  -5.583  0.00  0.00    -0.046 A 
ATOM     33  C   UNL     1       2.041  -1.817  -6.235  0.00  0.00    +0.007 A 
ATOM     34  C   UNL     1       1.107  -1.508  -7.205  0.00  0.00    +0.045 A 
ATOM     35  C   UNL     1       0.854  -0.182  -7.524  0.00  0.00    +0.117 A 
ATOM     36  C   UNL     1       1.539   0.831  -6.869  0.00  0.00    +0.045 A 
ATOM     37  C   UNL     1       2.468   0.516  -5.896  0.00  0.00    +0.007 A 
BRANCH  35  38
ATOM     38  O   UNL     1      -0.064   0.125  -8.479  0.00  0.00    -0.507 OA
ATOM     39  H   UNL     1      -0.962   0.241  -8.138  0.00  0.00    +0.292 HD
ENDBRANCH  35  38
ENDBRANCH  31  32
ENDBRANCH   5  31
TORSDOF 6
