REMARK  Name = ZINC39867085
REMARK  8 active torsions:
REMARK  status: ('A' for Active; 'I' for Inactive)
REMARK    1  A    between atoms: C_1  and  C_2
REMARK    2  A    between atoms: C_2  and  C_3
REMARK    3  A    between atoms: C_2  and  N_4
REMARK    4  A    between atoms: C_5  and  C_7
REMARK    5  A    between atoms: C_7  and  C_8
REMARK    6  A    between atoms: C_8  and  C_9
REMARK    7  A    between atoms: C_9  and  C_10
REMARK    8  A    between atoms: C_18  and  C_20
REMARK                            x       y       z     vdW  Elec       q    Type
REMARK                         _______ _______ _______ _____ _____    ______ ____
ROOT
ATOM      1  C   UNL     1      -0.407  -1.781   7.159  0.00  0.00    -0.013 A 
ATOM      2  C   UNL     1      -1.231  -2.926   7.540  0.00  0.00    +0.003 A 
ATOM      3  C   UNL     1      -1.399  -4.213   7.019  0.00  0.00    +0.010 A 
ATOM      4  C   UNL     1      -2.269  -5.078   7.620  0.00  0.00    +0.001 A 
ATOM      5  C   UNL     1      -2.987  -4.691   8.743  0.00  0.00    +0.002 A 
ATOM      6  C   UNL     1      -2.837  -3.429   9.273  0.00  0.00    +0.026 A 
ATOM      7  C   UNL     1      -1.957  -2.529   8.679  0.00  0.00    +0.047 A 
ATOM      8  N   UNL     1      -1.597  -1.232   8.967  0.00  0.00    -0.353 N 
ATOM      9  C   UNL     1      -0.664  -0.794   8.054  0.00  0.00    +0.069 A 
ATOM     10  H   UNL     1      -1.946  -0.707   9.704  0.00  0.00    +0.166 HD
ENDROOT
BRANCH   9  11
ATOM     11  C   UNL     1      -0.041   0.545   8.048  0.00  0.00    +0.088 A 
ATOM     12  C   UNL     1      -0.719   1.621   8.648  0.00  0.00    +0.030 A 
ATOM     13  C   UNL     1      -0.154   2.861   8.650  0.00  0.00    +0.012 A 
ATOM     14  C   UNL     1       1.107   3.023   8.041  0.00  0.00    +0.000 A 
ATOM     15  C   UNL     1       1.744   4.273   8.008  0.00  0.00    +0.010 A 
ATOM     16  C   UNL     1       2.963   4.392   7.412  0.00  0.00    +0.001 A 
ATOM     17  C   UNL     1       3.587   3.289   6.833  0.00  0.00    +0.002 A 
ATOM     18  C   UNL     1       2.998   2.063   6.846  0.00  0.00    +0.028 A 
ATOM     19  C   UNL     1       1.740   1.899   7.453  0.00  0.00    +0.072 A 
ATOM     20  N   UNL     1       1.143   0.705   7.484  0.00  0.00    -0.245 NA
ENDBRANCH   9  11
BRANCH   1  21
ATOM     21  C   UNL     1       0.549  -1.711   5.996  0.00  0.00    +0.038 C 
BRANCH  21  22
ATOM     22  C   UNL     1      -0.191  -1.204   4.756  0.00  0.00    +0.014 C 
BRANCH  22  23
ATOM     23  C   UNL     1       0.780  -1.133   3.576  0.00  0.00    +0.096 C 
BRANCH  23  25
ATOM     24  N   UNL     1       0.711  -0.489   1.189  0.00  0.00    -0.313 N 
ATOM     25  C   UNL     1       0.051  -0.633   2.355  0.00  0.00    +0.213 C 
ATOM     26  O   UNL     1      -1.129  -0.361   2.423  0.00  0.00    -0.276 OA
ATOM     27  H   UNL     1       1.654  -0.707   1.135  0.00  0.00    +0.149 HD
BRANCH  24  29
ATOM     28  C   UNL     1      -0.019   1.526   0.010  0.00  0.00    +0.027 C 
ATOM     29  C   UNL     1       0.002  -0.004   0.002  0.00  0.00    +0.067 C 
ATOM     30  C   UNL     1       0.718  -0.497  -1.257  0.00  0.00    +0.027 C 
ENDBRANCH  24  29
ENDBRANCH  23  25
ENDBRANCH  22  23
ENDBRANCH  21  22
ENDBRANCH   1  21
TORSDOF 6
