REMARK  Name = ZINC13427240
REMARK  7 active torsions:
REMARK  status: ('A' for Active; 'I' for Inactive)
REMARK    1  A    between atoms: C_1  and  N_53
REMARK    2  A    between atoms: N_4  and  C_7
REMARK    3  A    between atoms: C_8  and  C_18
REMARK    4  A    between atoms: N_22  and  C_26
REMARK    5  A    between atoms: C_26  and  C_27
REMARK    6  A    between atoms: C_27  and  C_28
REMARK    7  A    between atoms: C_28  and  C_29
REMARK                            x       y       z     vdW  Elec       q    Type
REMARK                         _______ _______ _______ _____ _____    ______ ____
ROOT
ATOM      1  C   UNL     1      -1.012  -0.590   0.479  0.00  0.00    +0.136 A 
ATOM      2  C   UNL     1      -1.371  -1.820  -0.121  0.00  0.00    +0.081 A 
ATOM      3  C   UNL     1      -2.743  -2.077  -0.357  0.00  0.00    +0.267 A 
ATOM      4  O   UNL     1      -3.098  -3.124  -0.869  0.00  0.00    -0.267 OA
ATOM      5  N   UNL     1      -3.651  -1.139  -0.012  0.00  0.00    -0.268 N 
ATOM      6  C   UNL     1      -4.974  -1.375  -0.239  0.00  0.00    +0.096 A 
ATOM      7  C   UNL     1      -5.909  -0.457   0.094  0.00  0.00    +0.018 A 
ATOM      8  C   UNL     1      -5.525   0.755   0.682  0.00  0.00    +0.005 A 
ATOM      9  C   UNL     1      -4.204   1.002   0.914  0.00  0.00    +0.047 A 
ATOM     10  C   UNL     1      -3.246   0.035   0.561  0.00  0.00    +0.142 A 
ATOM     11  N   UNL     1      -1.956   0.285   0.792  0.00  0.00    -0.214 NA
ENDROOT
BRANCH   1  15
ATOM     12  C   UNL     1       3.932   0.786   2.617  0.00  0.00    -0.096 C 
ATOM     13  C   UNL     1       1.963   1.398   1.346  0.00  0.00    -0.060 C 
ATOM     14  C   UNL     1       0.475   1.096   1.154  0.00  0.00    +0.088 C 
ATOM     15  N   UNL     1       0.312  -0.302   0.731  0.00  0.00    -0.318 N 
ATOM     16  C   UNL     1       0.869  -1.220   1.733  0.00  0.00    +0.088 C 
ATOM     17  C   UNL     1       2.357  -0.919   1.926  0.00  0.00    -0.060 C 
ATOM     18  N   UNL     1       2.506   0.482   2.372  0.00  0.00    +0.380 N 
ATOM     19  H   UNL     1       1.982   0.612   3.246  0.00  0.00    -0.082 HD
ENDBRANCH   1  15
BRANCH   2  20
ATOM     20  C   UNL     1      -0.385  -2.771  -0.473  0.00  0.00    +0.037 C 
ATOM     21  C   UNL     1       0.654  -2.410  -1.281  0.00  0.00    +0.077 C 
ATOM     22  C   UNL     1       1.801  -3.158  -1.671  0.00  0.00    +0.258 C 
ATOM     23  O   UNL     1       1.969  -4.299  -1.276  0.00  0.00    -0.269 OA
ATOM     24  N   UNL     1       2.676  -2.583  -2.476  0.00  0.00    -0.255 N 
ATOM     25  C   UNL     1       2.494  -1.315  -2.908  0.00  0.00    +0.121 C 
ATOM     26  S   UNL     1       3.491  -0.377  -3.937  0.00  0.00    -0.027 S 
ATOM     27  S   UNL     1       0.950  -0.865  -2.131  0.00  0.00    -0.061 S 
BRANCH  24  28
ATOM     28  C   UNL     1       3.865  -3.327  -2.902  0.00  0.00    +0.115 C 
BRANCH  28  29
ATOM     29  C   UNL     1       4.999  -3.092  -1.902  0.00  0.00    +0.031 C 
BRANCH  29  30
ATOM     30  C   UNL     1       6.239  -3.869  -2.347  0.00  0.00    +0.126 C 
BRANCH  30  31
ATOM     31  C   UNL     1       7.356  -3.638  -1.362  0.00  0.00    +0.356 C 
ATOM     32  O   UNL     1       7.178  -2.925  -0.403  0.00  0.00    -0.246 OA
ATOM     33  O   UNL     1       8.549  -4.224  -1.550  0.00  0.00    -0.246 OA
ENDBRANCH  30  31
ENDBRANCH  29  30
ENDBRANCH  28  29
ENDBRANCH  24  28
ENDBRANCH   2  20
TORSDOF 6
