REMARK  Name = ZINC59021827
REMARK  15 active torsions:
REMARK  status: ('A' for Active; 'I' for Inactive)
REMARK    1  A    between atoms: C_1  and  C_2
REMARK    2  A    between atoms: C_5  and  S_8
REMARK    3  A    between atoms: S_8  and  N_11
REMARK    4  A    between atoms: N_11  and  C_12
REMARK    5  A    between atoms: C_12  and  C_14
REMARK    6  A    between atoms: C_12  and  C_18
REMARK    7  A    between atoms: C_14  and  C_15
REMARK    8  A    between atoms: C_15  and  C_16
REMARK    9  A    between atoms: C_15  and  C_17
REMARK   10  A    between atoms: C_23  and  N_26
REMARK   11  A    between atoms: C_27  and  O_29
REMARK   12  A    between atoms: O_29  and  C_30
REMARK   13  A    between atoms: C_30  and  C_31
REMARK   14  A    between atoms: C_30  and  C_32
REMARK   15  A    between atoms: C_30  and  C_33
REMARK                            x       y       z     vdW  Elec       q    Type
REMARK                         _______ _______ _______ _____ _____    ______ ____
ROOT
ATOM      1  C   UNL     1       2.514  -4.789   0.973  0.00  0.00    +0.162 C 
ENDROOT
BRANCH   1   2
ATOM      2  C   UNL     1       3.587  -5.844   1.051  0.00  0.00    +0.234 C 
ATOM      3  O   UNL     1       3.563  -6.791   0.294  0.00  0.00    -0.274 OA
ATOM      4  N   UNL     1       4.575  -5.735   1.962  0.00  0.00    -0.300 N 
ATOM      5  C   UNL     1       4.561  -4.651   2.955  0.00  0.00    +0.109 C 
ATOM      6  C   UNL     1       5.896  -3.903   2.886  0.00  0.00    +0.041 C 
ATOM      7  C   UNL     1       7.045  -4.899   3.058  0.00  0.00    +0.079 C 
ATOM      8  C   UNL     1       7.007  -5.925   1.923  0.00  0.00    +0.041 C 
ATOM      9  C   UNL     1       5.682  -6.700   1.985  0.00  0.00    +0.109 C 
BRANCH   7  10
ATOM     10  N   UNL     1       8.322  -4.182   3.026  0.00  0.00    -0.278 N 
ATOM     11  C   UNL     1       9.404  -4.705   3.635  0.00  0.00    +0.401 C 
ATOM     12  O   UNL     1       9.321  -5.772   4.211  0.00  0.00    -0.226 OA
ATOM     13  H   UNL     1       8.388  -3.330   2.566  0.00  0.00    +0.152 HD
BRANCH  11  14
ATOM     14  O   UNL     1      10.578  -4.046   3.606  0.00  0.00    -0.445 OA
BRANCH  14  15
ATOM     15  C   UNL     1      11.683  -4.659   4.272  0.00  0.00    +0.107 C 
ATOM     16  C   UNL     1      11.963  -6.026   3.643  0.00  0.00    +0.055 C 
ATOM     17  C   UNL     1      12.920  -3.770   4.131  0.00  0.00    +0.055 C 
ATOM     18  C   UNL     1      11.350  -4.838   5.754  0.00  0.00    +0.055 C 
ENDBRANCH  14  15
ENDBRANCH  11  14
ENDBRANCH   7  10
ENDBRANCH   1   2
BRANCH   1  19
ATOM     19  N   UNL     1       1.362  -5.318   0.239  0.00  0.00    -0.178 NA
ATOM     20  H   UNL     1       1.339  -5.268  -0.729  0.00  0.00    +0.149 HD
BRANCH  19  21
ATOM     21  S   UNL     1       0.098  -6.002   1.063  0.00  0.00    +0.059 S 
ATOM     22  O   UNL     1       0.664  -6.938   1.970  0.00  0.00    -0.153 OA
ATOM     23  O   UNL     1      -0.868  -6.373   0.089  0.00  0.00    -0.153 OA
BRANCH  21  28
ATOM     24  C   UNL     1      -2.411  -1.657   4.414  0.00  0.00    +0.044 C 
ATOM     25  C   UNL     1      -1.784  -2.742   3.577  0.00  0.00    -0.050 A 
ATOM     26  C   UNL     1      -2.196  -2.933   2.271  0.00  0.00    +0.005 A 
ATOM     27  C   UNL     1      -1.621  -3.929   1.503  0.00  0.00    +0.029 A 
ATOM     28  C   UNL     1      -0.634  -4.733   2.041  0.00  0.00    +0.105 A 
ATOM     29  C   UNL     1      -0.221  -4.541   3.346  0.00  0.00    +0.029 A 
ATOM     30  C   UNL     1      -0.793  -3.543   4.113  0.00  0.00    +0.005 A 
ENDBRANCH  21  28
ENDBRANCH  19  21
ENDBRANCH   1  19
BRANCH   1  31
ATOM     31  C   UNL     1       3.060  -3.558   0.247  0.00  0.00    +0.032 C 
BRANCH  31  32
ATOM     32  C   UNL     1       2.023  -2.434   0.298  0.00  0.00    -0.015 C 
ATOM     33  C   UNL     1       2.629  -1.155  -0.284  0.00  0.00    +0.007 C 
ATOM     34  C   UNL     1       0.795  -2.836  -0.522  0.00  0.00    +0.007 C 
ENDBRANCH  31  32
ENDBRANCH   1  31
TORSDOF 9
