REMARK  Name = ZINC36146374
REMARK  14 active torsions:
REMARK  status: ('A' for Active; 'I' for Inactive)
REMARK    1  A    between atoms: C_1  and  C_2
REMARK    2  A    between atoms: C_2  and  C_3
REMARK    3  A    between atoms: C_2  and  C_4
REMARK    4  A    between atoms: C_2  and  O_5
REMARK    5  A    between atoms: O_5  and  C_6
REMARK    6  A    between atoms: C_6  and  C_7
REMARK    7  A    between atoms: C_7  and  C_9
REMARK    8  A    between atoms: C_7  and  O_34
REMARK    9  A    between atoms: C_9  and  N_10
REMARK   10  A    between atoms: N_10  and  C_11
REMARK   11  A    between atoms: N_10  and  C_19
REMARK   12  A    between atoms: C_11  and  C_12
REMARK   13  A    between atoms: C_19  and  C_20
REMARK   14  A    between atoms: C_23  and  C_26
REMARK                            x       y       z     vdW  Elec       q    Type
REMARK                         _______ _______ _______ _____ _____    ______ ____
ROOT
ATOM      1  N   UNL     1       4.389  -0.640  -3.905  0.00  0.00    +0.387 N 
ATOM      2  H   UNL     1       3.796  -0.277  -4.637  0.00  0.00    -0.081 HD
ENDROOT
BRANCH   1   3
ATOM      3  C   UNL     1       3.851  -0.245  -2.597  0.00  0.00    -0.044 C 
BRANCH   3   4
ATOM      4  C   UNL     1       2.340  -0.484  -2.574  0.00  0.00    +0.124 C 
BRANCH   4   5
ATOM      5  O   UNL     1       2.079  -1.888  -2.629  0.00  0.00    -0.391 OA
ATOM      6  H   UNL     1       2.343  -2.369  -1.832  0.00  0.00    +0.210 HD
ENDBRANCH   4   5
BRANCH   4   7
ATOM      7  C   UNL     1       1.751   0.094  -1.286  0.00  0.00    +0.189 C 
BRANCH   7   8
ATOM      8  O   UNL     1       0.328  -0.025  -1.317  0.00  0.00    -0.372 OA
BRANCH   8  10
ATOM      9  C   UNL     1       0.001   1.976  -0.002  0.00  0.00    +0.041 C 
ATOM     10  C   UNL     1      -0.324   0.488  -0.154  0.00  0.00    +0.061 C 
ATOM     11  C   UNL     1       0.165  -0.270   1.082  0.00  0.00    +0.041 C 
ATOM     12  C   UNL     1      -1.837   0.309  -0.296  0.00  0.00    +0.041 C 
ENDBRANCH   8  10
ENDBRANCH   7   8
ENDBRANCH   4   7
ENDBRANCH   3   4
ENDBRANCH   1   3
BRANCH   1  13
ATOM     13  C   UNL     1       4.434  -2.106  -3.994  0.00  0.00    -0.043 C 
BRANCH  13  14
ATOM     14  C   UNL     1       5.402  -2.641  -2.970  0.00  0.00    -0.064 A 
ATOM     15  C   UNL     1       6.731  -2.821  -3.304  0.00  0.00    +0.004 A 
ATOM     16  C   UNL     1       7.619  -3.312  -2.366  0.00  0.00    +0.038 A 
ATOM     17  C   UNL     1       7.177  -3.623  -1.091  0.00  0.00    +0.123 A 
ATOM     18  C   UNL     1       5.846  -3.443  -0.758  0.00  0.00    +0.038 A 
ATOM     19  C   UNL     1       4.960  -2.947  -1.696  0.00  0.00    +0.004 A 
ATOM     20  F   UNL     1       8.045  -4.104  -0.173  0.00  0.00    -0.205 F 
ENDBRANCH  13  14
ENDBRANCH   1  13
BRANCH   1  21
ATOM     21  C   UNL     1       5.746  -0.098  -4.061  0.00  0.00    -0.030 C 
BRANCH  21  22
ATOM     22  C   UNL     1       6.259  -0.403  -5.469  0.00  0.00    +0.194 C 
ATOM     23  C   UNL     1       7.706   0.112  -5.655  0.00  0.00    +0.104 C 
ATOM     24  C   UNL     1       7.695   0.617  -7.085  0.00  0.00    +0.091 C 
ATOM     25  N   UNL     1       6.466   0.731  -7.465  0.00  0.00    -0.089 NA
ATOM     26  O   UNL     1       5.543   0.366  -6.457  0.00  0.00    -0.392 OA
BRANCH  24  27
ATOM     27  C   UNL     1       8.885   0.926  -7.903  0.00  0.00    +0.001 A 
ATOM     28  C   UNL     1      10.165   0.754  -7.371  0.00  0.00    +0.011 A 
ATOM     29  C   UNL     1      11.273   1.044  -8.139  0.00  0.00    +0.022 A 
ATOM     30  C   UNL     1      11.119   1.506  -9.435  0.00  0.00    +0.059 A 
ATOM     31  C   UNL     1       9.852   1.679  -9.969  0.00  0.00    +0.060 A 
ATOM     32  C   UNL     1       8.735   1.387  -9.212  0.00  0.00    +0.031 A 
ATOM     33 CL   UNL     1       9.669   2.258 -11.596  0.00  0.00    -0.082 Cl
ATOM     34 CL   UNL     1      12.519   1.869 -10.396  0.00  0.00    -0.082 Cl
ENDBRANCH  24  27
ENDBRANCH  21  22
ENDBRANCH   1  21
TORSDOF 11
