REMARK  Name = ZINC20881988
REMARK  8 active torsions:
REMARK  status: ('A' for Active; 'I' for Inactive)
REMARK    1  A    between atoms: C_1  and  C_2
REMARK    2  A    between atoms: C_2  and  C_3
REMARK    3  A    between atoms: C_2  and  O_4
REMARK    4  A    between atoms: O_4  and  C_5
REMARK    5  A    between atoms: C_6  and  C_13
REMARK    6  A    between atoms: C_10  and  O_11
REMARK    7  A    between atoms: O_11  and  C_12
REMARK    8  A    between atoms: C_18  and  C_23
REMARK                            x       y       z     vdW  Elec       q    Type
REMARK                         _______ _______ _______ _____ _____    ______ ____
ROOT
ATOM      1  C   UNL     1       1.223  -2.189  -0.020  0.00  0.00    +0.140 C 
ATOM      2  C   UNL     1       1.550  -2.670   1.373  0.00  0.00    +0.037 C 
ATOM      3  C   UNL     1       0.700  -3.282   2.216  0.00  0.00    +0.017 C 
ATOM      4  C   UNL     1       1.163  -3.723   3.594  0.00  0.00    +0.059 C 
ATOM      5  C   UNL     1       2.237  -2.770   4.115  0.00  0.00    +0.032 C 
ATOM      6  C   UNL     1       3.405  -2.796   3.122  0.00  0.00    +0.088 C 
ATOM      7  C   UNL     1       2.886  -2.421   1.766  0.00  0.00    +0.163 C 
ATOM      8  O   UNL     1       3.639  -1.884   0.978  0.00  0.00    -0.292 OA
ATOM      9  N   UNL     1      -0.596  -3.570   1.932  0.00  0.00    -0.316 N 
ATOM     10  C   UNL     1      -1.499  -2.685   1.357  0.00  0.00    +0.052 A 
ATOM     11  C   UNL     1      -2.616  -2.223   2.031  0.00  0.00    +0.025 A 
ATOM     12  C   UNL     1      -3.501  -1.379   1.381  0.00  0.00    +0.002 A 
ATOM     13  C   UNL     1      -3.271  -1.004   0.070  0.00  0.00    +0.002 A 
ATOM     14  C   UNL     1      -2.145  -1.450  -0.600  0.00  0.00    +0.025 A 
ATOM     15  C   UNL     1      -1.247  -2.277   0.055  0.00  0.00    +0.049 A 
ATOM     16  N   UNL     1      -0.045  -2.659  -0.534  0.00  0.00    -0.331 N 
ATOM     17  H   UNL     1      -1.000  -4.567   2.159  0.00  0.00    +0.152 HD
ATOM     18  H   UNL     1      -0.071  -3.330  -1.405  0.00  0.00    +0.147 HD
ENDROOT
BRANCH   1  20
ATOM     19  C   UNL     1       2.171   0.025  -0.713  0.00  0.00    +0.168 A 
ATOM     20  C   UNL     1       1.207  -0.682  -0.013  0.00  0.00    +0.023 A 
ATOM     21  C   UNL     1       0.230  -0.005   0.693  0.00  0.00    +0.009 A 
ATOM     22  C   UNL     1       0.212   1.377   0.703  0.00  0.00    +0.004 A 
ATOM     23  C   UNL     1       1.171   2.089   0.006  0.00  0.00    +0.049 A 
ATOM     24  C   UNL     1       2.153   1.416  -0.704  0.00  0.00    +0.162 A 
BRANCH  24  25
ATOM     25  O   UNL     1       3.097   2.115  -1.390  0.00  0.00    -0.491 OA
ATOM     26  C   UNL     1       3.017   3.540  -1.335  0.00  0.00    +0.277 C 
ENDBRANCH  24  25
BRANCH  19  27
ATOM     27  O   UNL     1       3.132  -0.640  -1.409  0.00  0.00    -0.485 OA
BRANCH  27  29
ATOM     28  C   UNL     1       3.310   0.185  -3.673  0.00  0.00    +0.051 C 
ATOM     29  C   UNL     1       2.844  -0.959  -2.771  0.00  0.00    +0.168 C 
ATOM     30  C   UNL     1       3.576  -2.245  -3.160  0.00  0.00    +0.051 C 
ENDBRANCH  27  29
ENDBRANCH  19  27
ENDBRANCH   1  20
BRANCH   5  31
ATOM     31  C   UNL     1       2.709  -3.225   5.472  0.00  0.00    -0.044 A 
ATOM     32  C   UNL     1       3.274  -4.478   5.623  0.00  0.00    +0.004 A 
ATOM     33  C   UNL     1       3.712  -4.893   6.867  0.00  0.00    +0.000 A 
ATOM     34  C   UNL     1       3.575  -4.059   7.961  0.00  0.00    +0.000 A 
ATOM     35  C   UNL     1       3.006  -2.809   7.811  0.00  0.00    +0.000 A 
ATOM     36  C   UNL     1       2.573  -2.392   6.566  0.00  0.00    +0.004 A 
ENDBRANCH   5  31
TORSDOF 5
