REMARK  Name = ZINC56946213
REMARK  11 active torsions:
REMARK  status: ('A' for Active; 'I' for Inactive)
REMARK    1  A    between atoms: C_1  and  C_2
REMARK    2  A    between atoms: C_5  and  C_30
REMARK    3  A    between atoms: N_8  and  C_10
REMARK    4  A    between atoms: C_10  and  C_11
REMARK    5  A    between atoms: C_11  and  C_13
REMARK    6  A    between atoms: C_11  and  N_14
REMARK    7  A    between atoms: N_20  and  C_23
REMARK    8  A    between atoms: C_23  and  C_24
REMARK    9  A    between atoms: N_26  and  C_27
REMARK   10  A    between atoms: C_27  and  C_28
REMARK   11  A    between atoms: C_27  and  C_29
REMARK                            x       y       z     vdW  Elec       q    Type
REMARK                         _______ _______ _______ _____ _____    ______ ____
ROOT
ATOM      1  N   UNL     1       3.510  -2.495   0.951  0.00  0.00    -0.298 N 
ATOM      2  C   UNL     1       4.540  -1.852   0.365  0.00  0.00    +0.302 C 
ATOM      3  O   UNL     1       4.980  -0.832   0.859  0.00  0.00    -0.253 OA
ATOM      4  N   UNL     1       5.082  -2.339  -0.769  0.00  0.00    -0.283 N 
ATOM      5  C   UNL     1       6.277  -1.720  -1.362  0.00  0.00    +0.124 C 
ATOM      6  C   UNL     1       7.316  -2.817  -1.620  0.00  0.00    +0.104 C 
ATOM      7  N   UNL     1       6.706  -3.884  -2.424  0.00  0.00    -0.291 NA
ATOM      8  C   UNL     1       5.602  -4.530  -1.702  0.00  0.00    +0.104 C 
ATOM      9  C   UNL     1       4.496  -3.508  -1.443  0.00  0.00    +0.124 C 
ATOM     10  H   UNL     1       3.111  -3.266   0.518  0.00  0.00    +0.150 HD
ENDROOT
BRANCH   1  11
ATOM     11  C   UNL     1       2.994  -2.029   2.240  0.00  0.00    +0.055 C 
ATOM     12  C   UNL     1       3.826  -2.637   3.372  0.00  0.00    +0.026 C 
BRANCH  11  13
ATOM     13  C   UNL     1       1.534  -2.461   2.391  0.00  0.00    -0.057 C 
BRANCH  13  19
ATOM     14  C   UNL     1      -0.017   1.529   0.018  0.00  0.00    +0.005 C 
ATOM     15  C   UNL     1       0.003  -0.000   0.007  0.00  0.00    -0.031 C 
ATOM     16  C   UNL     1      -1.434  -0.530   0.021  0.00  0.00    +0.003 C 
ATOM     17  C   UNL     1      -1.402  -2.060   0.090  0.00  0.00    -0.031 C 
ATOM     18  C   UNL     1      -0.613  -2.494   1.327  0.00  0.00    -0.076 C 
ATOM     19  N   UNL     1       0.759  -1.978   1.241  0.00  0.00    +0.381 N 
ATOM     20  C   UNL     1       0.742  -0.510   1.247  0.00  0.00    -0.076 C 
ATOM     21  C   UNL     1      -0.729  -2.614  -1.168  0.00  0.00    +0.005 C 
ATOM     22  H   UNL     1       1.188  -2.304   0.388  0.00  0.00    -0.082 HD
ENDBRANCH  13  19
ENDBRANCH  11  13
ENDBRANCH   1  11
BRANCH   7  23
ATOM     23  C   UNL     1       7.712  -4.871  -2.839  0.00  0.00    +0.180 C 
BRANCH  23  24
ATOM     24  C   UNL     1       7.109  -5.807  -3.855  0.00  0.00    +0.227 C 
ATOM     25  O   UNL     1       5.955  -5.666  -4.199  0.00  0.00    -0.274 OA
ATOM     26  N   UNL     1       7.853  -6.800  -4.380  0.00  0.00    -0.312 N 
ATOM     27  H   UNL     1       8.776  -6.913  -4.105  0.00  0.00    +0.149 HD
BRANCH  26  28
ATOM     28  C   UNL     1       7.266  -7.710  -5.368  0.00  0.00    +0.067 C 
ATOM     29  C   UNL     1       8.376  -8.299  -6.240  0.00  0.00    +0.027 C 
ATOM     30  C   UNL     1       6.531  -8.841  -4.646  0.00  0.00    +0.027 C 
ENDBRANCH  26  28
ENDBRANCH  23  24
ENDBRANCH   7  23
TORSDOF 6
