REMARK  Name = ZINC66127504
REMARK  6 active torsions:
REMARK  status: ('A' for Active; 'I' for Inactive)
REMARK    1  A    between atoms: C_1  and  C_2
REMARK    2  A    between atoms: C_2  and  C_3
REMARK    3  A    between atoms: C_3  and  N_4
REMARK    4  A    between atoms: C_14  and  C_15
REMARK    5  A    between atoms: C_14  and  C_16
REMARK    6  A    between atoms: C_19  and  C_22
REMARK                            x       y       z     vdW  Elec       q    Type
REMARK                         _______ _______ _______ _____ _____    ______ ____
ROOT
ATOM      1  N   UNL     1      -1.413  -1.998   0.005  0.00  0.00    -0.273 N 
ATOM      2  C   UNL     1      -1.410  -2.654  -1.173  0.00  0.00    +0.250 C 
ATOM      3  O   UNL     1      -1.573  -2.047  -2.214  0.00  0.00    -0.270 OA
ATOM      4  C   UNL     1      -1.206  -4.114  -1.188  0.00  0.00    +0.058 A 
ATOM      5  C   UNL     1      -1.380  -4.863  -2.349  0.00  0.00    +0.015 A 
ATOM      6  C   UNL     1      -1.187  -6.229  -2.313  0.00  0.00    +0.001 A 
ATOM      7  C   UNL     1      -0.823  -6.857  -1.132  0.00  0.00    +0.002 A 
ATOM      8  C   UNL     1      -0.643  -6.125   0.026  0.00  0.00    +0.024 A 
ATOM      9  C   UNL     1      -0.829  -4.753   0.005  0.00  0.00    +0.041 A 
ATOM     10  N   UNL     1      -0.637  -3.972   1.139  0.00  0.00    -0.319 N 
ATOM     11  C   UNL     1      -1.391  -2.724   1.275  0.00  0.00    +0.125 C 
ATOM     12  C   UNL     1      -0.738  -1.849   2.347  0.00  0.00    +0.059 C 
ATOM     13  H   UNL     1      -0.011  -4.246   1.828  0.00  0.00    +0.148 HD
ENDROOT
BRANCH  11  14
ATOM     14  C   UNL     1      -2.804  -3.044   1.691  0.00  0.00    -0.006 A 
ATOM     15  C   UNL     1      -3.840  -2.207   1.321  0.00  0.00    +0.007 A 
ATOM     16  C   UNL     1      -5.136  -2.501   1.702  0.00  0.00    +0.004 A 
ATOM     17  C   UNL     1      -5.396  -3.631   2.454  0.00  0.00    -0.050 A 
ATOM     18  C   UNL     1      -4.360  -4.469   2.824  0.00  0.00    +0.004 A 
ATOM     19  C   UNL     1      -3.064  -4.177   2.439  0.00  0.00    +0.007 A 
ATOM     20  C   UNL     1      -6.808  -3.951   2.871  0.00  0.00    +0.044 C 
ENDBRANCH  11  14
BRANCH   1  21
ATOM     21  C   UNL     1      -1.433  -0.534   0.013  0.00  0.00    +0.110 C 
BRANCH  21  23
ATOM     22  C   UNL     1      -0.019   1.526   0.010  0.00  0.00    +0.005 C 
ATOM     23  C   UNL     1       0.002  -0.004   0.002  0.00  0.00    +0.016 C 
ENDBRANCH  21  23
ENDBRANCH   1  21
TORSDOF 3
