REMARK  Name = ZINC37072989
REMARK  5 active torsions:
REMARK  status: ('A' for Active; 'I' for Inactive)
REMARK    1  A    between atoms: C_1  and  C_2
REMARK    2  A    between atoms: C_2  and  C_4
REMARK    3  A    between atoms: C_2  and  N_12
REMARK    4  A    between atoms: N_9  and  C_11
REMARK    5  A    between atoms: N_12  and  C_13
REMARK                            x       y       z     vdW  Elec       q    Type
REMARK                         _______ _______ _______ _____ _____    ______ ____
ROOT
ATOM      1  N   UNL     1       0.711  -0.489   1.189  0.00  0.00    -0.341 N 
ATOM      2  H   UNL     1       0.213  -0.731   1.986  0.00  0.00    +0.146 HD
ENDROOT
BRANCH   1   3
ATOM      3  C   UNL     1       2.106  -0.604   1.173  0.00  0.00    +0.029 A 
ATOM      4  C   UNL     1       2.816  -0.252   0.033  0.00  0.00    +0.024 A 
ATOM      5  C   UNL     1       4.194  -0.363   0.018  0.00  0.00    +0.018 A 
ATOM      6  C   UNL     1       4.862  -0.827   1.138  0.00  0.00    +0.030 A 
ATOM      7  C   UNL     1       4.158  -1.187   2.288  0.00  0.00    +0.049 A 
ATOM      8  C   UNL     1       2.773  -1.064   2.298  0.00  0.00    +0.047 A 
ATOM      9  N   UNL     1       4.810  -1.664   3.422  0.00  0.00    -0.284 N 
ATOM     10  C   UNL     1       6.088  -1.470   3.736  0.00  0.00    +0.227 C 
ATOM     11  O   UNL     1       6.503  -1.947   4.771  0.00  0.00    -0.275 OA
ATOM     12  C   UNL     1       7.048  -0.693   2.876  0.00  0.00    +0.170 C 
ATOM     13  S   UNL     1       6.622  -0.967   1.129  0.00  0.00    -0.114 S 
ATOM     14  H   UNL     1       4.281  -2.189   4.043  0.00  0.00    +0.155 HD
ENDBRANCH   1   3
BRANCH   1  16
ATOM     15  C   UNL     1      -0.019   1.526   0.010  0.00  0.00    +0.028 C 
ATOM     16  C   UNL     1       0.002  -0.004   0.002  0.00  0.00    +0.069 C 
BRANCH  16  17
ATOM     17  C   UNL     1      -1.433  -0.534   0.013  0.00  0.00    -0.008 C 
ATOM     18  C   UNL     1      -1.413  -2.065   0.002  0.00  0.00    +0.002 C 
ATOM     19  C   UNL     1      -2.853  -2.584  -0.066  0.00  0.00    -0.018 C 
ATOM     20  C   UNL     1      -3.540  -2.004  -1.304  0.00  0.00    -0.079 C 
ATOM     21  N   UNL     1      -3.550  -0.539  -1.222  0.00  0.00    +0.378 N 
ATOM     22  C   UNL     1      -2.174  -0.029  -1.228  0.00  0.00    -0.074 C 
ATOM     23  C   UNL     1      -4.279   0.010  -2.373  0.00  0.00    -0.096 C 
ATOM     24  H   UNL     1      -4.009  -0.254  -0.369  0.00  0.00    -0.082 HD
ENDBRANCH  16  17
ENDBRANCH   1  16
TORSDOF 3
