REMARK  Name = ZINC66937439
REMARK  6 active torsions:
REMARK  status: ('A' for Active; 'I' for Inactive)
REMARK    1  A    between atoms: C_1  and  C_2
REMARK    2  A    between atoms: C_2  and  C_27
REMARK    3  A    between atoms: C_5  and  C_21
REMARK    4  A    between atoms: N_8  and  S_9
REMARK    5  A    between atoms: S_9  and  C_12
REMARK    6  A    between atoms: C_17  and  N_18
REMARK                            x       y       z     vdW  Elec       q    Type
REMARK                         _______ _______ _______ _____ _____    ______ ____
ROOT
ATOM      1  C   UNL     1      -0.344   1.622   0.332  0.00  0.00    +0.032 C 
ATOM      2  C   UNL     1      -0.223   0.113   0.114  0.00  0.00    +0.061 C 
ATOM      3  C   UNL     1      -1.580  -0.555   0.360  0.00  0.00    +0.184 C 
ATOM      4  O   UNL     1      -1.417  -1.975   0.338  0.00  0.00    -0.369 OA
ATOM      5  C   UNL     1      -0.559  -2.482   1.363  0.00  0.00    +0.164 C 
ATOM      6  C   UNL     1       0.851  -1.913   1.169  0.00  0.00    +0.146 C 
ATOM      7  N   UNL     1       0.750  -0.449   1.066  0.00  0.00    -0.166 NA
ATOM      8  C   UNL     1       0.238  -0.166  -1.318  0.00  0.00    +0.032 C 
ENDROOT
BRANCH   5   9
ATOM      9  C   UNL     1      -0.512  -3.986   1.282  0.00  0.00    -0.018 A 
ATOM     10  C   UNL     1      -0.458  -4.610   0.049  0.00  0.00    +0.006 A 
ATOM     11  C   UNL     1      -0.414  -5.990  -0.025  0.00  0.00    +0.000 A 
ATOM     12  C   UNL     1      -0.424  -6.745   1.132  0.00  0.00    +0.000 A 
ATOM     13  C   UNL     1      -0.477  -6.121   2.365  0.00  0.00    +0.000 A 
ATOM     14  C   UNL     1      -0.516  -4.742   2.439  0.00  0.00    +0.006 A 
ENDBRANCH   5   9
BRANCH   7  15
ATOM     15  S   UNL     1       1.702   0.539   1.993  0.00  0.00    +0.064 S 
ATOM     16  O   UNL     1       0.840   1.510   2.570  0.00  0.00    -0.153 OA
ATOM     17  O   UNL     1       2.525  -0.312   2.779  0.00  0.00    -0.153 OA
BRANCH  15  18
ATOM     18  C   UNL     1       2.776   1.406   0.897  0.00  0.00    +0.136 A 
ATOM     19  C   UNL     1       2.706   2.784   0.808  0.00  0.00    +0.031 A 
ATOM     20  C   UNL     1       3.548   3.465  -0.051  0.00  0.00    +0.002 A 
ATOM     21  C   UNL     1       4.460   2.767  -0.821  0.00  0.00    +0.002 A 
ATOM     22  C   UNL     1       4.530   1.390  -0.732  0.00  0.00    +0.035 A 
ATOM     23  C   UNL     1       3.691   0.710   0.131  0.00  0.00    +0.152 A 
BRANCH  23  24
ATOM     24  N   UNL     1       3.770  -0.765   0.231  0.00  0.00    +0.058 N 
ATOM     25  O   UNL     1       4.492  -1.384  -0.515  0.00  0.00    -0.126 OA
ATOM     26  O   UNL     1       3.112  -1.351   1.060  0.00  0.00    -0.126 OA
ENDBRANCH  23  24
ENDBRANCH  15  18
ENDBRANCH   7  15
TORSDOF 4
