REMARK  Name = ZINC40045491
REMARK  7 active torsions:
REMARK  status: ('A' for Active; 'I' for Inactive)
REMARK    1  A    between atoms: C_1  and  C_2
REMARK    2  A    between atoms: C_2  and  O_3
REMARK    3  A    between atoms: O_3  and  C_4
REMARK    4  A    between atoms: C_14  and  C_31
REMARK    5  A    between atoms: C_21  and  C_30
REMARK    6  A    between atoms: C_23  and  C_29
REMARK    7  A    between atoms: C_34  and  O_37
REMARK                            x       y       z     vdW  Elec       q    Type
REMARK                         _______ _______ _______ _____ _____    ______ ____
ROOT
ATOM      1  C   UNL     1       0.777  -1.811  -1.336  0.00  0.00    +0.122 A 
ATOM      2  C   UNL     1       0.244  -2.679  -0.388  0.00  0.00    +0.048 A 
ATOM      3  C   UNL     1       0.336  -4.029  -0.526  0.00  0.00    +0.032 A 
ATOM      4  C   UNL     1       0.980  -4.602  -1.646  0.00  0.00    +0.081 A 
ATOM      5  C   UNL     1       1.512  -3.697  -2.593  0.00  0.00    +0.044 A 
ATOM      6  C   UNL     1       1.413  -2.335  -2.452  0.00  0.00    +0.063 A 
ATOM      7  S   UNL     1       2.214  -4.788  -3.807  0.00  0.00    -0.052 S 
ATOM      8  C   UNL     1       1.774  -6.325  -3.009  0.00  0.00    +0.169 A 
ATOM      9  N   UNL     1       1.154  -5.912  -1.929  0.00  0.00    -0.224 NA
ATOM     10  N   UNL     1       2.023  -7.622  -3.425  0.00  0.00    -0.232 N 
ATOM     11  C   UNL     1       1.624  -8.849  -2.717  0.00  0.00    +0.151 C 
ATOM     12  C   UNL     1       2.119  -9.982  -3.555  0.00  0.00    +0.072 A 
ATOM     13  C   UNL     1       2.033 -11.434  -3.366  0.00  0.00    +0.199 A 
ATOM     14  O   UNL     1       1.347 -11.955  -2.504  0.00  0.00    -0.287 OA
ATOM     15  C   UNL     1       2.862 -12.208  -4.324  0.00  0.00    +0.065 A 
ATOM     16  C   UNL     1       3.045 -13.580  -4.152  0.00  0.00    +0.018 A 
ATOM     17  C   UNL     1       3.815 -14.278  -5.040  0.00  0.00    -0.049 A 
ATOM     18  C   UNL     1       4.414 -13.625  -6.109  0.00  0.00    +0.010 A 
ATOM     19  C   UNL     1       4.242 -12.272  -6.295  0.00  0.00    -0.007 A 
ATOM     20  C   UNL     1       3.459 -11.538  -5.405  0.00  0.00    +0.142 A 
ATOM     21  O   UNL     1       3.296 -10.211  -5.612  0.00  0.00    -0.449 OA
ATOM     22  C   UNL     1       2.741  -9.449  -4.649  0.00  0.00    +0.199 A 
ATOM     23  C   UNL     1       2.669  -7.982  -4.553  0.00  0.00    +0.289 C 
ATOM     24  O   UNL     1       3.128  -7.208  -5.369  0.00  0.00    -0.266 OA
ATOM     25  C   UNL     1       4.902 -11.583  -7.462  0.00  0.00    +0.047 C 
ATOM     26  C   UNL     1       4.014 -15.760  -4.858  0.00  0.00    +0.044 C 
ENDROOT
BRANCH  11  27
ATOM     27  C   UNL     1       2.262  -8.893  -1.352  0.00  0.00    -0.022 A 
ATOM     28  C   UNL     1       3.558  -8.443  -1.181  0.00  0.00    +0.009 A 
ATOM     29  C   UNL     1       4.145  -8.482   0.069  0.00  0.00    +0.046 A 
ATOM     30  C   UNL     1       3.433  -8.973   1.153  0.00  0.00    +0.117 A 
ATOM     31  C   UNL     1       2.132  -9.424   0.979  0.00  0.00    +0.046 A 
ATOM     32  C   UNL     1       1.548  -9.378  -0.272  0.00  0.00    +0.009 A 
BRANCH  30  33
ATOM     33  O   UNL     1       4.008  -9.014   2.384  0.00  0.00    -0.507 OA
ATOM     34  H   UNL     1       3.871  -8.213   2.908  0.00  0.00    +0.292 HD
ENDBRANCH  30  33
ENDBRANCH  11  27
BRANCH   1  35
ATOM     35  O   UNL     1       0.671  -0.465  -1.174  0.00  0.00    -0.492 OA
BRANCH  35  37
ATOM     36  C   UNL     1      -0.019   1.526   0.010  0.00  0.00    +0.048 C 
ATOM     37  C   UNL     1       0.002  -0.004   0.002  0.00  0.00    +0.225 C 
ENDBRANCH  35  37
ENDBRANCH   1  35
TORSDOF 4
