REMARK  Name = ZINC11947921
REMARK  10 active torsions:
REMARK  status: ('A' for Active; 'I' for Inactive)
REMARK    1  A    between atoms: C_1  and  O_2
REMARK    2  A    between atoms: O_2  and  C_3
REMARK    3  A    between atoms: C_8  and  C_9
REMARK    4  A    between atoms: C_9  and  N_66
REMARK    5  A    between atoms: C_15  and  C_17
REMARK    6  A    between atoms: C_17  and  C_18
REMARK    7  A    between atoms: C_25  and  C_26
REMARK    8  A    between atoms: C_25  and  C_29
REMARK    9  A    between atoms: C_26  and  C_27
REMARK   10  A    between atoms: C_29  and  C_30
REMARK                            x       y       z     vdW  Elec       q    Type
REMARK                         _______ _______ _______ _____ _____    ______ ____
ROOT
ATOM      1  C   UNL     1       3.441   4.300   2.347  0.00  0.00    -0.058 C 
ATOM      2  C   UNL     1       2.207   3.642   1.726  0.00  0.00    +0.085 C 
ATOM      3  N   UNL     1       1.206   4.655   1.409  0.00  0.00    -0.318 N 
ATOM      4  C   UNL     1       1.495   5.957   1.308  0.00  0.00    +0.200 C 
ATOM      5  O   UNL     1       0.608   6.728   1.010  0.00  0.00    -0.278 OA
ATOM      6  C   UNL     1       2.874   6.504   1.549  0.00  0.00    +0.028 C 
ATOM      7  H   UNL     1       0.289   4.372   1.265  0.00  0.00    +0.149 HD
ATOM      8  N   UNL     1       3.859   5.409   1.466  0.00  0.00    +0.391 N 
ATOM      9  H   UNL     1       3.904   5.070   0.498  0.00  0.00    -0.080 HD
ENDROOT
BRANCH   8  10
ATOM     10  C   UNL     1       5.197   5.900   1.867  0.00  0.00    -0.038 C 
BRANCH  10  16
ATOM     11  C   UNL     1       6.637   4.546   0.325  0.00  0.00    +0.121 A 
ATOM     12  C   UNL     1       7.572   3.546   0.098  0.00  0.00    +0.046 A 
ATOM     13  C   UNL     1       8.082   2.826   1.160  0.00  0.00    +0.004 A 
ATOM     14  C   UNL     1       7.653   3.092   2.447  0.00  0.00    +0.000 A 
ATOM     15  C   UNL     1       6.721   4.087   2.676  0.00  0.00    +0.005 A 
ATOM     16  C   UNL     1       6.212   4.815   1.617  0.00  0.00    -0.022 A 
BRANCH  11  18
ATOM     17  C   UNL     1       6.544   4.864  -2.030  0.00  0.00    +0.277 C 
ATOM     18  O   UNL     1       6.137   5.260  -0.718  0.00  0.00    -0.495 OA
ENDBRANCH  11  18
ENDBRANCH  10  16
ENDBRANCH   8  10
BRANCH   6  19
ATOM     19  C   UNL     1       3.200   7.548   0.479  0.00  0.00    +0.090 C 
BRANCH  19  20
ATOM     20  C   UNL     1       3.109   6.915  -0.885  0.00  0.00    +0.215 C 
ATOM     21  O   UNL     1       2.930   5.720  -0.989  0.00  0.00    -0.276 OA
ATOM     22  N   UNL     1       3.227   7.677  -1.991  0.00  0.00    -0.295 N 
ATOM     23  C   UNL     1       3.553   9.105  -1.884  0.00  0.00    +0.108 C 
ATOM     24  C   UNL     1       4.775   9.399  -2.760  0.00  0.00    +0.019 C 
ATOM     25  C   UNL     1       4.500   8.922  -4.188  0.00  0.00    +0.004 C 
ATOM     26  C   UNL     1       4.260   7.410  -4.185  0.00  0.00    +0.026 C 
ATOM     27  C   UNL     1       3.038   7.093  -3.326  0.00  0.00    +0.044 C 
BRANCH  27  28
ATOM     28  C   UNL     1       2.878   5.576  -3.204  0.00  0.00    +0.052 C 
BRANCH  28  29
ATOM     29  C   UNL     1       2.790   4.968  -4.581  0.00  0.00    -0.032 C 
ATOM     30  C   UNL     1       3.714   4.136  -4.990  0.00  0.00    +0.004 C 
ENDBRANCH  28  29
ENDBRANCH  27  28
BRANCH  27  31
ATOM     31  C   UNL     1       1.789   7.692  -3.976  0.00  0.00    +0.052 C 
BRANCH  31  32
ATOM     32  C   UNL     1       1.682   7.208  -5.399  0.00  0.00    -0.032 C 
ATOM     33  C   UNL     1       0.573   6.651  -5.819  0.00  0.00    +0.004 C 
ENDBRANCH  31  32
ENDBRANCH  27  31
ENDBRANCH  19  20
ENDBRANCH   6  19
TORSDOF 9
