REMARK  Name = ZINC39195995
REMARK  7 active torsions:
REMARK  status: ('A' for Active; 'I' for Inactive)
REMARK    1  A    between atoms: C_1  and  C_2
REMARK    2  A    between atoms: C_2  and  C_3
REMARK    3  A    between atoms: C_2  and  C_4
REMARK    4  A    between atoms: C_2  and  O_18
REMARK    5  A    between atoms: C_9  and  C_12
REMARK    6  A    between atoms: O_18  and  C_19
REMARK    7  A    between atoms: C_22  and  C_25
REMARK                            x       y       z     vdW  Elec       q    Type
REMARK                         _______ _______ _______ _____ _____    ______ ____
ROOT
ATOM      1  C   UNL     1       0.796  -1.306  -0.707  0.00  0.00    +0.065 C 
ATOM      2  C   UNL     1      -0.048  -0.182  -0.102  0.00  0.00    +0.180 C 
ATOM      3  C   UNL     1       0.354   1.153  -0.732  0.00  0.00    +0.065 C 
ENDROOT
BRANCH   2   4
ATOM      4  C   UNL     1      -1.506  -0.447  -0.375  0.00  0.00    +0.259 C 
ATOM      5  O   UNL     1      -1.829  -1.209  -1.262  0.00  0.00    -0.271 OA
ATOM      6  N   UNL     1      -2.452   0.162   0.367  0.00  0.00    -0.298 N 
ATOM      7  C   UNL     1      -2.085   1.192   1.348  0.00  0.00    +0.108 C 
ATOM      8  C   UNL     1      -2.905   2.456   1.067  0.00  0.00    +0.027 C 
ATOM      9  C   UNL     1      -4.394   2.101   1.055  0.00  0.00    +0.022 C 
ATOM     10  C   UNL     1      -4.669   1.088  -0.059  0.00  0.00    +0.027 C 
ATOM     11  C   UNL     1      -3.870  -0.186   0.205  0.00  0.00    +0.108 C 
BRANCH   9  12
ATOM     12  C   UNL     1      -5.205   3.347   0.812  0.00  0.00    -0.044 A 
ATOM     13  C   UNL     1      -5.029   4.071  -0.352  0.00  0.00    +0.004 A 
ATOM     14  C   UNL     1      -5.773   5.214  -0.575  0.00  0.00    +0.000 A 
ATOM     15  C   UNL     1      -6.694   5.634   0.367  0.00  0.00    +0.000 A 
ATOM     16  C   UNL     1      -6.870   4.910   1.531  0.00  0.00    +0.000 A 
ATOM     17  C   UNL     1      -6.129   3.764   1.752  0.00  0.00    +0.004 A 
ENDBRANCH   9  12
ENDBRANCH   2   4
BRANCH   2  18
ATOM     18  O   UNL     1       0.171  -0.128   1.309  0.00  0.00    -0.477 OA
BRANCH  18  19
ATOM     19  C   UNL     1      -0.255  -1.190   2.039  0.00  0.00    +0.122 A 
ATOM     20  C   UNL     1      -0.815  -2.291   1.401  0.00  0.00    +0.046 A 
ATOM     21  C   UNL     1      -1.248  -3.370   2.138  0.00  0.00    +0.016 A 
ATOM     22  C   UNL     1      -1.122  -3.358   3.530  0.00  0.00    +0.037 A 
ATOM     23  C   UNL     1      -0.558  -2.251   4.168  0.00  0.00    +0.016 A 
ATOM     24  C   UNL     1      -0.123  -1.177   3.423  0.00  0.00    +0.046 A 
BRANCH  22  25
ATOM     25  C   UNL     1      -1.585  -4.513   4.324  0.00  0.00    +0.242 C 
ATOM     26  O   UNL     1      -2.076  -5.476   3.767  0.00  0.00    -0.270 OA
ATOM     27  N   UNL     1      -1.464  -4.500   5.666  0.00  0.00    -0.325 N 
ATOM     28  H   UNL     1      -1.072  -3.732   6.110  0.00  0.00    +0.145 HD
ATOM     29  H   UNL     1      -1.768  -5.259   6.188  0.00  0.00    +0.145 HD
ENDBRANCH  22  25
ENDBRANCH  18  19
ENDBRANCH   2  18
TORSDOF 5
