REMARK  Name = ZINC10342332
REMARK  8 active torsions:
REMARK  status: ('A' for Active; 'I' for Inactive)
REMARK    1  A    between atoms: C_1  and  C_2
REMARK    2  A    between atoms: N_8  and  S_9
REMARK    3  A    between atoms: S_9  and  C_12
REMARK    4  A    between atoms: C_15  and  N_18
REMARK    5  A    between atoms: N_18  and  S_19
REMARK    6  A    between atoms: S_19  and  C_22
REMARK    7  A    between atoms: C_25  and  O_28
REMARK    8  A    between atoms: O_28  and  C_29
REMARK                            x       y       z     vdW  Elec       q    Type
REMARK                         _______ _______ _______ _____ _____    ______ ____
ROOT
ATOM      1  C   UNL     1      -1.949   2.372   6.390  0.00  0.00    +0.109 A 
ATOM      2  C   UNL     1      -3.236   2.600   5.939  0.00  0.00    +0.030 A 
ATOM      3  C   UNL     1      -4.290   1.876   6.460  0.00  0.00    +0.026 A 
ATOM      4  C   UNL     1      -4.058   0.927   7.447  0.00  0.00    +0.048 A 
ATOM      5  C   UNL     1      -2.765   0.704   7.902  0.00  0.00    +0.026 A 
ATOM      6  C   UNL     1      -1.714   1.428   7.373  0.00  0.00    +0.030 A 
ENDROOT
BRANCH   1   7
ATOM      7  S   UNL     1      -0.606   3.293   5.718  0.00  0.00    +0.075 S 
ATOM      8  O   UNL     1       0.424   3.283   6.697  0.00  0.00    -0.150 OA
ATOM      9  O   UNL     1      -1.156   4.498   5.203  0.00  0.00    -0.150 OA
BRANCH   7  17
ATOM     10  C   UNL     1      -0.374   1.197  -0.196  0.00  0.00    +0.066 C 
ATOM     11  C   UNL     1      -1.012   1.663   1.087  0.00  0.00    +0.043 A 
ATOM     12  C   UNL     1      -2.375   1.909   1.145  0.00  0.00    +0.043 A 
ATOM     13  C   UNL     1      -2.922   2.331   2.346  0.00  0.00    +0.116 A 
ATOM     14  N   UNL     1      -2.130   2.496   3.393  0.00  0.00    -0.222 NA
ATOM     15  C   UNL     1      -0.830   2.259   3.303  0.00  0.00    +0.235 A 
ATOM     16  N   UNL     1      -0.277   1.849   2.171  0.00  0.00    -0.219 NA
ATOM     17  N   UNL     1      -0.031   2.442   4.418  0.00  0.00    -0.184 N 
ATOM     18  H   UNL     1       0.866   2.072   4.438  0.00  0.00    +0.177 HD
ENDBRANCH   7  17
ENDBRANCH   1   7
BRANCH   4  19
ATOM     19  N   UNL     1      -5.123   0.197   7.981  0.00  0.00    -0.216 N 
ATOM     20  H   UNL     1      -5.047  -0.764   8.089  0.00  0.00    +0.174 HD
BRANCH  19  21
ATOM     21  S   UNL     1      -6.516   0.973   8.429  0.00  0.00    +0.072 S 
ATOM     22  O   UNL     1      -6.926   1.750   7.312  0.00  0.00    -0.150 OA
ATOM     23  O   UNL     1      -7.354  -0.009   9.023  0.00  0.00    -0.150 OA
BRANCH  21  24
ATOM     24  C   UNL     1      -6.090   2.111   9.706  0.00  0.00    +0.109 A 
ATOM     25  C   UNL     1      -6.032   1.684  11.019  0.00  0.00    +0.032 A 
ATOM     26  C   UNL     1      -5.693   2.573  12.021  0.00  0.00    +0.048 A 
ATOM     27  C   UNL     1      -5.422   3.897  11.709  0.00  0.00    +0.130 A 
ATOM     28  C   UNL     1      -5.487   4.324  10.391  0.00  0.00    +0.048 A 
ATOM     29  C   UNL     1      -5.821   3.430   9.392  0.00  0.00    +0.032 A 
BRANCH  27  30
ATOM     30  O   UNL     1      -5.094   4.775  12.694  0.00  0.00    -0.406 OA
BRANCH  30  31
ATOM     31  C   UNL     1      -5.046   4.265  14.028  0.00  0.00    +0.575 C 
ATOM     32  F   UNL     1      -4.095   3.243  14.103  0.00  0.00    -0.133 F 
ATOM     33  F   UNL     1      -4.695   5.295  14.908  0.00  0.00    -0.133 F 
ATOM     34  F   UNL     1      -6.303   3.760  14.379  0.00  0.00    -0.133 F 
ENDBRANCH  30  31
ENDBRANCH  27  30
ENDBRANCH  21  24
ENDBRANCH  19  21
ENDBRANCH   4  19
TORSDOF 7
