REMARK  Name = ZINC06370008
REMARK  9 active torsions:
REMARK  status: ('A' for Active; 'I' for Inactive)
REMARK    1  A    between atoms: C_1  and  C_2
REMARK    2  A    between atoms: N_11  and  C_15
REMARK    3  A    between atoms: C_15  and  C_16
REMARK    4  A    between atoms: C_16  and  O_18
REMARK    5  A    between atoms: O_18  and  C_19
REMARK    6  A    between atoms: C_19  and  C_20
REMARK    7  A    between atoms: C_23  and  C_26
REMARK    8  A    between atoms: C_26  and  C_27
REMARK    9  A    between atoms: C_26  and  C_28
REMARK                            x       y       z     vdW  Elec       q    Type
REMARK                         _______ _______ _______ _____ _____    ______ ____
ROOT
ATOM      1  C   UNL     1      -0.019   1.526   0.010  0.00  0.00    +0.010 C 
ATOM      2  C   UNL     1       0.002  -0.004   0.002  0.00  0.00    +0.018 C 
ATOM      3  C   UNL     1      -1.434  -0.533   0.012  0.00  0.00    +0.006 C 
ATOM      4  C   UNL     1      -1.413  -2.063   0.024  0.00  0.00    +0.000 C 
ATOM      5  C   UNL     1      -0.690  -2.554   1.280  0.00  0.00    +0.003 C 
ATOM      6  C   UNL     1       0.749  -2.033   1.276  0.00  0.00    +0.035 C 
ATOM      7  C   UNL     1       0.741  -0.509   1.237  0.00  0.00    +0.115 C 
ATOM      8  C   UNL     1       0.111   0.049   2.493  0.00  0.00    +0.247 C 
ATOM      9  O   UNL     1      -1.023  -0.123   2.884  0.00  0.00    -0.273 OA
ATOM     10  N   UNL     1       1.078   0.778   3.087  0.00  0.00    -0.213 N 
ATOM     11  C   UNL     1       2.217   0.755   2.383  0.00  0.00    +0.310 C 
ATOM     12  O   UNL     1       3.230   1.337   2.717  0.00  0.00    -0.252 OA
ATOM     13  N   UNL     1       2.113   0.013   1.264  0.00  0.00    -0.285 N 
ATOM     14  H   UNL     1       2.808  -0.145   0.606  0.00  0.00    +0.151 HD
ENDROOT
BRANCH  10  15
ATOM     15  C   UNL     1       0.904   1.505   4.347  0.00  0.00    +0.238 C 
BRANCH  15  16
ATOM     16  C   UNL     1       1.267   0.606   5.501  0.00  0.00    +0.326 C 
ATOM     17  O   UNL     1       1.633  -0.526   5.292  0.00  0.00    -0.249 OA
BRANCH  16  18
ATOM     18  O   UNL     1       1.182   1.063   6.760  0.00  0.00    -0.459 OA
BRANCH  18  19
ATOM     19  C   UNL     1       1.542   0.157   7.804  0.00  0.00    +0.267 C 
BRANCH  19  20
ATOM     20  C   UNL     1       1.386   0.840   9.139  0.00  0.00    -0.010 A 
ATOM     21  C   UNL     1       2.447   1.537   9.686  0.00  0.00    +0.007 A 
ATOM     22  C   UNL     1       2.304   2.164  10.910  0.00  0.00    +0.004 A 
ATOM     23  C   UNL     1       1.100   2.095  11.586  0.00  0.00    -0.045 A 
ATOM     24  C   UNL     1       0.039   1.399  11.038  0.00  0.00    +0.004 A 
ATOM     25  C   UNL     1       0.180   0.775   9.812  0.00  0.00    +0.007 A 
BRANCH  23  26
ATOM     26  C   UNL     1       0.945   2.777  12.920  0.00  0.00    +0.013 C 
ATOM     27  C   UNL     1      -0.174   3.818  12.834  0.00  0.00    +0.012 C 
ATOM     28  C   UNL     1       0.594   1.738  13.987  0.00  0.00    +0.012 C 
ENDBRANCH  23  26
ENDBRANCH  19  20
ENDBRANCH  18  19
ENDBRANCH  16  18
ENDBRANCH  15  16
ENDBRANCH  10  15
TORSDOF 6
