REMARK  Name = ZINC20058006
REMARK  12 active torsions:
REMARK  status: ('A' for Active; 'I' for Inactive)
REMARK    1  A    between atoms: C_1  and  C_2
REMARK    2  A    between atoms: C_3  and  C_26
REMARK    3  A    between atoms: C_4  and  C_16
REMARK    4  A    between atoms: C_10  and  C_14
REMARK    5  A    between atoms: C_10  and  C_15
REMARK    6  A    between atoms: C_19  and  O_24
REMARK    7  A    between atoms: C_21  and  O_22
REMARK    8  A    between atoms: O_22  and  C_23
REMARK    9  A    between atoms: O_24  and  C_25
REMARK   10  A    between atoms: C_26  and  O_28
REMARK   11  A    between atoms: O_28  and  C_29
REMARK   12  A    between atoms: C_29  and  C_30
REMARK                            x       y       z     vdW  Elec       q    Type
REMARK                         _______ _______ _______ _____ _____    ______ ____
ROOT
ATOM      1  C   UNL     1       0.483   7.776   2.405  0.00  0.00    +0.061 C 
ATOM      2  C   UNL     1      -0.197   7.657   1.065  0.00  0.00    +0.016 C 
ATOM      3  C   UNL     1       0.021   6.574   0.300  0.00  0.00    +0.065 C 
ATOM      4  C   UNL     1      -0.637   6.423  -1.040  0.00  0.00    +0.096 C 
ATOM      5  C   UNL     1      -1.812   7.358  -1.175  0.00  0.00    +0.024 C 
ATOM      6  C   UNL     1      -1.951   8.415  -0.346  0.00  0.00    +0.016 C 
ATOM      7  N   UNL     1      -1.026   8.655   0.634  0.00  0.00    -0.321 N 
ATOM      8  C   UNL     1      -3.125   9.354  -0.473  0.00  0.00    +0.058 C 
ATOM      9  C   UNL     1      -3.575   9.419  -1.934  0.00  0.00    -0.023 C 
ATOM     10  C   UNL     1      -3.940   8.003  -2.394  0.00  0.00    +0.086 C 
ATOM     11  C   UNL     1      -2.754   7.101  -2.187  0.00  0.00    +0.162 C 
ATOM     12  O   UNL     1      -2.608   6.133  -2.906  0.00  0.00    -0.292 OA
ATOM     13  C   UNL     1      -2.437   9.963  -2.799  0.00  0.00    +0.011 C 
ATOM     14  C   UNL     1      -4.799  10.330  -2.055  0.00  0.00    +0.011 C 
ATOM     15  H   UNL     1      -0.953   9.660   1.075  0.00  0.00    +0.152 HD
ENDROOT
BRANCH   4  16
ATOM     16  C   UNL     1       0.367   6.730  -2.121  0.00  0.00    +0.007 A 
ATOM     17  C   UNL     1       0.960   7.977  -2.179  0.00  0.00    +0.012 A 
ATOM     18  C   UNL     1       1.885   8.259  -3.166  0.00  0.00    +0.046 A 
ATOM     19  C   UNL     1       2.212   7.295  -4.108  0.00  0.00    +0.124 A 
ATOM     20  C   UNL     1       1.614   6.045  -4.056  0.00  0.00    +0.091 A 
ATOM     21  C   UNL     1       0.691   5.762  -3.062  0.00  0.00    +0.128 A 
BRANCH  21  22
ATOM     22  O   UNL     1       0.103   4.538  -3.008  0.00  0.00    -0.495 OA
ATOM     23  C   UNL     1       0.484   3.591  -4.008  0.00  0.00    +0.277 C 
ENDBRANCH  21  22
BRANCH  19  24
ATOM     24  O   UNL     1       3.117   7.576  -5.082  0.00  0.00    -0.495 OA
ATOM     25  C   UNL     1       3.693   8.883  -5.075  0.00  0.00    +0.277 C 
ENDBRANCH  19  24
ENDBRANCH   4  16
BRANCH   3  26
ATOM     26  C   UNL     1       0.881   5.554   0.769  0.00  0.00    +0.338 C 
ATOM     27  O   UNL     1       0.417   4.501   1.167  0.00  0.00    -0.245 OA
BRANCH  26  28
ATOM     28  O   UNL     1       2.216   5.748   0.776  0.00  0.00    -0.459 OA
BRANCH  28  29
ATOM     29  C   UNL     1       3.025   4.675   1.264  0.00  0.00    +0.264 C 
BRANCH  29  30
ATOM     30  C   UNL     1       4.500   5.077   1.196  0.00  0.00    +0.156 C 
ATOM     31  C   UNL     1       5.392   3.947   1.771  0.00  0.00    +0.037 C 
ATOM     32  C   UNL     1       6.735   4.234   1.045  0.00  0.00    +0.031 C 
ATOM     33  C   UNL     1       6.260   4.758  -0.328  0.00  0.00    +0.160 C 
ATOM     34  O   UNL     1       4.914   5.222  -0.172  0.00  0.00    -0.373 OA
ENDBRANCH  29  30
ENDBRANCH  28  29
ENDBRANCH  26  28
ENDBRANCH   3  26
TORSDOF 7
