REMARK  Name = ZINC64046559
REMARK  9 active torsions:
REMARK  status: ('A' for Active; 'I' for Inactive)
REMARK    1  A    between atoms: C_1  and  C_2
REMARK    2  A    between atoms: C_4  and  C_9
REMARK    3  A    between atoms: C_5  and  C_8
REMARK    4  A    between atoms: C_9  and  C_10
REMARK    5  A    between atoms: N_12  and  C_13
REMARK    6  A    between atoms: C_13  and  C_14
REMARK    7  A    between atoms: C_14  and  C_16
REMARK    8  A    between atoms: C_14  and  C_22
REMARK    9  A    between atoms: C_30  and  C_32
REMARK                            x       y       z     vdW  Elec       q    Type
REMARK                         _______ _______ _______ _____ _____    ______ ____
ROOT
ATOM      1  C   UNL     1      -2.545  -2.013  -6.211  0.00  0.00    +0.065 C 
ENDROOT
BRANCH   1   2
ATOM      2  C   UNL     1      -3.564  -3.038  -6.639  0.00  0.00    -0.025 C 
ATOM      3  C   UNL     1      -4.008  -4.093  -5.920  0.00  0.00    +0.000 A 
ATOM      4  C   UNL     1      -3.688  -4.584  -4.574  0.00  0.00    +0.010 A 
ATOM      5  C   UNL     1      -4.311  -5.694  -4.116  0.00  0.00    +0.001 A 
ATOM      6  C   UNL     1      -5.251  -6.386  -4.892  0.00  0.00    +0.002 A 
ATOM      7  C   UNL     1      -5.597  -5.995  -6.137  0.00  0.00    +0.026 A 
ATOM      8  C   UNL     1      -5.005  -4.841  -6.719  0.00  0.00    +0.043 A 
ATOM      9  N   UNL     1      -5.170  -4.270  -7.887  0.00  0.00    -0.374 N 
ATOM     10  C   UNL     1      -4.300  -3.091  -7.959  0.00  0.00    +0.137 C 
ATOM     11  H   UNL     1      -5.770  -4.574  -8.586  0.00  0.00    +0.161 HD
BRANCH  10  12
ATOM     12  C   UNL     1      -3.321  -3.240  -9.095  0.00  0.00    -0.021 A 
ATOM     13  C   UNL     1      -2.794  -4.482  -9.395  0.00  0.00    +0.006 A 
ATOM     14  C   UNL     1      -1.895  -4.619 -10.437  0.00  0.00    +0.000 A 
ATOM     15  C   UNL     1      -1.525  -3.513 -11.179  0.00  0.00    +0.000 A 
ATOM     16  C   UNL     1      -2.053  -2.271 -10.880  0.00  0.00    +0.000 A 
ATOM     17  C   UNL     1      -2.954  -2.135  -9.841  0.00  0.00    +0.006 A 
ENDBRANCH  10  12
ENDBRANCH   1   2
BRANCH   1  18
ATOM     18  C   UNL     1      -1.251  -2.253  -6.944  0.00  0.00    -0.039 A 
ATOM     19  C   UNL     1      -0.594  -3.462  -6.808  0.00  0.00    +0.004 A 
ATOM     20  C   UNL     1       0.594  -3.682  -7.481  0.00  0.00    +0.000 A 
ATOM     21  C   UNL     1       1.123  -2.695  -8.290  0.00  0.00    +0.000 A 
ATOM     22  C   UNL     1       0.465  -1.487  -8.427  0.00  0.00    +0.000 A 
ATOM     23  C   UNL     1      -0.724  -1.268  -7.758  0.00  0.00    +0.004 A 
ENDBRANCH   1  18
BRANCH   1  24
ATOM     24  C   UNL     1      -2.307  -2.130  -4.704  0.00  0.00    +0.116 C 
BRANCH  24  27
ATOM     25  C   UNL     1      -1.093  -0.936  -2.962  0.00  0.00    +0.217 C 
ATOM     26  O   UNL     1      -1.498  -1.752  -2.161  0.00  0.00    -0.275 OA
ATOM     27  N   UNL     1      -1.440  -1.036  -4.260  0.00  0.00    -0.314 N 
ATOM     28  H   UNL     1      -1.116  -0.383  -4.900  0.00  0.00    +0.149 HD
BRANCH  25  29
ATOM     29  C   UNL     1      -0.201   0.190  -2.505  0.00  0.00    +0.131 C 
BRANCH  29  32
ATOM     30  C   UNL     1      -0.991   2.130  -0.044  0.00  0.00    +0.045 C 
ATOM     31  C   UNL     1      -0.867   0.610   0.068  0.00  0.00    +0.174 C 
ATOM     32  C   UNL     1       0.034   0.075  -1.021  0.00  0.00    -0.010 C 
ATOM     33  C   UNL     1       1.060  -0.511  -0.440  0.00  0.00    +0.038 C 
ATOM     34  N   UNL     1       0.963  -0.437   0.937  0.00  0.00    -0.270 N 
ATOM     35  O   UNL     1      -0.223   0.252   1.300  0.00  0.00    -0.267 OA
ATOM     36  C   UNL     1       2.192  -1.176  -1.180  0.00  0.00    +0.065 C 
ATOM     37  H   UNL     1       1.609  -0.802   1.562  0.00  0.00    +0.194 HD
ENDBRANCH  29  32
ENDBRANCH  25  29
ENDBRANCH  24  27
ENDBRANCH   1  24
TORSDOF 7
