REMARK  Name = ZINC12846686
REMARK  9 active torsions:
REMARK  status: ('A' for Active; 'I' for Inactive)
REMARK    1  A    between atoms: C_1  and  C_2
REMARK    2  A    between atoms: C_2  and  C_4
REMARK    3  A    between atoms: C_2  and  S_18
REMARK    4  A    between atoms: N_6  and  C_7
REMARK    5  A    between atoms: C_8  and  C_15
REMARK    6  A    between atoms: S_18  and  C_19
REMARK    7  A    between atoms: C_22  and  C_30
REMARK    8  A    between atoms: N_23  and  C_24
REMARK    9  A    between atoms: C_24  and  C_25
REMARK                            x       y       z     vdW  Elec       q    Type
REMARK                         _______ _______ _______ _____ _____    ______ ____
ROOT
ATOM      1  C   UNL     1       0.443   8.277   1.043  0.00  0.00    +0.029 C 
ATOM      2  C   UNL     1       1.621   8.334   0.068  0.00  0.00    +0.137 C 
ENDROOT
BRANCH   2   3
ATOM      3  C   UNL     1       2.263   9.695   0.136  0.00  0.00    +0.231 C 
ATOM      4  O   UNL     1       3.277   9.856   0.782  0.00  0.00    -0.274 OA
ATOM      5  N   UNL     1       1.712  10.735  -0.522  0.00  0.00    -0.278 N 
ATOM      6  H   UNL     1       0.901  10.606  -1.039  0.00  0.00    +0.155 HD
BRANCH   5   7
ATOM      7  C   UNL     1       2.303  11.987  -0.459  0.00  0.00    +0.084 A 
ATOM      8  C   UNL     1       1.893  13.163  -1.064  0.00  0.00    +0.068 A 
ATOM      9  C   UNL     1       2.701  14.361  -0.832  0.00  0.00    -0.023 A 
ATOM     10  C   UNL     1       3.779  14.180  -0.049  0.00  0.00    -0.004 A 
ATOM     11  S   UNL     1       3.736  12.459   0.389  0.00  0.00    -0.077 S 
ATOM     12  C   UNL     1       4.559  15.453   0.141  0.00  0.00    +0.043 C 
ATOM     13  C   UNL     1       3.583  16.573  -0.284  0.00  0.00    +0.010 C 
ATOM     14  C   UNL     1       2.655  15.827  -1.263  0.00  0.00    +0.037 C 
BRANCH   8  15
ATOM     15  C   UNL     1       0.692  13.207  -1.903  0.00  0.00    +0.244 C 
ATOM     16  O   UNL     1      -0.390  13.459  -1.404  0.00  0.00    -0.270 OA
ATOM     17  N   UNL     1       0.785  12.970  -3.226  0.00  0.00    -0.325 N 
ATOM     18  H   UNL     1       1.647  12.769  -3.623  0.00  0.00    +0.145 HD
ATOM     19  H   UNL     1      -0.010  12.999  -3.781  0.00  0.00    +0.145 HD
ENDBRANCH   8  15
ENDBRANCH   5   7
ENDBRANCH   2   3
BRANCH   2  20
ATOM     20  S   UNL     1       2.836   7.070   0.515  0.00  0.00    -0.073 S 
BRANCH  20  21
ATOM     21  C   UNL     1       1.891   5.615   0.211  0.00  0.00    +0.193 A 
ATOM     22  N   UNL     1       0.650   5.567  -0.220  0.00  0.00    -0.122 NA
ATOM     23  N   UNL     1       0.270   4.345  -0.336  0.00  0.00    -0.128 NA
ATOM     24  C   UNL     1       1.240   3.538   0.023  0.00  0.00    +0.167 A 
ATOM     25  N   UNL     1       2.310   4.326   0.381  0.00  0.00    -0.295 N 
BRANCH  24  26
ATOM     26  C   UNL     1       1.195   2.060   0.035  0.00  0.00    +0.037 A 
ATOM     27  C   UNL     1       2.379   1.312   0.040  0.00  0.00    +0.014 A 
ATOM     28  C   UNL     1       2.282  -0.068   0.051  0.00  0.00    +0.020 A 
ATOM     29  C   UNL     1       1.031  -0.659   0.057  0.00  0.00    +0.111 A 
ATOM     30  N   UNL     1      -0.067   0.071   0.051  0.00  0.00    -0.263 NA
ATOM     31  C   UNL     1      -0.027   1.387   0.040  0.00  0.00    +0.122 A 
ENDBRANCH  24  26
BRANCH  25  32
ATOM     32  C   UNL     1       3.624   3.877   0.847  0.00  0.00    +0.200 C 
BRANCH  32  33
ATOM     33  C   UNL     1       4.582   3.835  -0.316  0.00  0.00    +0.125 A 
ATOM     34  C   UNL     1       5.362   4.850  -0.729  0.00  0.00    +0.046 A 
ATOM     35  C   UNL     1       6.096   4.376  -1.841  0.00  0.00    +0.041 A 
ATOM     36  C   UNL     1       5.714   3.102  -2.045  0.00  0.00    +0.195 A 
ATOM     37  O   UNL     1       4.797   2.780  -1.119  0.00  0.00    -0.466 OA
ENDBRANCH  32  33
ENDBRANCH  25  32
ENDBRANCH  20  21
ENDBRANCH   2  20
TORSDOF 8
