REMARK  Name = ZINC01231343
REMARK  5 active torsions:
REMARK  status: ('A' for Active; 'I' for Inactive)
REMARK    1  A    between atoms: C_1  and  C_2
REMARK    2  A    between atoms: C_4  and  C_12
REMARK    3  A    between atoms: C_5  and  C_11
REMARK    4  A    between atoms: C_7  and  N_8
REMARK    5  A    between atoms: C_15  and  C_17
REMARK                            x       y       z     vdW  Elec       q    Type
REMARK                         _______ _______ _______ _____ _____    ______ ____
ROOT
ATOM      1  C   UNL     1       4.868   4.155  -0.160  0.00  0.00    +0.136 A 
ATOM      2  C   UNL     1       6.096   3.590   0.114  0.00  0.00    +0.050 A 
ATOM      3  C   UNL     1       5.920   2.207   0.106  0.00  0.00    +0.050 A 
ATOM      4  C   UNL     1       4.583   1.975  -0.183  0.00  0.00    +0.129 A 
ATOM      5  O   UNL     1       3.972   3.169  -0.336  0.00  0.00    -0.455 OA
ENDROOT
BRANCH   4   6
ATOM      6  C   UNL     1       3.970   0.716  -0.293  0.00  0.00    +0.061 C 
ATOM      7  C   UNL     1       2.596   0.625  -0.459  0.00  0.00    +0.073 C 
ATOM      8  C   UNL     1       1.624   1.722  -0.329  0.00  0.00    +0.198 C 
ATOM      9  O   UNL     1       1.880   2.879  -0.056  0.00  0.00    -0.287 OA
ATOM     10  C   UNL     1       0.275   1.163  -0.592  0.00  0.00    +0.033 A 
ATOM     11  C   UNL     1      -0.983   1.754  -0.595  0.00  0.00    +0.012 A 
ATOM     12  C   UNL     1      -2.105   0.994  -0.880  0.00  0.00    +0.001 A 
ATOM     13  C   UNL     1      -1.984  -0.355  -1.155  0.00  0.00    +0.001 A 
ATOM     14  C   UNL     1      -0.737  -0.959  -1.151  0.00  0.00    +0.012 A 
ATOM     15  C   UNL     1       0.399  -0.209  -0.871  0.00  0.00    +0.033 A 
ATOM     16  C   UNL     1       1.833  -0.586  -0.798  0.00  0.00    +0.198 C 
ATOM     17  O   UNL     1       2.293  -1.695  -0.984  0.00  0.00    -0.287 OA
ENDBRANCH   4   6
BRANCH   1  21
ATOM     18  C   UNL     1       5.182   8.737   1.787  0.00  0.00    +0.046 C 
ATOM     19  C   UNL     1       4.735   7.809   0.687  0.00  0.00    -0.020 A 
ATOM     20  C   UNL     1       5.002   6.459   0.774  0.00  0.00    +0.017 A 
ATOM     21  C   UNL     1       4.586   5.601  -0.247  0.00  0.00    +0.021 A 
ATOM     22  C   UNL     1       3.907   6.118  -1.353  0.00  0.00    -0.038 A 
ATOM     23  C   UNL     1       3.642   7.470  -1.424  0.00  0.00    +0.037 A 
ATOM     24  C   UNL     1       4.056   8.314  -0.409  0.00  0.00    +0.129 A 
ATOM     25  C   UNL     1       3.461   5.201  -2.462  0.00  0.00    +0.044 C 
BRANCH  24  26
ATOM     26  N   UNL     1       3.772   9.764  -0.495  0.00  0.00    +0.057 N 
ATOM     27  O   UNL     1       2.684  10.150  -0.882  0.00  0.00    -0.126 OA
ATOM     28  O   UNL     1       4.627  10.572  -0.178  0.00  0.00    -0.126 OA
ENDBRANCH  24  26
ENDBRANCH   1  21
TORSDOF 3
