REMARK  Name = ZINC43535822
REMARK  6 active torsions:
REMARK  status: ('A' for Active; 'I' for Inactive)
REMARK    1  A    between atoms: C_1  and  C_2
REMARK    2  A    between atoms: C_2  and  C_3
REMARK    3  A    between atoms: C_11  and  S_12
REMARK    4  A    between atoms: S_12  and  C_13
REMARK    5  A    between atoms: C_16  and  S_18
REMARK    6  A    between atoms: S_18  and  C_19
REMARK                            x       y       z     vdW  Elec       q    Type
REMARK                         _______ _______ _______ _____ _____    ______ ____
ROOT
ATOM      1  C   UNL     1      -1.412  -0.526   0.013  0.00  0.00    -0.008 A 
ATOM      2  C   UNL     1      -2.199  -0.813  -1.035  0.00  0.00    +0.024 A 
ATOM      3  C   UNL     1      -3.543  -1.309  -0.797  0.00  0.00    +0.040 A 
ATOM      4  C   UNL     1      -3.894  -1.443   0.564  0.00  0.00    +0.113 A 
ATOM      5  S   UNL     1      -2.434  -0.916   1.421  0.00  0.00    -0.074 S 
ATOM      6  N   UNL     1      -5.082  -1.884   0.927  0.00  0.00    -0.228 NA
ATOM      7  C   UNL     1      -5.979  -2.212   0.017  0.00  0.00    +0.223 A 
ATOM      8  N   UNL     1      -5.720  -2.112  -1.274  0.00  0.00    -0.228 NA
ATOM      9  C   UNL     1      -4.554  -1.679  -1.727  0.00  0.00    +0.115 A 
ENDROOT
BRANCH   1  11
ATOM     10  C   UNL     1      -0.019   1.526   0.010  0.00  0.00    +0.009 C 
ATOM     11  C   UNL     1       0.002  -0.004   0.002  0.00  0.00    +0.039 C 
ENDBRANCH   1  11
BRANCH   9  12
ATOM     12  S   UNL     1      -4.257  -1.564  -3.460  0.00  0.00    -0.041 S 
BRANCH  12  13
ATOM     13  C   UNL     1      -5.763  -2.118  -4.188  0.00  0.00    +0.165 A 
ATOM     14  N   UNL     1      -6.874  -2.524  -3.603  0.00  0.00    -0.134 NA
ATOM     15  N   UNL     1      -7.946  -2.918  -4.370  0.00  0.00    -0.134 NA
ATOM     16  C   UNL     1      -7.858  -2.888  -5.687  0.00  0.00    +0.159 A 
ATOM     17  S   UNL     1      -6.197  -2.272  -5.914  0.00  0.00    -0.033 S 
BRANCH  16  18
ATOM     18  S   UNL     1      -9.059  -3.332  -6.897  0.00  0.00    -0.100 S 
ATOM     19  C   UNL     1     -10.494  -3.856  -5.918  0.00  0.00    +0.092 C 
ENDBRANCH  16  18
ENDBRANCH  12  13
ENDBRANCH   9  12
TORSDOF 4
