REMARK  Name = ZINC59152260
REMARK  6 active torsions:
REMARK  status: ('A' for Active; 'I' for Inactive)
REMARK    1  A    between atoms: C_1  and  C_2
REMARK    2  A    between atoms: C_5  and  C_7
REMARK    3  A    between atoms: N_8  and  N_9
REMARK    4  A    between atoms: C_10  and  C_12
REMARK    5  A    between atoms: C_12  and  S_13
REMARK    6  A    between atoms: S_13  and  C_14
REMARK                            x       y       z     vdW  Elec       q    Type
REMARK                         _______ _______ _______ _____ _____    ______ ____
ROOT
ATOM      1  C   UNL     1       6.091  -5.096  -0.056  0.00  0.00    +0.171 C 
ENDROOT
BRANCH   1   3
ATOM      2  N   UNL     1       3.819  -4.118  -0.039  0.00  0.00    -0.206 N 
ATOM      3  C   UNL     1       5.151  -3.917  -0.045  0.00  0.00    +0.242 C 
ATOM      4  O   UNL     1       5.595  -2.788  -0.041  0.00  0.00    -0.273 OA
ATOM      5  H   UNL     1       3.464  -5.021  -0.042  0.00  0.00    +0.177 HD
BRANCH   2   7
ATOM      6  C   UNL     1       1.659  -3.217  -0.024  0.00  0.00    +0.176 C 
ATOM      7  N   UNL     1       2.945  -3.023  -0.029  0.00  0.00    -0.185 NA
BRANCH   6  12
ATOM      8  C   UNL     1      -0.018   1.503   0.010  0.00  0.00    +0.086 C 
ATOM      9  C   UNL     1       0.002  -0.004   0.002  0.00  0.00    +0.103 A 
ATOM     10  C   UNL     1      -1.084  -0.804   0.003  0.00  0.00    +0.045 A 
ATOM     11  C   UNL     1      -0.619  -2.132  -0.007  0.00  0.00    +0.051 A 
ATOM     12  C   UNL     1       0.745  -2.071  -0.013  0.00  0.00    +0.148 A 
ATOM     13  O   UNL     1       1.104  -0.771  -0.013  0.00  0.00    -0.459 OA
ENDBRANCH   6  12
ENDBRANCH   2   7
ENDBRANCH   1   3
BRANCH   1  14
ATOM     14  S   UNL     1       7.805  -4.502  -0.060  0.00  0.00    -0.113 S 
BRANCH  14  15
ATOM     15  C   UNL     1       8.767  -5.978  -0.073  0.00  0.00    +0.048 A 
ATOM     16  C   UNL     1       9.148  -6.571   1.125  0.00  0.00    +0.076 A 
ATOM     17  C   UNL     1       9.903  -7.730   1.112  0.00  0.00    +0.080 A 
ATOM     18  C   UNL     1      10.279  -8.300  -0.093  0.00  0.00    +0.080 A 
ATOM     19  C   UNL     1       9.901  -7.711  -1.288  0.00  0.00    +0.080 A 
ATOM     20  C   UNL     1       9.142  -6.555  -1.281  0.00  0.00    +0.076 A 
ATOM     21 CL   UNL     1       8.662  -5.822  -2.780  0.00  0.00    -0.081 Cl
ATOM     22 CL   UNL     1      10.375  -8.428  -2.796  0.00  0.00    -0.080 Cl
ATOM     23 CL   UNL     1      11.227  -9.754  -0.105  0.00  0.00    -0.080 Cl
ATOM     24 CL   UNL     1      10.380  -8.471   2.608  0.00  0.00    -0.080 Cl
ATOM     25 CL   UNL     1       8.678  -5.857   2.636  0.00  0.00    -0.081 Cl
ENDBRANCH  14  15
ENDBRANCH   1  14
TORSDOF 5
