REMARK  Name = ZINC50516403
REMARK  6 active torsions:
REMARK  status: ('A' for Active; 'I' for Inactive)
REMARK    1  A    between atoms: C_3  and  N_17
REMARK    2  A    between atoms: C_4  and  O_9
REMARK    3  A    between atoms: C_6  and  C_7
REMARK    4  A    between atoms: C_7  and  N_8
REMARK    5  A    between atoms: O_9  and  C_10
REMARK    6  A    between atoms: C_10  and  C_11
REMARK                            x       y       z     vdW  Elec       q    Type
REMARK                         _______ _______ _______ _____ _____    ______ ____
ROOT
ATOM      1  C   UNL     1      -0.017   1.378   0.010  0.00  0.00    +0.004 A 
ATOM      2  C   UNL     1       1.170   2.088   0.002  0.00  0.00    +0.036 A 
ATOM      3  C   UNL     1       2.377   1.417  -0.013  0.00  0.00    +0.168 A 
ATOM      4  C   UNL     1       2.399   0.030  -0.021  0.00  0.00    +0.151 A 
ATOM      5  C   UNL     1       1.207  -0.680  -0.013  0.00  0.00    +0.049 A 
ATOM      6  C   UNL     1       0.002  -0.004   0.002  0.00  0.00    -0.061 A 
ENDROOT
BRANCH   3   7
ATOM      7  N   UNL     1       3.647   2.178  -0.022  0.00  0.00    +0.060 N 
ATOM      8  O   UNL     1       3.628   3.387  -0.016  0.00  0.00    -0.126 OA
ATOM      9  O   UNL     1       4.704   1.590  -0.036  0.00  0.00    -0.126 OA
ENDBRANCH   3   7
BRANCH   6  10
ATOM     10  C   UNL     1      -1.293  -0.775   0.010  0.00  0.00    -0.050 C 
BRANCH  10  11
ATOM     11  N   UNL     1      -1.727  -1.018  -1.372  0.00  0.00    +0.381 N 
ATOM     12  H   UNL     1      -1.864  -0.135  -1.842  0.00  0.00    -0.090 HD
ATOM     13  H   UNL     1      -1.021  -1.551  -1.857  0.00  0.00    -0.090 HD
ATOM     14  H   UNL     1      -2.594  -1.534  -1.366  0.00  0.00    -0.090 HD
ENDBRANCH  10  11
ENDBRANCH   6  10
BRANCH   4  15
ATOM     15  O   UNL     1       3.586  -0.632  -0.037  0.00  0.00    -0.485 OA
BRANCH  15  16
ATOM     16  C   UNL     1       3.531  -2.060  -0.044  0.00  0.00    +0.271 C 
BRANCH  16  17
ATOM     17  C   UNL     1       4.932  -2.616  -0.062  0.00  0.00    +0.028 A 
ATOM     18  C   UNL     1       5.734  -2.941   0.981  0.00  0.00    +0.016 A 
ATOM     19  C   UNL     1       6.998  -3.441   0.725  0.00  0.00    +0.023 A 
ATOM     20  C   UNL     1       7.397  -3.590  -0.562  0.00  0.00    +0.055 A 
ATOM     21  S   UNL     1       5.962  -3.023  -1.461  0.00  0.00    -0.083 S 
ATOM     22 BR   UNL     1       9.043  -4.238  -1.231  0.00  0.00    -0.043 Br
ENDBRANCH  16  17
ENDBRANCH  15  16
ENDBRANCH   4  15
TORSDOF 6
