REMARK  Name = ZINC45726831
REMARK  10 active torsions:
REMARK  status: ('A' for Active; 'I' for Inactive)
REMARK    1  A    between atoms: C_1  and  C_2
REMARK    2  A    between atoms: C_2  and  C_3
REMARK    3  A    between atoms: C_2  and  O_4
REMARK    4  A    between atoms: O_4  and  C_5
REMARK    5  A    between atoms: C_8  and  C_11
REMARK    6  A    between atoms: C_11  and  N_12
REMARK    7  A    between atoms: N_12  and  C_13
REMARK    8  A    between atoms: C_16  and  S_22
REMARK    9  A    between atoms: C_18  and  N_19
REMARK   10  A    between atoms: S_22  and  N_25
REMARK                            x       y       z     vdW  Elec       q    Type
REMARK                         _______ _______ _______ _____ _____    ______ ____
ROOT
ATOM      1  C   UNL     1      -2.258  -7.992  -1.354  0.00  0.00    +0.058 A 
ATOM      2  C   UNL     1      -2.431  -8.404  -2.669  0.00  0.00    +0.027 A 
ATOM      3  C   UNL     1      -2.545  -9.749  -2.960  0.00  0.00    +0.030 A 
ATOM      4  C   UNL     1      -2.485 -10.685  -1.943  0.00  0.00    +0.107 A 
ATOM      5  C   UNL     1      -2.313 -10.278  -0.633  0.00  0.00    +0.063 A 
ATOM      6  C   UNL     1      -2.193  -8.934  -0.336  0.00  0.00    +0.149 A 
ENDROOT
BRANCH   6   7
ATOM      7  N   UNL     1      -2.002  -8.500   1.065  0.00  0.00    +0.058 N 
ATOM      8  O   UNL     1      -1.273  -7.569   1.316  0.00  0.00    -0.126 OA
ATOM      9  O   UNL     1      -2.576  -9.076   1.960  0.00  0.00    -0.126 OA
ENDBRANCH   6   7
BRANCH   4  10
ATOM     10  S   UNL     1      -2.630 -12.401  -2.319  0.00  0.00    +0.056 S 
ATOM     11  O   UNL     1      -3.090 -13.038  -1.135  0.00  0.00    -0.153 OA
ATOM     12  O   UNL     1      -3.331 -12.489  -3.552  0.00  0.00    -0.153 OA
BRANCH  10  13
ATOM     13  N   UNL     1      -1.101 -12.971  -2.601  0.00  0.00    -0.204 NA
ATOM     14  H   UNL     1      -0.341 -12.372  -2.540  0.00  0.00    +0.144 HD
ATOM     15  H   UNL     1      -0.966 -13.905  -2.826  0.00  0.00    +0.144 HD
ENDBRANCH  10  13
ENDBRANCH   4  10
BRANCH   1  16
ATOM     16  N   UNL     1      -2.142  -6.632  -1.057  0.00  0.00    -0.338 N 
ATOM     17  H   UNL     1      -2.107  -6.339  -0.133  0.00  0.00    +0.146 HD
BRANCH  16  18
ATOM     18  C   UNL     1      -2.074  -5.648  -2.140  0.00  0.00    +0.137 C 
BRANCH  18  22
ATOM     19  C   UNL     1      -1.731  -1.724  -0.483  0.00  0.00    +0.121 A 
ATOM     20  C   UNL     1      -0.590  -2.461  -0.766  0.00  0.00    +0.046 A 
ATOM     21  C   UNL     1      -0.704  -3.729  -1.302  0.00  0.00    +0.009 A 
ATOM     22  C   UNL     1      -1.953  -4.264  -1.556  0.00  0.00    -0.030 A 
ATOM     23  C   UNL     1      -3.092  -3.532  -1.274  0.00  0.00    +0.009 A 
ATOM     24  C   UNL     1      -2.984  -2.266  -0.733  0.00  0.00    +0.046 A 
BRANCH  19  25
ATOM     25  O   UNL     1      -1.622  -0.476   0.044  0.00  0.00    -0.489 OA
BRANCH  25  27
ATOM     26  C   UNL     1      -2.540   1.213   1.509  0.00  0.00    +0.051 C 
ATOM     27  C   UNL     1      -2.836   0.176   0.424  0.00  0.00    +0.167 C 
ATOM     28  C   UNL     1      -3.443   0.873  -0.795  0.00  0.00    +0.051 C 
ENDBRANCH  25  27
ENDBRANCH  19  25
ENDBRANCH  18  22
ENDBRANCH  16  18
ENDBRANCH   1  16
TORSDOF 8
