REMARK  Name = ZINC34999863
REMARK  10 active torsions:
REMARK  status: ('A' for Active; 'I' for Inactive)
REMARK    1  A    between atoms: C_1  and  C_2
REMARK    2  A    between atoms: C_9  and  C_11
REMARK    3  A    between atoms: C_11  and  C_12
REMARK    4  A    between atoms: C_12  and  C_13
REMARK    5  A    between atoms: C_18  and  C_20
REMARK    6  A    between atoms: C_20  and  C_22
REMARK    7  A    between atoms: C_20  and  N_25
REMARK    8  A    between atoms: C_22  and  C_23
REMARK    9  A    between atoms: C_22  and  C_24
REMARK   10  A    between atoms: N_28  and  C_29
REMARK                            x       y       z     vdW  Elec       q    Type
REMARK                         _______ _______ _______ _____ _____    ______ ____
ROOT
ATOM      1  C   UNL     1       0.499   1.018   0.202  0.00  0.00    +0.029 C 
ATOM      2  C   UNL     1       0.504  -0.503   0.040  0.00  0.00    +0.090 C 
ATOM      3  C   UNL     1       1.159  -0.876  -1.296  0.00  0.00    +0.130 C 
ATOM      4  N   UNL     1       1.390  -2.327  -1.316  0.00  0.00    -0.297 N 
ATOM      5  C   UNL     1       2.166  -2.937  -0.227  0.00  0.00    +0.127 C 
ATOM      6  C   UNL     1       1.511  -2.563   1.109  0.00  0.00    +0.127 C 
ATOM      7  N   UNL     1       1.277  -1.112   1.132  0.00  0.00    -0.296 N 
ATOM      8  C   UNL     1       1.765  -0.354   2.133  0.00  0.00    +0.216 C 
ATOM      9  O   UNL     1       1.494   0.827   2.186  0.00  0.00    -0.276 OA
ATOM     10  C   UNL     1       0.900  -3.086  -2.317  0.00  0.00    +0.236 C 
ATOM     11  O   UNL     1       1.038  -4.291  -2.288  0.00  0.00    -0.274 OA
ENDROOT
BRANCH   8  12
ATOM     12  C   UNL     1       2.647  -0.973   3.186  0.00  0.00    +0.096 C 
BRANCH  12  13
ATOM     13  C   UNL     1       3.062   0.097   4.198  0.00  0.00    +0.013 C 
BRANCH  13  14
ATOM     14  C   UNL     1       3.957  -0.531   5.267  0.00  0.00    -0.011 C 
ATOM     15  C   UNL     1       3.140  -1.515   6.130  0.00  0.00    +0.003 C 
ATOM     16  C   UNL     1       3.708  -1.330   7.559  0.00  0.00    +0.000 C 
ATOM     17  C   UNL     1       3.967   0.195   7.629  0.00  0.00    +0.000 C 
ATOM     18  C   UNL     1       4.483   0.556   6.220  0.00  0.00    +0.003 C 
ENDBRANCH  13  14
ENDBRANCH  12  13
ENDBRANCH   8  12
BRANCH  10  19
ATOM     19  C   UNL     1       0.180  -2.438  -3.471  0.00  0.00    +0.163 C 
BRANCH  19  20
ATOM     20  N   UNL     1      -0.476  -3.469  -4.279  0.00  0.00    -0.288 N 
ATOM     21  C   UNL     1      -1.552  -3.156  -5.027  0.00  0.00    +0.304 C 
ATOM     22  O   UNL     1      -1.979  -2.017  -5.031  0.00  0.00    -0.252 OA
ATOM     23  N   UNL     1      -2.156  -4.104  -5.770  0.00  0.00    -0.269 N 
ATOM     24  H   UNL     1      -0.135  -4.377  -4.275  0.00  0.00    +0.151 HD
ATOM     25  H   UNL     1      -1.865  -5.028  -5.707  0.00  0.00    +0.156 HD
BRANCH  23  26
ATOM     26  C   UNL     1      -3.201  -3.757  -6.633  0.00  0.00    +0.037 A 
ATOM     27  C   UNL     1      -3.353  -4.421  -7.844  0.00  0.00    +0.023 A 
ATOM     28  C   UNL     1      -4.386  -4.078  -8.694  0.00  0.00    +0.005 A 
ATOM     29  C   UNL     1      -5.268  -3.073  -8.343  0.00  0.00    +0.038 A 
ATOM     30  C   UNL     1      -5.120  -2.408  -7.138  0.00  0.00    +0.125 A 
ATOM     31  C   UNL     1      -4.091  -2.753  -6.279  0.00  0.00    +0.061 A 
ATOM     32  F   UNL     1      -5.983  -1.426  -6.797  0.00  0.00    -0.205 F 
ENDBRANCH  23  26
ENDBRANCH  19  20
BRANCH  19  33
ATOM     33  C   UNL     1       1.186  -1.675  -4.336  0.00  0.00    +0.012 C 
ATOM     34  C   UNL     1       2.134  -2.668  -5.011  0.00  0.00    +0.009 C 
ATOM     35  C   UNL     1       0.437  -0.877  -5.405  0.00  0.00    +0.009 C 
ENDBRANCH  19  33
ENDBRANCH  10  19
TORSDOF 7
