REMARK  Name = ZINC01497694
REMARK  8 active torsions:
REMARK  status: ('A' for Active; 'I' for Inactive)
REMARK    1  A    between atoms: C_1  and  O_2
REMARK    2  A    between atoms: O_2  and  C_3
REMARK    3  A    between atoms: C_6  and  N_9
REMARK    4  A    between atoms: N_9  and  C_10
REMARK    5  A    between atoms: C_10  and  C_11
REMARK    6  A    between atoms: N_13  and  N_14
REMARK    7  A    between atoms: C_15  and  C_16
REMARK    8  A    between atoms: C_21  and  O_22
REMARK                            x       y       z     vdW  Elec       q    Type
REMARK                         _______ _______ _______ _____ _____    ______ ____
ROOT
ATOM      1  C   UNL     1       3.343  -4.390   5.528  0.00  0.00    +0.249 C 
ATOM      2  O   UNL     1       3.775  -3.552   6.293  0.00  0.00    -0.272 OA
ATOM      3  N   UNL     1       3.526  -5.699   5.790  0.00  0.00    -0.206 N 
ATOM      4  H   UNL     1       3.181  -6.369   5.178  0.00  0.00    +0.177 HD
ENDROOT
BRANCH   3   5
ATOM      5  N   UNL     1       4.213  -6.093   6.945  0.00  0.00    -0.188 NA
ATOM      6  C   UNL     1       4.389  -7.354   7.197  0.00  0.00    +0.142 C 
BRANCH   6   7
ATOM      7  C   UNL     1       5.112  -7.769   8.412  0.00  0.00    +0.038 A 
ATOM      8  C   UNL     1       5.308  -9.125   8.684  0.00  0.00    +0.028 A 
ATOM      9  C   UNL     1       5.986  -9.507   9.823  0.00  0.00    +0.020 A 
ATOM     10  C   UNL     1       6.474  -8.551  10.699  0.00  0.00    +0.034 A 
ATOM     11  C   UNL     1       6.286  -7.206  10.441  0.00  0.00    +0.061 A 
ATOM     12  C   UNL     1       5.612  -6.805   9.298  0.00  0.00    +0.139 A 
ATOM     13 BR   UNL     1       6.957  -5.911  11.644  0.00  0.00    -0.046 Br
ATOM     14 BR   UNL     1       6.251 -11.343  10.191  0.00  0.00    -0.050 Br
BRANCH  12  15
ATOM     15  O   UNL     1       5.431  -5.484   9.040  0.00  0.00    -0.505 OA
ATOM     16  H   UNL     1       4.618  -5.118   9.413  0.00  0.00    +0.292 HD
ENDBRANCH  12  15
ENDBRANCH   6   7
ENDBRANCH   3   5
BRANCH   1  17
ATOM     17  C   UNL     1       2.604  -3.966   4.285  0.00  0.00    +0.199 C 
BRANCH  17  18
ATOM     18  N   UNL     1       2.540  -2.503   4.230  0.00  0.00    -0.335 N 
ATOM     19  H   UNL     1       2.943  -1.973   4.936  0.00  0.00    +0.147 HD
BRANCH  18  23
ATOM     20  C   UNL     1       0.626  -0.619   1.042  0.00  0.00    +0.120 A 
ATOM     21  C   UNL     1       1.202   0.139   2.051  0.00  0.00    +0.047 A 
ATOM     22  C   UNL     1       1.836  -0.484   3.108  0.00  0.00    +0.026 A 
ATOM     23  C   UNL     1       1.897  -1.870   3.160  0.00  0.00    +0.028 A 
ATOM     24  C   UNL     1       1.320  -2.629   2.150  0.00  0.00    +0.026 A 
ATOM     25  C   UNL     1       0.682  -2.004   1.097  0.00  0.00    +0.047 A 
BRANCH  20  27
ATOM     26  C   UNL     1      -0.017   1.425   0.010  0.00  0.00    +0.277 C 
ATOM     27  O   UNL     1       0.002  -0.004   0.002  0.00  0.00    -0.495 OA
ENDBRANCH  20  27
ENDBRANCH  18  23
ENDBRANCH  17  18
ENDBRANCH   1  17
TORSDOF 7
