REMARK  Name = ZINC16455857
REMARK  11 active torsions:
REMARK  status: ('A' for Active; 'I' for Inactive)
REMARK    1  A    between atoms: C_1  and  C_2
REMARK    2  A    between atoms: C_2  and  C_30
REMARK    3  A    between atoms: N_5  and  C_9
REMARK    4  A    between atoms: C_9  and  C_10
REMARK    5  A    between atoms: N_12  and  C_13
REMARK    6  A    between atoms: C_13  and  C_14
REMARK    7  A    between atoms: C_13  and  C_22
REMARK    8  A    between atoms: C_17  and  O_20
REMARK    9  A    between atoms: O_20  and  C_21
REMARK   10  A    between atoms: C_25  and  O_28
REMARK   11  A    between atoms: O_28  and  C_29
REMARK                            x       y       z     vdW  Elec       q    Type
REMARK                         _______ _______ _______ _____ _____    ______ ____
ROOT
ATOM      1  C   UNL     1      -3.476   1.379  -2.183  0.00  0.00    +0.232 C 
ATOM      2  O   UNL     1      -2.672   0.597  -2.644  0.00  0.00    -0.274 OA
ATOM      3  N   UNL     1      -3.479   1.640  -0.860  0.00  0.00    -0.303 N 
ATOM      4  H   UNL     1      -4.122   2.266  -0.491  0.00  0.00    +0.150 HD
ENDROOT
BRANCH   1   5
ATOM      5  C   UNL     1      -4.470   2.061  -3.088  0.00  0.00    +0.213 C 
BRANCH   5  10
ATOM      6  C   UNL     1      -3.622  -0.852  -6.675  0.00  0.00    +0.047 C 
ATOM      7  C   UNL     1      -4.360   0.468  -6.441  0.00  0.00    +0.135 C 
ATOM      8  C   UNL     1      -4.874   0.546  -5.017  0.00  0.00    +0.251 C 
ATOM      9  O   UNL     1      -5.671  -0.196  -4.484  0.00  0.00    -0.272 OA
ATOM     10  N   UNL     1      -4.261   1.613  -4.467  0.00  0.00    -0.215 N 
ATOM     11  C   UNL     1      -3.443   2.216  -5.338  0.00  0.00    +0.310 C 
ATOM     12  O   UNL     1      -2.784   3.202  -5.074  0.00  0.00    -0.252 OA
ATOM     13  N   UNL     1      -3.430   1.606  -6.537  0.00  0.00    -0.281 N 
ATOM     14  H   UNL     1      -2.911   1.867  -7.314  0.00  0.00    +0.152 HD
BRANCH   7  15
ATOM     15  C   UNL     1      -5.492   0.625  -7.423  0.00  0.00    -0.015 A 
ATOM     16  C   UNL     1      -6.763   0.197  -7.087  0.00  0.00    +0.009 A 
ATOM     17  C   UNL     1      -7.803   0.345  -7.984  0.00  0.00    +0.039 A 
ATOM     18  C   UNL     1      -7.570   0.912  -9.226  0.00  0.00    +0.123 A 
ATOM     19  C   UNL     1      -6.295   1.335  -9.564  0.00  0.00    +0.039 A 
ATOM     20  C   UNL     1      -5.258   1.191  -8.662  0.00  0.00    +0.009 A 
ATOM     21  F   UNL     1      -8.584   1.052 -10.107  0.00  0.00    -0.205 F 
ENDBRANCH   7  15
ENDBRANCH   5  10
ENDBRANCH   1   5
BRANCH   3  22
ATOM     22  C   UNL     1      -2.513   0.977   0.019  0.00  0.00    +0.134 C 
BRANCH  22  23
ATOM     23  C   UNL     1      -1.220   1.750   0.017  0.00  0.00    -0.023 A 
ATOM     24  C   UNL     1      -0.013   1.076   0.008  0.00  0.00    +0.009 A 
ATOM     25  C   UNL     1       1.175   1.782   0.000  0.00  0.00    +0.046 A 
ATOM     26  C   UNL     1       1.155   3.169   0.008  0.00  0.00    +0.120 A 
ATOM     27  C   UNL     1      -0.057   3.844   0.022  0.00  0.00    +0.046 A 
ATOM     28  C   UNL     1      -1.242   3.133   0.030  0.00  0.00    +0.009 A 
BRANCH  26  29
ATOM     29  O   UNL     1       2.322   3.866  -0.000  0.00  0.00    -0.495 OA
ATOM     30  C   UNL     1       2.225   5.292   0.008  0.00  0.00    +0.277 C 
ENDBRANCH  26  29
ENDBRANCH  22  23
BRANCH  22  31
ATOM     31  C   UNL     1      -3.064   0.924   1.421  0.00  0.00    -0.023 A 
ATOM     32  C   UNL     1      -3.746   2.010   1.936  0.00  0.00    +0.009 A 
ATOM     33  C   UNL     1      -4.257   1.962   3.219  0.00  0.00    +0.046 A 
ATOM     34  C   UNL     1      -4.075   0.826   3.994  0.00  0.00    +0.120 A 
ATOM     35  C   UNL     1      -3.386  -0.261   3.477  0.00  0.00    +0.046 A 
ATOM     36  C   UNL     1      -2.882  -0.210   2.191  0.00  0.00    +0.009 A 
BRANCH  34  37
ATOM     37  O   UNL     1      -4.571   0.778   5.259  0.00  0.00    -0.495 OA
ATOM     38  C   UNL     1      -5.269   1.934   5.726  0.00  0.00    +0.277 C 
ENDBRANCH  34  37
ENDBRANCH  22  31
ENDBRANCH   3  22
TORSDOF 8
