REMARK  Name = ZINC20699081
REMARK  7 active torsions:
REMARK  status: ('A' for Active; 'I' for Inactive)
REMARK    1  A    between atoms: C_1  and  C_2
REMARK    2  A    between atoms: C_2  and  O_3
REMARK    3  A    between atoms: O_3  and  C_4
REMARK    4  A    between atoms: C_4  and  C_5
REMARK    5  A    between atoms: C_5  and  O_6
REMARK    6  A    between atoms: O_6  and  C_7
REMARK    7  A    between atoms: C_14  and  C_23
REMARK                            x       y       z     vdW  Elec       q    Type
REMARK                         _______ _______ _______ _____ _____    ______ ____
ROOT
ATOM      1  C   UNL     1       1.186   2.059   0.002  0.00  0.00    +0.142 A 
ATOM      2  C   UNL     1       2.350   1.315  -0.008  0.00  0.00    +0.047 A 
ATOM      3  C   UNL     1       3.579   1.948  -0.015  0.00  0.00    +0.004 A 
ATOM      4  C   UNL     1       3.638   3.328  -0.009  0.00  0.00    +0.006 A 
ATOM      5  C   UNL     1       2.481   4.080  -0.003  0.00  0.00    -0.016 A 
ATOM      6  C   UNL     1       1.232   3.458   0.009  0.00  0.00    +0.074 A 
ATOM      7  N   UNL     1       0.016   4.144   0.043  0.00  0.00    -0.334 N 
ATOM      8  C   UNL     1       0.082   5.612  -0.029  0.00  0.00    +0.106 C 
ATOM      9  C   UNL     1       1.276   6.044   0.797  0.00  0.00    +0.029 C 
ATOM     10  C   UNL     1       2.515   5.559  -0.018  0.00  0.00    +0.049 C 
ATOM     11  C   UNL     1       3.631   6.339   0.572  0.00  0.00    -0.023 C 
ATOM     12  C   UNL     1       3.145   7.484   1.040  0.00  0.00    -0.030 C 
ATOM     13  C   UNL     1       1.630   7.535   0.823  0.00  0.00    +0.033 C 
ATOM     14  H   UNL     1      -0.959   3.640   0.119  0.00  0.00    +0.147 HD
ENDROOT
BRANCH   8  15
ATOM     15  C   UNL     1       0.263   6.048  -1.460  0.00  0.00    -0.019 A 
ATOM     16  C   UNL     1       0.745   5.175  -2.386  0.00  0.00    +0.006 A 
ATOM     17  C   UNL     1       0.913   5.558  -3.715  0.00  0.00    +0.001 A 
ATOM     18  C   UNL     1       0.611   6.821  -4.124  0.00  0.00    +0.008 A 
ATOM     19  C   UNL     1       0.117   7.753  -3.195  0.00  0.00    -0.018 A 
ATOM     20  C   UNL     1      -0.060   7.361  -1.845  0.00  0.00    -0.013 A 
ATOM     21  C   UNL     1      -0.553   8.293  -0.916  0.00  0.00    +0.009 A 
ATOM     22  C   UNL     1      -0.854   9.556  -1.324  0.00  0.00    +0.001 A 
ATOM     23  C   UNL     1      -0.680   9.941  -2.652  0.00  0.00    +0.001 A 
ATOM     24  C   UNL     1      -0.204   9.066  -3.579  0.00  0.00    +0.008 A 
ENDBRANCH   8  15
BRANCH   1  25
ATOM     25  O   UNL     1      -0.017   1.425   0.010  0.00  0.00    -0.488 OA
BRANCH  25  26
ATOM     26  C   UNL     1       0.002  -0.004   0.002  0.00  0.00    +0.257 C 
BRANCH  26  27
ATOM     27  C   UNL     1      -1.433  -0.534   0.013  0.00  0.00    +0.200 C 
BRANCH  27  28
ATOM     28  O   UNL     1      -2.089  -0.158  -1.200  0.00  0.00    -0.377 OA
BRANCH  28  30
ATOM     29  C   UNL     1      -4.042  -0.149  -2.623  0.00  0.00    +0.034 C 
ATOM     30  C   UNL     1      -3.443  -0.606  -1.292  0.00  0.00    +0.156 C 
ENDBRANCH  28  30
ENDBRANCH  27  28
ENDBRANCH  26  27
ENDBRANCH  25  26
ENDBRANCH   1  25
TORSDOF 6
