REMARK  Name = ZINC34748823
REMARK  12 active torsions:
REMARK  status: ('A' for Active; 'I' for Inactive)
REMARK    1  A    between atoms: C_1  and  C_2
REMARK    2  A    between atoms: C_2  and  N_3
REMARK    3  A    between atoms: N_3  and  C_4
REMARK    4  A    between atoms: C_4  and  C_5
REMARK    5  A    between atoms: C_6  and  C_8
REMARK    6  A    between atoms: C_8  and  N_9
REMARK    7  A    between atoms: C_13  and  C_37
REMARK    8  A    between atoms: C_14  and  C_36
REMARK    9  A    between atoms: N_22  and  C_25
REMARK   10  A    between atoms: C_25  and  C_26
REMARK   11  A    between atoms: N_28  and  C_29
REMARK   12  A    between atoms: C_32  and  C_35
REMARK                            x       y       z     vdW  Elec       q    Type
REMARK                         _______ _______ _______ _____ _____    ______ ____
ROOT
ATOM      1  N   UNL     1      -3.854  -1.446   2.599  0.00  0.00    -0.271 N 
ATOM      2  C   UNL     1      -3.727  -2.648   3.191  0.00  0.00    +0.264 A 
ATOM      3  O   UNL     1      -3.275  -3.596   2.572  0.00  0.00    -0.267 OA
ATOM      4  C   UNL     1      -4.130  -2.799   4.555  0.00  0.00    +0.075 A 
ATOM      5  C   UNL     1      -4.090  -3.980   5.400  0.00  0.00    -0.026 A 
ATOM      6  C   UNL     1      -4.524  -3.894   6.667  0.00  0.00    -0.008 A 
ATOM      7  S   UNL     1      -5.024  -2.189   6.818  0.00  0.00    -0.073 S 
ATOM      8  C   UNL     1      -4.637  -1.642   5.175  0.00  0.00    +0.117 A 
ATOM      9  N   UNL     1      -4.736  -0.484   4.532  0.00  0.00    -0.208 NA
ATOM     10  C   UNL     1      -4.352  -0.373   3.278  0.00  0.00    +0.202 A 
ATOM     11  N   UNL     1      -4.460   0.839   2.642  0.00  0.00    -0.304 N 
ATOM     12  C   UNL     1      -3.322   1.769   2.587  0.00  0.00    +0.089 C 
ATOM     13  C   UNL     1      -3.800   3.150   3.046  0.00  0.00    -0.059 C 
ATOM     14  N   UNL     1      -4.957   3.560   2.239  0.00  0.00    +0.387 N 
ATOM     15  C   UNL     1      -6.084   2.650   2.482  0.00  0.00    -0.059 C 
ATOM     16  C   UNL     1      -5.717   1.242   1.990  0.00  0.00    +0.089 C 
ATOM     17  C   UNL     1      -4.575  -4.978   7.712  0.00  0.00    +0.052 C 
ATOM     18  C   UNL     1      -3.570  -5.287   4.860  0.00  0.00    +0.045 C 
ATOM     19  H   UNL     1      -4.710   3.533   1.261  0.00  0.00    -0.081 HD
ENDROOT
BRANCH   1  20
ATOM     20  C   UNL     1      -3.443  -1.285   1.202  0.00  0.00    +0.224 C 
BRANCH  20  22
ATOM     21  N   UNL     1      -1.425  -0.578  -0.039  0.00  0.00    -0.301 N 
ATOM     22  C   UNL     1      -2.018  -0.798   1.150  0.00  0.00    +0.236 C 
ATOM     23  O   UNL     1      -1.406  -0.604   2.179  0.00  0.00    -0.274 OA
BRANCH  21  25
ATOM     24  C   UNL     1      -0.023   1.426  -0.087  0.00  0.00    +0.024 C 
ATOM     25  C   UNL     1      -0.039  -0.104  -0.090  0.00  0.00    +0.104 C 
ENDBRANCH  21  25
BRANCH  21  26
ATOM     26  C   UNL     1      -2.164  -0.812  -1.282  0.00  0.00    +0.104 C 
ATOM     27  C   UNL     1      -1.956  -2.259  -1.734  0.00  0.00    +0.024 C 
ENDBRANCH  21  26
ENDBRANCH  20  22
ENDBRANCH   1  20
BRANCH  14  28
ATOM     28  C   UNL     1      -5.347   4.928   2.604  0.00  0.00    +0.019 C 
BRANCH  28  29
ATOM     29  C   UNL     1      -6.453   5.395   1.694  0.00  0.00    +0.201 C 
ATOM     30  O   UNL     1      -6.875   4.660   0.826  0.00  0.00    -0.278 OA
ATOM     31  N   UNL     1      -6.973   6.630   1.844  0.00  0.00    -0.287 N 
ATOM     32  H   UNL     1      -6.596   7.239   2.498  0.00  0.00    +0.155 HD
BRANCH  31  33
ATOM     33  C   UNL     1      -8.057   7.032   1.056  0.00  0.00    +0.033 A 
ATOM     34  C   UNL     1      -9.030   7.870   1.587  0.00  0.00    +0.023 A 
ATOM     35  C   UNL     1     -10.099   8.265   0.807  0.00  0.00    +0.005 A 
ATOM     36  C   UNL     1     -10.201   7.829  -0.502  0.00  0.00    -0.050 A 
ATOM     37  C   UNL     1      -9.234   6.995  -1.033  0.00  0.00    +0.005 A 
ATOM     38  C   UNL     1      -8.159   6.601  -0.260  0.00  0.00    +0.023 A 
ATOM     39  C   UNL     1     -11.368   8.263  -1.350  0.00  0.00    +0.044 C 
ENDBRANCH  31  33
ENDBRANCH  28  29
ENDBRANCH  14  28
TORSDOF 7
