REMARK  Name = ZINC21045035
REMARK  6 active torsions:
REMARK  status: ('A' for Active; 'I' for Inactive)
REMARK    1  A    between atoms: C_4  and  N_24
REMARK    2  A    between atoms: C_5  and  N_7
REMARK    3  A    between atoms: C_8  and  C_10
REMARK    4  A    between atoms: C_10  and  C_11
REMARK    5  A    between atoms: C_11  and  C_13
REMARK    6  A    between atoms: C_11  and  N_20
REMARK                            x       y       z     vdW  Elec       q    Type
REMARK                         _______ _______ _______ _____ _____    ______ ____
ROOT
ATOM      1  N   UNL     1      -2.688   0.349  -3.646  0.00  0.00    -0.284 N 
ATOM      2  C   UNL     1      -2.616   0.924  -2.429  0.00  0.00    +0.219 C 
ATOM      3  O   UNL     1      -2.650   2.133  -2.327  0.00  0.00    -0.275 OA
ATOM      4  H   UNL     1      -2.565  -0.739  -3.748  0.00  0.00    +0.155 HD
ENDROOT
BRANCH   1   9
ATOM      5  C   UNL     1      -3.784   3.137  -5.782  0.00  0.00    +0.002 A 
ATOM      6  C   UNL     1      -3.372   2.698  -7.027  0.00  0.00    +0.002 A 
ATOM      7  C   UNL     1      -2.732   1.480  -7.157  0.00  0.00    +0.025 A 
ATOM      8  C   UNL     1      -2.501   0.694  -6.037  0.00  0.00    +0.051 A 
ATOM      9  C   UNL     1      -2.917   1.138  -4.782  0.00  0.00    +0.055 A 
ATOM     10  C   UNL     1      -3.564   2.358  -4.661  0.00  0.00    +0.025 A 
BRANCH   8  11
ATOM     11  N   UNL     1      -1.854  -0.539  -6.166  0.00  0.00    -0.328 N 
ATOM     12  C   UNL     1      -0.475  -0.363  -6.638  0.00  0.00    +0.105 C 
ATOM     13  C   UNL     1       0.246  -1.713  -6.628  0.00  0.00    +0.019 C 
ATOM     14  C   UNL     1      -0.503  -2.692  -7.537  0.00  0.00    +0.003 C 
ATOM     15  C   UNL     1      -1.950  -2.821  -7.053  0.00  0.00    +0.019 C 
ATOM     16  C   UNL     1      -2.607  -1.438  -7.050  0.00  0.00    +0.105 C 
ENDBRANCH   8  11
ENDBRANCH   1   9
BRANCH   2  17
ATOM     17  C   UNL     1      -2.496   0.067  -1.196  0.00  0.00    +0.123 C 
BRANCH  17  18
ATOM     18  C   UNL     1      -2.434   0.961   0.044  0.00  0.00    +0.113 C 
BRANCH  18  19
ATOM     19  C   UNL     1      -2.437   0.104   1.283  0.00  0.00    -0.027 A 
ATOM     20  C   UNL     1      -1.252  -0.427   1.758  0.00  0.00    +0.007 A 
ATOM     21  C   UNL     1      -1.254  -1.209   2.898  0.00  0.00    +0.020 A 
ATOM     22  C   UNL     1      -2.442  -1.470   3.556  0.00  0.00    +0.041 A 
ATOM     23  C   UNL     1      -3.628  -0.943   3.077  0.00  0.00    +0.020 A 
ATOM     24  C   UNL     1      -3.625  -0.156   1.940  0.00  0.00    +0.007 A 
ATOM     25 CL   UNL     1      -2.446  -2.458   4.984  0.00  0.00    -0.084 Cl
ENDBRANCH  18  19
BRANCH  18  26
ATOM     26  N   UNL     1      -1.208   1.762   0.007  0.00  0.00    -0.292 N 
ATOM     27  C   UNL     1      -1.116   2.888   0.742  0.00  0.00    +0.298 C 
ATOM     28  O   UNL     1      -2.081   3.288   1.364  0.00  0.00    -0.253 OA
ATOM     29  N   UNL     1       0.047   3.567   0.793  0.00  0.00    -0.313 N 
ATOM     30  H   UNL     1      -0.362   1.445  -0.621  0.00  0.00    +0.151 HD
ATOM     31  H   UNL     1       0.122   4.486   1.393  0.00  0.00    +0.146 HD
ATOM     32  H   UNL     1       0.922   3.203   0.233  0.00  0.00    +0.146 HD
ENDBRANCH  18  26
ENDBRANCH  17  18
ENDBRANCH   2  17
TORSDOF 6
