REMARK  Name = ZINC12498008
REMARK  7 active torsions:
REMARK  status: ('A' for Active; 'I' for Inactive)
REMARK    1  A    between atoms: C_1  and  C_2
REMARK    2  A    between atoms: C_7  and  C_8
REMARK    3  A    between atoms: N_16  and  C_19
REMARK    4  A    between atoms: C_29  and  C_30
REMARK    5  A    between atoms: C_29  and  C_36
REMARK    6  A    between atoms: C_36  and  O_38
REMARK    7  A    between atoms: O_38  and  C_39
REMARK                            x       y       z     vdW  Elec       q    Type
REMARK                         _______ _______ _______ _____ _____    ______ ____
ROOT
ATOM      1  C   UNL     1      -2.434   0.931  -0.084  0.00  0.00    -0.026 C 
ATOM      2  C   UNL     1      -2.924   0.869   1.307  0.00  0.00    +0.078 C 
ATOM      3  C   UNL     1      -4.031  -0.257   1.194  0.00  0.00    +0.090 C 
ATOM      4  C   UNL     1      -4.277  -0.379   2.673  0.00  0.00    +0.229 C 
ATOM      5  O   UNL     1      -4.534  -1.388   3.293  0.00  0.00    -0.275 OA
ATOM      6  N   UNL     1      -4.151   0.888   3.171  0.00  0.00    -0.210 N 
ATOM      7  C   UNL     1      -3.526   1.734   2.296  0.00  0.00    +0.229 C 
ATOM      8  O   UNL     1      -3.486   2.944   2.344  0.00  0.00    -0.275 OA
ATOM      9  C   UNL     1      -3.180  -1.303   0.477  0.00  0.00    +0.070 C 
ATOM     10  N   UNL     1      -2.287  -0.520  -0.418  0.00  0.00    +0.398 N 
ATOM     11  H   UNL     1      -1.313  -0.811  -0.276  0.00  0.00    -0.083 HD
ATOM     12  H   UNL     1      -2.553  -0.679  -1.397  0.00  0.00    -0.083 HD
ENDROOT
BRANCH   6  13
ATOM     13  C   UNL     1      -4.622   1.278   4.434  0.00  0.00    +0.048 A 
ATOM     14  C   UNL     1      -5.263   0.357   5.251  0.00  0.00    +0.028 A 
ATOM     15  C   UNL     1      -5.724   0.740   6.495  0.00  0.00    +0.051 A 
ATOM     16  C   UNL     1      -5.558   2.047   6.928  0.00  0.00    +0.162 A 
ATOM     17  C   UNL     1      -4.919   2.972   6.111  0.00  0.00    +0.164 A 
ATOM     18  C   UNL     1      -4.453   2.587   4.864  0.00  0.00    +0.073 A 
ATOM     19  O   UNL     1      -4.739   4.258   6.522  0.00  0.00    -0.485 OA
ATOM     20  C   UNL     1      -5.545   4.702   7.619  0.00  0.00    +0.270 C 
ATOM     21  C   UNL     1      -5.509   3.622   8.709  0.00  0.00    +0.270 C 
ATOM     22  O   UNL     1      -6.026   2.408   8.155  0.00  0.00    -0.485 OA
ENDBRANCH   6  13
BRANCH   1  29
ATOM     23  C   UNL     1      -2.349   3.818  -0.159  0.00  0.00    +0.044 C 
ATOM     24  C   UNL     1      -1.068   3.026  -0.193  0.00  0.00    -0.049 A 
ATOM     25  C   UNL     1       0.148   3.680  -0.265  0.00  0.00    +0.003 A 
ATOM     26  C   UNL     1       1.323   2.953  -0.296  0.00  0.00    +0.000 A 
ATOM     27  C   UNL     1       1.283   1.572  -0.254  0.00  0.00    +0.000 A 
ATOM     28  C   UNL     1       0.067   0.918  -0.182  0.00  0.00    +0.002 A 
ATOM     29  C   UNL     1      -1.109   1.645  -0.156  0.00  0.00    -0.058 A 
ENDBRANCH   1  29
BRANCH   9  30
ATOM     30  C   UNL     1      -4.058  -2.226  -0.328  0.00  0.00    -0.047 A 
ATOM     31  C   UNL     1      -5.347  -2.496   0.091  0.00  0.00    +0.003 A 
ATOM     32  C   UNL     1      -6.153  -3.339  -0.650  0.00  0.00    +0.000 A 
ATOM     33  C   UNL     1      -5.667  -3.920  -1.806  0.00  0.00    +0.000 A 
ATOM     34  C   UNL     1      -4.376  -3.655  -2.223  0.00  0.00    +0.000 A 
ATOM     35  C   UNL     1      -3.571  -2.808  -1.484  0.00  0.00    +0.003 A 
ENDBRANCH   9  30
BRANCH   9  36
ATOM     36  C   UNL     1      -2.369  -2.089   1.474  0.00  0.00    +0.301 C 
ATOM     37  O   UNL     1      -2.794  -3.133   1.911  0.00  0.00    -0.252 OA
BRANCH  36  38
ATOM     38  O   UNL     1      -1.173  -1.631   1.877  0.00  0.00    -0.469 OA
ATOM     39  C   UNL     1      -0.447  -2.440   2.839  0.00  0.00    +0.280 C 
ENDBRANCH  36  38
ENDBRANCH   9  36
TORSDOF 5
