REMARK  Name = ZINC12870993
REMARK  10 active torsions:
REMARK  status: ('A' for Active; 'I' for Inactive)
REMARK    1  A    between atoms: C_1  and  C_2
REMARK    2  A    between atoms: C_2  and  C_3
REMARK    3  A    between atoms: C_3  and  C_4
REMARK    4  A    between atoms: C_3  and  C_5
REMARK    5  A    between atoms: C_3  and  N_6
REMARK    6  A    between atoms: C_7  and  C_9
REMARK    7  A    between atoms: C_9  and  C_11
REMARK    8  A    between atoms: C_9  and  N_16
REMARK    9  A    between atoms: N_16  and  C_17
REMARK   10  A    between atoms: C_24  and  C_26
REMARK                            x       y       z     vdW  Elec       q    Type
REMARK                         _______ _______ _______ _____ _____    ______ ____
ROOT
ATOM      1  C   UNL     1      -3.015   1.689  -0.483  0.00  0.00    +0.233 C 
ENDROOT
BRANCH   1   2
ATOM      2  C   UNL     1      -1.693   2.198  -0.999  0.00  0.00    +0.135 A 
ATOM      3  C   UNL     1      -0.686   1.440  -1.467  0.00  0.00    +0.047 A 
ATOM      4  C   UNL     1       0.350   2.323  -1.846  0.00  0.00    +0.041 A 
ATOM      5  C   UNL     1      -0.083   3.569  -1.581  0.00  0.00    +0.195 A 
ATOM      6  O   UNL     1      -1.320   3.487  -1.065  0.00  0.00    -0.465 OA
ENDBRANCH   1   2
BRANCH   1   8
ATOM      7  N   UNL     1      -4.146   1.882  -2.674  0.00  0.00    -0.308 N 
ATOM      8  C   UNL     1      -4.127   2.196  -1.364  0.00  0.00    +0.242 C 
ATOM      9  O   UNL     1      -5.005   2.888  -0.893  0.00  0.00    -0.273 OA
ATOM     10  H   UNL     1      -3.443   1.329  -3.051  0.00  0.00    +0.149 HD
BRANCH   7  11
ATOM     11  C   UNL     1      -5.227   2.376  -3.531  0.00  0.00    +0.029 C 
ATOM     12  C   UNL     1      -6.569   1.859  -3.007  0.00  0.00    +0.031 C 
ATOM     13  C   UNL     1      -5.230   3.906  -3.517  0.00  0.00    +0.031 C 
BRANCH  11  15
ATOM     14  C   UNL     1      -6.141   2.394  -5.856  0.00  0.00    +0.006 C 
ATOM     15  C   UNL     1      -5.012   1.879  -4.962  0.00  0.00    +0.022 C 
ENDBRANCH  11  15
ENDBRANCH   7  11
ENDBRANCH   1   8
BRANCH   1  16
ATOM     16  N   UNL     1      -3.221   2.165   0.887  0.00  0.00    -0.247 N 
ATOM     17  C   UNL     1      -4.034   1.486   1.721  0.00  0.00    +0.273 C 
ATOM     18  O   UNL     1      -4.133   1.827   2.884  0.00  0.00    -0.268 OA
BRANCH  16  19
ATOM     19  C   UNL     1      -2.574   3.323   1.330  0.00  0.00    +0.039 A 
ATOM     20  C   UNL     1      -1.327   3.235   1.936  0.00  0.00    +0.023 A 
ATOM     21  C   UNL     1      -0.688   4.381   2.368  0.00  0.00    +0.003 A 
ATOM     22  C   UNL     1      -1.292   5.614   2.206  0.00  0.00    +0.020 A 
ATOM     23  C   UNL     1      -2.537   5.705   1.607  0.00  0.00    +0.043 A 
ATOM     24  C   UNL     1      -3.179   4.562   1.169  0.00  0.00    +0.043 A 
ATOM     25 CL   UNL     1      -3.292   7.255   1.407  0.00  0.00    -0.083 Cl
ENDBRANCH  16  19
BRANCH  17  26
ATOM     26  C   UNL     1      -4.802   0.331   1.223  0.00  0.00    +0.157 A 
ATOM     27  C   UNL     1      -5.715  -0.369   1.998  0.00  0.00    +0.101 A 
ATOM     28  S   UNL     1      -6.258  -1.566   0.869  0.00  0.00    +0.029 S 
ATOM     29  N   UNL     1      -5.390  -1.153  -0.382  0.00  0.00    -0.110 NA
ATOM     30  N   UNL     1      -4.695  -0.140  -0.013  0.00  0.00    -0.136 NA
ENDBRANCH  17  26
ENDBRANCH   1  16
TORSDOF 7
