REMARK  Name = ZINC35063890
REMARK  9 active torsions:
REMARK  status: ('A' for Active; 'I' for Inactive)
REMARK    1  A    between atoms: C_1  and  C_2
REMARK    2  A    between atoms: C_2  and  C_3
REMARK    3  A    between atoms: C_3  and  C_4
REMARK    4  A    between atoms: C_4  and  N_5
REMARK    5  A    between atoms: N_11  and  C_14
REMARK    6  A    between atoms: C_14  and  C_16
REMARK    7  A    between atoms: C_14  and  C_17
REMARK    8  A    between atoms: N_27  and  C_28
REMARK    9  A    between atoms: C_31  and  C_34
REMARK                            x       y       z     vdW  Elec       q    Type
REMARK                         _______ _______ _______ _____ _____    ______ ____
ROOT
ATOM      1  C   UNL     1       5.979  -4.952  -7.564  0.00  0.00    +0.104 A 
ATOM      2  N   UNL     1       5.125  -4.400  -8.372  0.00  0.00    -0.235 NA
ATOM      3  C   UNL     1       5.403  -3.239  -9.016  0.00  0.00    +0.078 A 
ATOM      4  C   UNL     1       4.485  -2.645  -9.885  0.00  0.00    +0.028 A 
ATOM      5  C   UNL     1       4.809  -1.466 -10.517  0.00  0.00    +0.002 A 
ATOM      6  C   UNL     1       6.039  -0.858 -10.303  0.00  0.00    +0.001 A 
ATOM      7  C   UNL     1       6.962  -1.425  -9.451  0.00  0.00    +0.015 A 
ATOM      8  C   UNL     1       6.653  -2.618  -8.800  0.00  0.00    +0.065 A 
ATOM      9  C   UNL     1       7.597  -3.268  -7.879  0.00  0.00    +0.266 A 
ATOM     10  O   UNL     1       8.691  -2.784  -7.650  0.00  0.00    -0.267 OA
ATOM     11  N   UNL     1       7.202  -4.421  -7.293  0.00  0.00    -0.266 N 
ENDROOT
BRANCH  11  12
ATOM     12  C   UNL     1       8.061  -5.078  -6.403  0.00  0.00    +0.051 A 
ATOM     13  C   UNL     1       9.111  -5.847  -6.889  0.00  0.00    +0.026 A 
ATOM     14  C   UNL     1       9.957  -6.493  -6.010  0.00  0.00    +0.005 A 
ATOM     15  C   UNL     1       9.760  -6.375  -4.646  0.00  0.00    -0.050 A 
ATOM     16  C   UNL     1       8.716  -5.610  -4.159  0.00  0.00    +0.005 A 
ATOM     17  C   UNL     1       7.870  -4.957  -5.033  0.00  0.00    +0.026 A 
ATOM     18  C   UNL     1      10.685  -7.082  -3.689  0.00  0.00    +0.044 C 
ENDBRANCH  11  12
BRANCH   1  19
ATOM     19  C   UNL     1       5.592  -6.242  -6.888  0.00  0.00    -0.003 C 
ATOM     20  C   UNL     1       5.912  -7.418  -7.812  0.00  0.00    -0.005 C 
BRANCH  19  27
ATOM     21  N   UNL     1       0.629  -5.232  -3.321  0.00  0.00    -0.299 N 
ATOM     22  C   UNL     1       1.086  -6.363  -3.894  0.00  0.00    +0.302 C 
ATOM     23  O   UNL     1       0.798  -7.444  -3.419  0.00  0.00    -0.253 OA
ATOM     24  N   UNL     1       1.861  -6.296  -4.994  0.00  0.00    -0.289 N 
ATOM     25  C   UNL     1       2.329  -5.000  -5.512  0.00  0.00    +0.091 C 
ATOM     26  C   UNL     1       3.844  -5.082  -5.727  0.00  0.00    -0.059 C 
ATOM     27  N   UNL     1       4.154  -6.228  -6.592  0.00  0.00    +0.388 N 
ATOM     28  C   UNL     1       3.782  -7.478  -5.917  0.00  0.00    -0.059 C 
ATOM     29  C   UNL     1       2.269  -7.516  -5.708  0.00  0.00    +0.091 C 
ATOM     30  H   UNL     1       0.914  -4.368  -3.659  0.00  0.00    +0.150 HD
ATOM     31  H   UNL     1       3.636  -6.146  -7.454  0.00  0.00    -0.081 HD
BRANCH  21  32
ATOM     32  C   UNL     1      -0.296  -5.306  -2.188  0.00  0.00    +0.106 C 
BRANCH  32  33
ATOM     33  C   UNL     1      -0.656  -3.892  -1.729  0.00  0.00    +0.018 C 
BRANCH  33  35
ATOM     34  C   UNL     1      -1.983  -2.555  -0.087  0.00  0.00    +0.004 C 
ATOM     35  C   UNL     1      -1.623  -3.970  -0.546  0.00  0.00    -0.002 C 
ENDBRANCH  33  35
ENDBRANCH  32  33
ENDBRANCH  21  32
ENDBRANCH  19  27
ENDBRANCH   1  19
TORSDOF 6
