REMARK  Name = ZINC09531697
REMARK  11 active torsions:
REMARK  status: ('A' for Active; 'I' for Inactive)
REMARK    1  A    between atoms: C_1  and  C_2
REMARK    2  A    between atoms: C_2  and  C_3
REMARK    3  A    between atoms: C_3  and  C_5
REMARK    4  A    between atoms: C_3  and  N_29
REMARK    5  A    between atoms: N_7  and  N_8
REMARK    6  A    between atoms: C_11  and  C_28
REMARK    7  A    between atoms: C_30  and  O_32
REMARK    8  A    between atoms: O_32  and  C_33
REMARK    9  A    between atoms: C_33  and  C_34
REMARK   10  A    between atoms: C_33  and  C_35
REMARK   11  A    between atoms: C_33  and  C_36
REMARK                            x       y       z     vdW  Elec       q    Type
REMARK                         _______ _______ _______ _____ _____    ______ ____
ROOT
ATOM      1  N   UNL     1       0.623  -2.076   0.996  0.00  0.00    -0.142 NA
ATOM      2  C   UNL     1       1.208  -2.728   1.968  0.00  0.00    +0.236 A 
ATOM      3  C   UNL     1       1.857  -2.011   3.076  0.00  0.00    +0.073 A 
ATOM      4  C   UNL     1       1.938  -2.653   4.273  0.00  0.00    -0.035 A 
ATOM      5  C   UNL     1       1.381  -4.011   4.362  0.00  0.00    +0.021 A 
ATOM      6  C   UNL     1       1.186  -4.627   5.598  0.00  0.00    +0.019 A 
ATOM      7  C   UNL     1       0.653  -5.901   5.661  0.00  0.00    -0.005 A 
ATOM      8  C   UNL     1       0.311  -6.572   4.495  0.00  0.00    +0.128 A 
ATOM      9  C   UNL     1       0.508  -5.965   3.257  0.00  0.00    +0.092 A 
ATOM     10  C   UNL     1       1.040  -4.693   3.181  0.00  0.00    +0.141 A 
ATOM     11  O   UNL     1       1.238  -4.090   1.980  0.00  0.00    -0.436 OA
ATOM     12  O   UNL     1      -0.222  -7.814   4.524  0.00  0.00    -0.485 OA
ATOM     13  C   UNL     1      -0.165  -8.596   5.706  0.00  0.00    +0.111 C 
ATOM     14  C   UNL     1      -1.210  -9.716   5.620  0.00  0.00    +0.048 C 
ATOM     15  C   UNL     1      -0.937 -10.572   4.383  0.00  0.00    +0.004 C 
ATOM     16  C   UNL     1       0.455 -11.196   4.491  0.00  0.00    +0.000 C 
ATOM     17  C   UNL     1       1.504 -10.087   4.590  0.00  0.00    +0.004 C 
ATOM     18  C   UNL     1       1.227  -9.230   5.826  0.00  0.00    +0.048 C 
ATOM     19  C   UNL     1      -0.438  -7.753   6.943  0.00  0.00    +0.053 C 
ATOM     20  C   UNL     1       0.461  -6.533   7.011  0.00  0.00    +0.043 C 
ATOM     21  C   UNL     1       2.582  -1.995   5.467  0.00  0.00    +0.044 C 
ENDROOT
BRANCH   1  24
ATOM     22  C   UNL     1       0.002  -0.004   0.002  0.00  0.00    +0.253 C 
ATOM     23  O   UNL     1      -0.524  -0.613  -0.907  0.00  0.00    -0.272 OA
ATOM     24  N   UNL     1       0.604  -0.675   1.004  0.00  0.00    -0.202 N 
ATOM     25  H   UNL     1       1.025  -0.189   1.730  0.00  0.00    +0.177 HD
BRANCH  22  26
ATOM     26  C   UNL     1      -0.018   1.503   0.010  0.00  0.00    +0.163 C 
BRANCH  26  27
ATOM     27  N   UNL     1      -0.727   1.988  -1.177  0.00  0.00    -0.270 N 
ATOM     28  C   UNL     1      -0.462   3.216  -1.664  0.00  0.00    +0.401 C 
ATOM     29  O   UNL     1       0.364   3.921  -1.119  0.00  0.00    -0.226 OA
ATOM     30  H   UNL     1      -1.386   1.425  -1.612  0.00  0.00    +0.153 HD
BRANCH  28  31
ATOM     31  O   UNL     1      -1.114   3.662  -2.755  0.00  0.00    -0.445 OA
BRANCH  31  32
ATOM     32  C   UNL     1      -0.778   4.995  -3.224  0.00  0.00    +0.107 C 
ATOM     33  C   UNL     1       0.709   5.050  -3.581  0.00  0.00    +0.055 C 
ATOM     34  C   UNL     1      -1.613   5.325  -4.463  0.00  0.00    +0.055 C 
ATOM     35  C   UNL     1      -1.076   6.014  -2.122  0.00  0.00    +0.055 C 
ENDBRANCH  31  32
ENDBRANCH  28  31
ENDBRANCH  26  27
BRANCH  26  37
ATOM     36  C   UNL     1      -0.647   3.522   1.341  0.00  0.00    +0.006 C 
ATOM     37  C   UNL     1      -0.735   1.996   1.269  0.00  0.00    +0.028 C 
ENDBRANCH  26  37
ENDBRANCH  22  26
ENDBRANCH   1  24
TORSDOF 6
