REMARK  Name = ZINC35671595
REMARK  17 active torsions:
REMARK  status: ('A' for Active; 'I' for Inactive)
REMARK    1  A    between atoms: C_1  and  C_2
REMARK    2  A    between atoms: C_2  and  N_3
REMARK    3  A    between atoms: N_3  and  C_4
REMARK    4  A    between atoms: N_3  and  C_6
REMARK    5  A    between atoms: C_4  and  C_5
REMARK    6  A    between atoms: C_6  and  C_8
REMARK    7  A    between atoms: C_6  and  C_26
REMARK    8  A    between atoms: C_8  and  N_9
REMARK    9  A    between atoms: N_9  and  C_10
REMARK   10  A    between atoms: C_11  and  C_24
REMARK   11  A    between atoms: C_13  and  C_15
REMARK   12  A    between atoms: C_15  and  O_16
REMARK   13  A    between atoms: O_16  and  C_17
REMARK   14  A    between atoms: C_29  and  C_32
REMARK   15  A    between atoms: C_32  and  C_33
REMARK   16  A    between atoms: C_32  and  C_34
REMARK   17  A    between atoms: C_32  and  C_35
REMARK                            x       y       z     vdW  Elec       q    Type
REMARK                         _______ _______ _______ _____ _____    ______ ____
ROOT
ATOM      1  C   UNL     1       0.829  -1.062  -1.789  0.00  0.00    +0.094 C 
ENDROOT
BRANCH   1   2
ATOM      2  N   UNL     1       0.196  -2.379  -1.895  0.00  0.00    -0.314 N 
ATOM      3  H   UNL     1      -0.582  -2.499  -2.461  0.00  0.00    +0.149 HD
BRANCH   2   4
ATOM      4  C   UNL     1       0.708  -3.449  -1.190  0.00  0.00    +0.225 A 
ATOM      5  C   UNL     1       0.287  -4.766  -1.263  0.00  0.00    +0.201 A 
ATOM      6  N   UNL     1       1.068  -5.475  -0.400  0.00  0.00    -0.198 NA
ATOM      7  C   UNL     1       1.908  -4.663   0.165  0.00  0.00    +0.237 A 
ATOM      8  O   UNL     1       1.718  -3.418  -0.301  0.00  0.00    -0.421 OA
BRANCH   5   9
ATOM      9  C   UNL     1      -0.765  -5.282  -2.085  0.00  0.00    +0.124 C 
ATOM     10  N   UNL     1      -1.601  -5.692  -2.737  0.00  0.00    -0.189 NA
ENDBRANCH   5   9
BRANCH   7  11
ATOM     11  C   UNL     1       2.945  -5.058   1.184  0.00  0.00    +0.324 C 
BRANCH  11  12
ATOM     12  O   UNL     1       4.158  -5.411   0.517  0.00  0.00    -0.483 OA
BRANCH  12  13
ATOM     13  C   UNL     1       5.203  -5.795   1.298  0.00  0.00    +0.121 A 
ATOM     14  C   UNL     1       5.060  -5.836   2.677  0.00  0.00    +0.047 A 
ATOM     15  C   UNL     1       6.123  -6.226   3.469  0.00  0.00    +0.023 A 
ATOM     16  C   UNL     1       7.329  -6.575   2.888  0.00  0.00    +0.041 A 
ATOM     17  C   UNL     1       7.473  -6.534   1.512  0.00  0.00    +0.023 A 
ATOM     18  C   UNL     1       6.411  -6.151   0.716  0.00  0.00    +0.047 A 
ATOM     19 CL   UNL     1       8.663  -7.064   3.885  0.00  0.00    -0.084 Cl
ENDBRANCH  12  13
ENDBRANCH  11  12
ENDBRANCH   7  11
ENDBRANCH   2   4
ENDBRANCH   1   2
BRANCH   1  20
ATOM     20  C   UNL     1      -0.009  -0.031  -2.547  0.00  0.00    -0.020 C 
BRANCH  20  21
ATOM     21  C   UNL     1       0.573   1.343  -2.337  0.00  0.00    -0.059 A 
ATOM     22  C   UNL     1       1.899   1.483  -1.972  0.00  0.00    +0.002 A 
ATOM     23  C   UNL     1       2.433   2.743  -1.779  0.00  0.00    +0.004 A 
ATOM     24  C   UNL     1       1.642   3.863  -1.952  0.00  0.00    -0.042 A 
ATOM     25  C   UNL     1       0.316   3.723  -2.317  0.00  0.00    +0.004 A 
ATOM     26  C   UNL     1      -0.217   2.463  -2.515  0.00  0.00    +0.002 A 
BRANCH  24  27
ATOM     27  C   UNL     1       2.224   5.237  -1.740  0.00  0.00    -0.013 C 
ATOM     28  C   UNL     1       3.386   5.453  -2.711  0.00  0.00    +0.015 C 
ATOM     29  C   UNL     1       1.145   6.293  -1.993  0.00  0.00    +0.015 C 
ATOM     30  C   UNL     1       2.731   5.361  -0.302  0.00  0.00    +0.015 C 
ENDBRANCH  24  27
ENDBRANCH  20  21
BRANCH  20  31
ATOM     31  N   UNL     1      -1.390  -0.059  -2.048  0.00  0.00    +0.385 N 
ATOM     32  H   UNL     1      -1.627  -0.999  -1.767  0.00  0.00    -0.081 HD
BRANCH  31  34
ATOM     33  C   UNL     1      -0.503   0.434   0.181  0.00  0.00    -0.017 C 
ATOM     34  C   UNL     1      -1.512   0.842  -0.894  0.00  0.00    -0.081 C 
ENDBRANCH  31  34
BRANCH  31  35
ATOM     35  C   UNL     1      -2.305   0.379  -3.111  0.00  0.00    -0.081 C 
ATOM     36  C   UNL     1      -2.338  -0.673  -4.221  0.00  0.00    -0.017 C 
ENDBRANCH  31  35
ENDBRANCH  20  31
ENDBRANCH   1  20
TORSDOF 12
