REMARK  Name = ZINC65386069
REMARK  4 active torsions:
REMARK  status: ('A' for Active; 'I' for Inactive)
REMARK    1  A    between atoms: C_1  and  C_2
REMARK    2  A    between atoms: C_2  and  C_10
REMARK    3  A    between atoms: C_3  and  C_4
REMARK    4  A    between atoms: C_18  and  C_22
REMARK                            x       y       z     vdW  Elec       q    Type
REMARK                         _______ _______ _______ _____ _____    ______ ____
ROOT
ATOM      1  C   UNL     1      -0.089  -0.737  -1.304  0.00  0.00    +0.059 C 
ATOM      2  C   UNL     1       0.829   0.091  -2.208  0.00  0.00    +0.108 C 
ATOM      3  C   UNL     1       0.115   1.297  -2.751  0.00  0.00    +0.219 C 
ATOM      4  O   UNL     1       0.720   2.343  -2.852  0.00  0.00    -0.275 OA
ATOM      5  N   UNL     1      -1.181   1.252  -3.129  0.00  0.00    -0.270 N 
ATOM      6  C   UNL     1      -1.915   0.105  -2.825  0.00  0.00    +0.125 A 
ATOM      7  C   UNL     1      -1.434  -0.855  -1.974  0.00  0.00    +0.027 A 
ATOM      8  C   UNL     1      -2.390  -1.868  -1.883  0.00  0.00    +0.100 A 
ATOM      9  N   UNL     1      -3.420  -1.525  -2.634  0.00  0.00    -0.172 NA
ATOM     10  N   UNL     1      -3.141  -0.280  -3.228  0.00  0.00    -0.263 N 
ATOM     11  H   UNL     1      -3.728   0.214  -3.822  0.00  0.00    +0.190 HD
ATOM     12  H   UNL     1      -1.589   1.995  -3.599  0.00  0.00    +0.156 HD
ENDROOT
BRANCH   8  13
ATOM     13  C   UNL     1      -2.271  -3.111  -1.081  0.00  0.00    +0.021 A 
ATOM     14  C   UNL     1      -3.394  -3.673  -0.470  0.00  0.00    +0.013 A 
ATOM     15  C   UNL     1      -3.230  -4.834   0.267  0.00  0.00    +0.020 A 
ATOM     16  C   UNL     1      -1.970  -5.395   0.372  0.00  0.00    +0.111 A 
ATOM     17  N   UNL     1      -0.928  -4.841  -0.216  0.00  0.00    -0.263 NA
ATOM     18  C   UNL     1      -1.037  -3.740  -0.931  0.00  0.00    +0.120 A 
ENDBRANCH   8  13
BRANCH   1  20
ATOM     19  C   UNL     1      -0.815   1.343   0.097  0.00  0.00    +0.040 C 
ATOM     20  C   UNL     1      -0.244  -0.050   0.029  0.00  0.00    -0.064 C 
ATOM     21  C   UNL     1       0.122  -0.672   1.141  0.00  0.00    +0.007 C 
BRANCH  21  22
ATOM     22  C   UNL     1       0.124   0.056   2.428  0.00  0.00    -0.025 A 
ATOM     23  C   UNL     1      -0.263  -0.593   3.600  0.00  0.00    +0.008 A 
ATOM     24  C   UNL     1      -0.258   0.092   4.798  0.00  0.00    +0.001 A 
ATOM     25  C   UNL     1       0.129   1.420   4.838  0.00  0.00    +0.000 A 
ATOM     26  C   UNL     1       0.513   2.069   3.678  0.00  0.00    +0.001 A 
ATOM     27  C   UNL     1       0.520   1.394   2.475  0.00  0.00    +0.008 A 
ENDBRANCH  21  22
ENDBRANCH   1  20
TORSDOF 3
