REMARK  Name = ZINC46791572
REMARK  9 active torsions:
REMARK  status: ('A' for Active; 'I' for Inactive)
REMARK    1  A    between atoms: C_1  and  C_2
REMARK    2  A    between atoms: C_7  and  C_10
REMARK    3  A    between atoms: C_14  and  C_17
REMARK    4  A    between atoms: C_17  and  N_18
REMARK    5  A    between atoms: C_19  and  C_21
REMARK    6  A    between atoms: C_21  and  N_22
REMARK    7  A    between atoms: N_22  and  C_23
REMARK    8  A    between atoms: N_22  and  S_24
REMARK    9  A    between atoms: S_24  and  C_27
REMARK                            x       y       z     vdW  Elec       q    Type
REMARK                         _______ _______ _______ _____ _____    ______ ____
ROOT
ATOM      1  N   UNL     1       4.638   3.978  -5.162  0.00  0.00    -0.310 N 
ATOM      2  C   UNL     1       5.221   4.826  -6.033  0.00  0.00    +0.229 C 
ATOM      3  O   UNL     1       5.915   4.392  -6.929  0.00  0.00    -0.274 OA
ATOM      4  H   UNL     1       4.083   4.325  -4.446  0.00  0.00    +0.149 HD
ENDROOT
BRANCH   1   5
ATOM      5  C   UNL     1       4.841   2.534  -5.298  0.00  0.00    +0.141 C 
BRANCH   5  17
ATOM      6  C   UNL     1       0.016   1.546   0.045  0.00  0.00    +0.039 C 
ATOM      7  C   UNL     1       0.015   0.016   0.022  0.00  0.00    +0.133 C 
ATOM      8  C   UNL     1       0.716  -0.478  -1.248  0.00  0.00    +0.137 C 
ATOM      9  N   UNL     1       2.143  -0.135  -1.154  0.00  0.00    -0.312 N 
ATOM     10  C   UNL     1       2.865  -0.509   0.072  0.00  0.00    +0.137 C 
ATOM     11  C   UNL     1       2.060  -0.013   1.279  0.00  0.00    +0.133 C 
ATOM     12  O   UNL     1       0.711  -0.479   1.169  0.00  0.00    -0.371 OA
ATOM     13  C   UNL     1       2.684  -0.553   2.567  0.00  0.00    +0.039 C 
ATOM     14  C   UNL     1       2.791   0.524  -2.193  0.00  0.00    +0.099 A 
ATOM     15  C   UNL     1       2.117   0.757  -3.387  0.00  0.00    +0.042 A 
ATOM     16  C   UNL     1       2.773   1.413  -4.413  0.00  0.00    +0.010 A 
ATOM     17  C   UNL     1       4.087   1.816  -4.208  0.00  0.00    -0.014 A 
ATOM     18  C   UNL     1       4.694   1.552  -2.997  0.00  0.00    +0.089 A 
ATOM     19  N   UNL     1       4.042   0.928  -2.034  0.00  0.00    -0.349 N 
ATOM     20  H   UNL     1       4.491   0.759  -1.192  0.00  0.00    +0.167 HD
ENDBRANCH   5  17
ENDBRANCH   1   5
BRANCH   2  21
ATOM     21  C   UNL     1       5.012   6.311  -5.894  0.00  0.00    +0.204 C 
BRANCH  21  22
ATOM     22  N   UNL     1       5.745   7.009  -6.953  0.00  0.00    -0.171 NA
ATOM     23  C   UNL     1       5.133   7.189  -8.271  0.00  0.00    +0.132 C 
BRANCH  22  24
ATOM     24  S   UNL     1       7.266   7.595  -6.659  0.00  0.00    +0.061 S 
ATOM     25  O   UNL     1       7.482   8.648  -7.588  0.00  0.00    -0.153 OA
ATOM     26  O   UNL     1       7.363   7.787  -5.254  0.00  0.00    -0.153 OA
BRANCH  24  27
ATOM     27  C   UNL     1       8.406   6.317  -7.072  0.00  0.00    +0.109 A 
ATOM     28  C   UNL     1       8.791   5.398  -6.113  0.00  0.00    +0.032 A 
ATOM     29  C   UNL     1       9.685   4.395  -6.434  0.00  0.00    +0.051 A 
ATOM     30  C   UNL     1      10.199   4.306  -7.719  0.00  0.00    +0.162 A 
ATOM     31  C   UNL     1       9.810   5.228  -8.684  0.00  0.00    +0.164 A 
ATOM     32  C   UNL     1       8.909   6.230  -8.357  0.00  0.00    +0.078 A 
ATOM     33  O   UNL     1      10.296   5.154  -9.953  0.00  0.00    -0.485 OA
ATOM     34  C   UNL     1      11.473   4.362 -10.147  0.00  0.00    +0.270 C 
ATOM     35  C   UNL     1      11.284   3.030  -9.407  0.00  0.00    +0.270 C 
ATOM     36  O   UNL     1      11.082   3.314  -8.019  0.00  0.00    -0.485 OA
ENDBRANCH  24  27
ENDBRANCH  22  24
ENDBRANCH  21  22
ENDBRANCH   2  21
TORSDOF 6
