REMARK  Name = ZINC35982103
REMARK  5 active torsions:
REMARK  status: ('A' for Active; 'I' for Inactive)
REMARK    1  A    between atoms: C_1  and  O_2
REMARK    2  A    between atoms: O_2  and  C_3
REMARK    3  A    between atoms: C_6  and  N_9
REMARK    4  A    between atoms: C_27  and  C_37
REMARK    5  A    between atoms: C_40  and  O_43
REMARK                            x       y       z     vdW  Elec       q    Type
REMARK                         _______ _______ _______ _____ _____    ______ ____
ROOT
ATOM      1  N   UNL     1      -4.892  -2.582   0.034  0.00  0.00    -0.210 N 
ATOM      2  C   UNL     1      -5.036  -3.953   0.038  0.00  0.00    +0.230 C 
ATOM      3  O   UNL     1      -4.207  -4.792   0.318  0.00  0.00    -0.274 OA
ATOM      4  C   UNL     1      -6.454  -4.160  -0.382  0.00  0.00    +0.091 C 
ATOM      5  C   UNL     1      -7.335  -5.337   0.113  0.00  0.00    +0.007 C 
ATOM      6  C   UNL     1      -8.060  -4.746   1.394  0.00  0.00    +0.010 C 
ATOM      7  C   UNL     1      -8.422  -3.317   0.748  0.00  0.00    +0.016 C 
ATOM      8  C   UNL     1      -7.010  -2.966   0.500  0.00  0.00    +0.092 C 
ATOM      9  C   UNL     1      -6.111  -1.922   0.044  0.00  0.00    +0.230 C 
ATOM     10  O   UNL     1      -6.361  -0.773  -0.251  0.00  0.00    -0.274 OA
ATOM     11  C   UNL     1      -9.254  -3.865  -0.407  0.00  0.00    +0.061 C 
ATOM     12  C   UNL     1      -8.456  -5.118  -0.907  0.00  0.00    +0.019 C 
ATOM     13  C   UNL     1      -9.219  -6.089  -1.694  0.00  0.00    +0.063 C 
ATOM     14  C   UNL     1      -9.806  -5.357  -2.879  0.00  0.00    +0.032 A 
ATOM     15  C   UNL     1      -9.901  -4.029  -3.109  0.00  0.00    +0.087 A 
ATOM     16  N   UNL     1     -10.459  -3.694  -4.319  0.00  0.00    -0.311 N 
ATOM     17  H   UNL     1     -10.542  -2.761  -4.573  0.00  0.00    +0.170 HD
ATOM     18  C   UNL     1     -10.891  -4.658  -5.154  0.00  0.00    +0.289 A 
ATOM     19  O   UNL     1     -11.411  -4.533  -6.249  0.00  0.00    -0.260 OA
ATOM     20  S   UNL     1     -10.541  -6.077  -4.322  0.00  0.00    -0.030 S 
ATOM     21  S   UNL     1      -9.412  -2.790  -1.858  0.00  0.00    -0.103 S 
ENDROOT
BRANCH   1  25
ATOM     22  C   UNL     1      -1.201  -0.638   0.010  0.00  0.00    +0.120 A 
ATOM     23  C   UNL     1      -2.374   0.102   0.019  0.00  0.00    +0.047 A 
ATOM     24  C   UNL     1      -3.596  -0.541   0.027  0.00  0.00    +0.027 A 
ATOM     25  C   UNL     1      -3.650  -1.928   0.026  0.00  0.00    +0.044 A 
ATOM     26  C   UNL     1      -2.476  -2.668   0.016  0.00  0.00    +0.027 A 
ATOM     27  C   UNL     1      -1.254  -2.024   0.003  0.00  0.00    +0.047 A 
BRANCH  22  29
ATOM     28  C   UNL     1      -0.017   1.425   0.010  0.00  0.00    +0.277 C 
ATOM     29  O   UNL     1       0.002  -0.004   0.002  0.00  0.00    -0.495 OA
ENDBRANCH  22  29
ENDBRANCH   1  25
BRANCH  13  30
ATOM     30  C   UNL     1      -8.308  -7.190  -2.171  0.00  0.00    -0.039 A 
ATOM     31  C   UNL     1      -7.223  -6.888  -2.974  0.00  0.00    +0.008 A 
ATOM     32  C   UNL     1      -6.386  -7.896  -3.414  0.00  0.00    +0.045 A 
ATOM     33  C   UNL     1      -6.634  -9.211  -3.048  0.00  0.00    +0.117 A 
ATOM     34  C   UNL     1      -7.723  -9.511  -2.242  0.00  0.00    +0.045 A 
ATOM     35  C   UNL     1      -8.554  -8.499  -1.801  0.00  0.00    +0.008 A 
BRANCH  33  36
ATOM     36  O   UNL     1      -5.813 -10.204  -3.480  0.00  0.00    -0.507 OA
ATOM     37  H   UNL     1      -5.072 -10.386  -2.886  0.00  0.00    +0.292 HD
ENDBRANCH  33  36
ENDBRANCH  13  30
TORSDOF 4
