REMARK  Name = ZINC00898340
REMARK  10 active torsions:
REMARK  status: ('A' for Active; 'I' for Inactive)
REMARK    1  A    between atoms: C_1  and  C_2
REMARK    2  A    between atoms: C_2  and  O_4
REMARK    3  A    between atoms: O_4  and  C_5
REMARK    4  A    between atoms: C_5  and  C_6
REMARK    5  A    between atoms: C_5  and  C_7
REMARK    6  A    between atoms: C_5  and  C_8
REMARK    7  A    between atoms: C_15  and  C_23
REMARK    8  A    between atoms: C_23  and  C_24
REMARK    9  A    between atoms: C_23  and  C_25
REMARK   10  A    between atoms: C_23  and  C_26
REMARK                            x       y       z     vdW  Elec       q    Type
REMARK                         _______ _______ _______ _____ _____    ______ ____
ROOT
ATOM      1  C   UNL     1      -5.000   3.471   7.609  0.00  0.00    +0.221 C 
ATOM      2  C   UNL     1      -4.970   2.417   6.478  0.00  0.00    +0.087 C 
ATOM      3  C   UNL     1      -4.236   3.160   5.377  0.00  0.00    -0.001 A 
ATOM      4  C   UNL     1      -3.640   2.729   4.232  0.00  0.00    +0.019 A 
ATOM      5  C   UNL     1      -3.015   3.650   3.384  0.00  0.00    +0.018 A 
ATOM      6  C   UNL     1      -2.365   3.219   2.146  0.00  0.00    +0.023 A 
ATOM      7  C   UNL     1      -1.772   4.164   1.370  0.00  0.00    +0.047 A 
ATOM      8  C   UNL     1      -1.794   5.515   1.773  0.00  0.00    +0.341 A 
ATOM      9  O   UNL     1      -1.253   6.352   1.071  0.00  0.00    -0.245 OA
ATOM     10  O   UNL     1      -2.398   5.905   2.906  0.00  0.00    -0.422 OA
ATOM     11  C   UNL     1      -3.006   5.017   3.722  0.00  0.00    +0.143 A 
ATOM     12  C   UNL     1      -3.622   5.436   4.890  0.00  0.00    +0.093 A 
ATOM     13  C   UNL     1      -4.243   4.512   5.724  0.00  0.00    +0.128 A 
ATOM     14  O   UNL     1      -4.911   4.714   6.892  0.00  0.00    -0.484 OA
ENDROOT
BRANCH   1  15
ATOM     15  C   UNL     1      -6.312   3.389   8.391  0.00  0.00    +0.145 C 
ATOM     16  C   UNL     1      -6.415   2.024   9.074  0.00  0.00    +0.059 C 
ATOM     17  C   UNL     1      -6.345   4.493   9.450  0.00  0.00    +0.059 C 
BRANCH  15  18
ATOM     18  O   UNL     1      -7.430   3.560   7.480  0.00  0.00    -0.455 OA
BRANCH  18  20
ATOM     19  C   UNL     1      -9.870   3.683   7.127  0.00  0.00    +0.136 C 
ATOM     20  C   UNL     1      -8.662   3.514   8.011  0.00  0.00    +0.305 C 
ATOM     21  O   UNL     1      -8.802   3.337   9.198  0.00  0.00    -0.251 OA
ENDBRANCH  18  20
ENDBRANCH  15  18
ENDBRANCH   1  15
BRANCH   7  22
ATOM     22  C   UNL     1      -1.090   3.769   0.086  0.00  0.00    +0.015 C 
ATOM     23  C   UNL     1       0.388   4.162   0.152  0.00  0.00    +0.020 C 
ATOM     24  C   UNL     1      -1.757   4.487  -1.089  0.00  0.00    +0.020 C 
BRANCH  22  25
ATOM     25  C   UNL     1      -1.205   2.278  -0.106  0.00  0.00    -0.023 C 
ATOM     26  C   UNL     1      -0.124   1.543  -0.189  0.00  0.00    +0.005 C 
ENDBRANCH  22  25
ENDBRANCH   7  22
TORSDOF 5
