REMARK  Name = ZINC40701783
REMARK  4 active torsions:
REMARK  status: ('A' for Active; 'I' for Inactive)
REMARK    1  A    between atoms: C_4  and  N_11
REMARK    2  A    between atoms: C_5  and  C_7
REMARK    3  A    between atoms: C_13  and  N_26
REMARK    4  A    between atoms: C_14  and  N_18
REMARK                            x       y       z     vdW  Elec       q    Type
REMARK                         _______ _______ _______ _____ _____    ______ ____
ROOT
ATOM      1  N   UNL     1       3.621  -0.650  -0.032  0.00  0.00    -0.297 N 
ATOM      2  C   UNL     1       4.811   0.060  -0.146  0.00  0.00    +0.149 A 
ATOM      3  C   UNL     1       6.028  -0.613  -0.275  0.00  0.00    +0.106 A 
ATOM      4  C   UNL     1       7.193   0.148  -0.386  0.00  0.00    +0.150 A 
ATOM      5  N   UNL     1       7.100   1.476  -0.366  0.00  0.00    -0.219 NA
ATOM      6  C   UNL     1       5.931   2.071  -0.243  0.00  0.00    +0.225 A 
ATOM      7  N   UNL     1       4.807   1.391  -0.141  0.00  0.00    -0.219 NA
ATOM      8  H   UNL     1       3.638  -1.617   0.046  0.00  0.00    +0.154 HD
ENDROOT
BRANCH   4   9
ATOM      9  N   UNL     1       8.432  -0.471  -0.516  0.00  0.00    -0.283 N 
ATOM     10  C   UNL     1       9.595   0.293  -0.520  0.00  0.00    +0.124 A 
ATOM     11  C   UNL     1      10.834  -0.338  -0.544  0.00  0.00    +0.045 A 
ATOM     12  C   UNL     1      11.982   0.433  -0.548  0.00  0.00    +0.020 A 
ATOM     13  C   UNL     1      11.852   1.816  -0.529  0.00  0.00    +0.036 A 
ATOM     14  C   UNL     1      10.589   2.376  -0.506  0.00  0.00    +0.128 A 
ATOM     15  N   UNL     1       9.511   1.614  -0.508  0.00  0.00    -0.239 NA
ATOM     16 BR   UNL     1      13.386   2.921  -0.533  0.00  0.00    -0.049 Br
ATOM     17  H   UNL     1       8.485  -1.436  -0.603  0.00  0.00    +0.155 HD
ENDBRANCH   4   9
BRANCH   1  21
ATOM     18  C   UNL     1      -0.019   1.374  -0.028  0.00  0.00    +0.001 A 
ATOM     19  C   UNL     1       1.088   1.946  -0.630  0.00  0.00    +0.002 A 
ATOM     20  C   UNL     1       2.296   1.277  -0.633  0.00  0.00    +0.024 A 
ATOM     21  C   UNL     1       2.400   0.029  -0.031  0.00  0.00    +0.044 A 
ATOM     22  C   UNL     1       1.286  -0.542   0.573  0.00  0.00    +0.076 A 
ATOM     23  C   UNL     1       0.081   0.132   0.572  0.00  0.00    +0.014 A 
BRANCH  22  24
ATOM     24  C   UNL     1       1.393  -1.895   1.227  0.00  0.00    +0.419 C 
ATOM     25  F   UNL     1       0.151  -2.255   1.760  0.00  0.00    -0.166 F 
ATOM     26  F   UNL     1       1.785  -2.843   0.275  0.00  0.00    -0.166 F 
ATOM     27  F   UNL     1       2.344  -1.843   2.252  0.00  0.00    -0.166 F 
ENDBRANCH  22  24
ENDBRANCH   1  21
BRANCH   3  28
ATOM     28  N   UNL     1       6.079  -2.015  -0.290  0.00  0.00    -0.353 N 
ATOM     29  H   UNL     1       5.261  -2.531  -0.212  0.00  0.00    +0.143 HD
ATOM     30  H   UNL     1       6.932  -2.469  -0.380  0.00  0.00    +0.143 HD
ENDBRANCH   3  28
TORSDOF 4
