REMARK  Name = ZINC61873336
REMARK  5 active torsions:
REMARK  status: ('A' for Active; 'I' for Inactive)
REMARK    1  A    between atoms: C_1  and  C_2
REMARK    2  A    between atoms: C_2  and  C_4
REMARK    3  A    between atoms: C_2  and  N_13
REMARK    4  A    between atoms: C_8  and  N_10
REMARK    5  A    between atoms: C_14  and  C_16
REMARK                            x       y       z     vdW  Elec       q    Type
REMARK                         _______ _______ _______ _____ _____    ______ ____
ROOT
ATOM      1  C   UNL     1      -0.019   1.526   0.010  0.00  0.00    +0.033 C 
ATOM      2  C   UNL     1       0.002  -0.004   0.002  0.00  0.00    +0.101 C 
ENDROOT
BRANCH   2   3
ATOM      3  C   UNL     1       0.707  -0.490  -1.238  0.00  0.00    -0.025 A 
ATOM      4  C   UNL     1       0.037  -0.522  -2.447  0.00  0.00    +0.005 A 
ATOM      5  C   UNL     1       0.684  -0.967  -3.584  0.00  0.00    +0.003 A 
ATOM      6  C   UNL     1       2.002  -1.381  -3.513  0.00  0.00    +0.033 A 
ATOM      7  C   UNL     1       2.672  -1.349  -2.304  0.00  0.00    +0.127 A 
ATOM      8  C   UNL     1       2.026  -0.899  -1.167  0.00  0.00    +0.038 A 
BRANCH   7   9
ATOM      9  N   UNL     1       4.082  -1.792  -2.228  0.00  0.00    +0.056 N 
ATOM     10  O   UNL     1       4.647  -2.183  -3.222  0.00  0.00    -0.126 OA
ATOM     11  O   UNL     1       4.668  -1.764  -1.171  0.00  0.00    -0.126 OA
ENDBRANCH   7   9
ENDBRANCH   2   3
BRANCH   2  12
ATOM     12  N   UNL     1      -1.372  -0.511   0.012  0.00  0.00    -0.304 N 
ATOM     13  C   UNL     1      -2.029  -0.655   1.181  0.00  0.00    +0.263 C 
ATOM     14  O   UNL     1      -1.480  -0.364   2.225  0.00  0.00    -0.269 OA
ATOM     15  H   UNL     1      -1.810  -0.743  -0.822  0.00  0.00    +0.150 HD
BRANCH  13  16
ATOM     16  C   UNL     1      -3.418  -1.168   1.191  0.00  0.00    +0.125 A 
ATOM     17  C   UNL     1      -4.093  -1.309   2.402  0.00  0.00    +0.034 A 
ATOM     18  C   UNL     1      -5.392  -1.790   2.397  0.00  0.00    +0.019 A 
ATOM     19  C   UNL     1      -5.973  -2.113   1.179  0.00  0.00    +0.036 A 
ATOM     20  C   UNL     1      -5.242  -1.947   0.012  0.00  0.00    +0.126 A 
ATOM     21  N   UNL     1      -4.012  -1.484   0.047  0.00  0.00    -0.249 NA
ATOM     22 BR   UNL     1      -7.743  -2.775   1.110  0.00  0.00    -0.049 Br
ENDBRANCH  13  16
ENDBRANCH   2  12
TORSDOF 4
