REMARK  Name = ZINC10000748
REMARK  11 active torsions:
REMARK  status: ('A' for Active; 'I' for Inactive)
REMARK    1  A    between atoms: C_1  and  C_2
REMARK    2  A    between atoms: C_6  and  C_8
REMARK    3  A    between atoms: C_8  and  N_9
REMARK    4  A    between atoms: C_11  and  C_18
REMARK    5  A    between atoms: N_19  and  N_20
REMARK    6  A    between atoms: C_21  and  C_23
REMARK    7  A    between atoms: C_23  and  C_25
REMARK    8  A    between atoms: C_23  and  N_28
REMARK    9  A    between atoms: C_25  and  C_26
REMARK   10  A    between atoms: C_25  and  C_27
REMARK   11  A    between atoms: C_29  and  C_31
REMARK                            x       y       z     vdW  Elec       q    Type
REMARK                         _______ _______ _______ _____ _____    ______ ____
ROOT
ATOM      1  C   UNL     1      -2.831   5.516   0.794  0.00  0.00    +0.140 C 
ATOM      2  N   UNL     1      -1.983   6.343   0.261  0.00  0.00    -0.188 NA
ENDROOT
BRANCH   1   5
ATOM      3  N   UNL     1      -1.046   2.802   2.467  0.00  0.00    -0.342 N 
ATOM      4  C   UNL     1      -1.116   4.066   1.964  0.00  0.00    +0.096 A 
ATOM      5  C   UNL     1      -2.351   4.281   1.434  0.00  0.00    +0.020 A 
ATOM      6  C   UNL     1      -3.118   3.039   1.639  0.00  0.00    +0.009 A 
ATOM      7  C   UNL     1      -2.247   2.149   2.290  0.00  0.00    +0.050 A 
ATOM      8  C   UNL     1      -2.694   0.873   2.615  0.00  0.00    +0.026 A 
ATOM      9  C   UNL     1      -3.983   0.497   2.307  0.00  0.00    +0.002 A 
ATOM     10  C   UNL     1      -4.844   1.379   1.669  0.00  0.00    +0.001 A 
ATOM     11  C   UNL     1      -4.419   2.646   1.335  0.00  0.00    +0.010 A 
BRANCH   3  12
ATOM     12  C   UNL     1       0.137   2.219   3.106  0.00  0.00    +0.157 C 
BRANCH  12  18
ATOM     13  C   UNL     1       3.793   1.943  -0.301  0.00  0.00    +0.044 C 
ATOM     14  C   UNL     1       2.666   1.293   0.460  0.00  0.00    -0.050 A 
ATOM     15  C   UNL     1       2.347  -0.032   0.226  0.00  0.00    +0.003 A 
ATOM     16  C   UNL     1       1.314  -0.628   0.923  0.00  0.00    +0.001 A 
ATOM     17  C   UNL     1       0.601   0.100   1.859  0.00  0.00    +0.005 A 
ATOM     18  C   UNL     1       0.917   1.425   2.089  0.00  0.00    -0.028 A 
ATOM     19  C   UNL     1       1.951   2.021   1.392  0.00  0.00    +0.008 A 
ENDBRANCH  12  18
ENDBRANCH   3  12
ENDBRANCH   1   5
BRANCH   2  20
ATOM     20  N   UNL     1      -0.636   5.981   0.135  0.00  0.00    -0.205 N 
ATOM     21  C   UNL     1       0.262   6.874  -0.326  0.00  0.00    +0.253 C 
ATOM     22  O   UNL     1      -0.080   8.017  -0.551  0.00  0.00    -0.272 OA
ATOM     23  H   UNL     1      -0.349   5.087   0.380  0.00  0.00    +0.177 HD
BRANCH  21  24
ATOM     24  C   UNL     1       1.690   6.454  -0.563  0.00  0.00    +0.163 C 
BRANCH  24  25
ATOM     25  N   UNL     1       2.566   7.623  -0.460  0.00  0.00    -0.300 N 
ATOM     26  C   UNL     1       3.864   7.466  -0.133  0.00  0.00    +0.245 C 
ATOM     27  O   UNL     1       4.307   6.354   0.078  0.00  0.00    -0.270 OA
ATOM     28  H   UNL     1       2.212   8.511  -0.628  0.00  0.00    +0.150 HD
BRANCH  26  29
ATOM     29  C   UNL     1       4.749   8.646  -0.029  0.00  0.00    +0.038 A 
ATOM     30  C   UNL     1       6.093   8.487   0.310  0.00  0.00    +0.013 A 
ATOM     31  C   UNL     1       6.914   9.591   0.405  0.00  0.00    +0.002 A 
ATOM     32  C   UNL     1       6.408  10.856   0.164  0.00  0.00    +0.020 A 
ATOM     33  C   UNL     1       5.075  11.022  -0.173  0.00  0.00    +0.042 A 
ATOM     34  C   UNL     1       4.244   9.924  -0.276  0.00  0.00    +0.033 A 
ATOM     35 CL   UNL     1       4.449  12.613  -0.475  0.00  0.00    -0.084 Cl
ENDBRANCH  26  29
ENDBRANCH  24  25
BRANCH  24  36
ATOM     36  C   UNL     1       1.817   5.843  -1.960  0.00  0.00    +0.012 C 
ATOM     37  C   UNL     1       3.266   5.415  -2.200  0.00  0.00    +0.009 C 
ATOM     38  C   UNL     1       0.900   4.622  -2.067  0.00  0.00    +0.009 C 
ENDBRANCH  24  36
ENDBRANCH  21  24
ENDBRANCH   2  20
TORSDOF 8
