REMARK  Name = ZINC19911312
REMARK  3 active torsions:
REMARK  status: ('A' for Active; 'I' for Inactive)
REMARK    1  A    between atoms: C_3  and  N_10
REMARK    2  A    between atoms: C_6  and  C_7
REMARK    3  A    between atoms: N_10  and  C_11
REMARK                            x       y       z     vdW  Elec       q    Type
REMARK                         _______ _______ _______ _____ _____    ______ ____
ROOT
ATOM      1  N   UNL     1       3.575   2.130  -0.021  0.00  0.00    -0.329 N 
ATOM      2  H   UNL     1       3.561   3.100  -0.016  0.00  0.00    +0.147 HD
ENDROOT
BRANCH   1   3
ATOM      3  C   UNL     1       4.854   1.416  -0.037  0.00  0.00    +0.190 C 
ATOM      4  C   UNL     1       5.946   2.298  -0.599  0.00  0.00    +0.004 A 
ATOM      5  C   UNL     1       6.124   2.902  -1.823  0.00  0.00    +0.023 A 
ATOM      6  C   UNL     1       7.251   3.672  -2.056  0.00  0.00    +0.018 A 
ATOM      7  C   UNL     1       8.194   3.830  -1.055  0.00  0.00    +0.017 A 
ATOM      8  C   UNL     1       8.018   3.225   0.172  0.00  0.00    +0.025 A 
ATOM      9  C   UNL     1       6.885   2.450   0.413  0.00  0.00    +0.039 A 
ATOM     10  N   UNL     1       6.486   1.748   1.551  0.00  0.00    -0.283 N 
ATOM     11  C   UNL     1       5.311   1.114   1.374  0.00  0.00    +0.242 C 
ATOM     12  O   UNL     1       4.727   0.431   2.189  0.00  0.00    -0.273 OA
ATOM     13 BR   UNL     1       7.502   4.503  -3.736  0.00  0.00    -0.050 Br
ATOM     14  H   UNL     1       6.996   1.719   2.376  0.00  0.00    +0.155 HD
ENDBRANCH   1   3
BRANCH   1  17
ATOM     15  C   UNL     1      -0.017   1.394   0.010  0.00  0.00    +0.015 A 
ATOM     16  C   UNL     1       1.166   2.096   0.002  0.00  0.00    +0.023 A 
ATOM     17  C   UNL     1       2.381   1.417  -0.013  0.00  0.00    +0.028 A 
ATOM     18  C   UNL     1       2.403   0.025  -0.021  0.00  0.00    +0.023 A 
ATOM     19  C   UNL     1       1.224  -0.684  -0.014  0.00  0.00    +0.015 A 
ATOM     20  C   UNL     1       0.002  -0.004   0.002  0.00  0.00    +0.037 A 
BRANCH  20  21
ATOM     21  C   UNL     1      -1.264  -0.760   0.011  0.00  0.00    +0.242 C 
ATOM     22  O   UNL     1      -2.326  -0.168   0.024  0.00  0.00    -0.270 OA
ATOM     23  N   UNL     1      -1.244  -2.108   0.003  0.00  0.00    -0.325 N 
ATOM     24  H   UNL     1      -0.397  -2.581  -0.008  0.00  0.00    +0.145 HD
ATOM     25  H   UNL     1      -2.077  -2.606   0.009  0.00  0.00    +0.145 HD
ENDBRANCH  20  21
ENDBRANCH   1  17
TORSDOF 3
