REMARK  Name = ZINC42858070
REMARK  6 active torsions:
REMARK  status: ('A' for Active; 'I' for Inactive)
REMARK    1  A    between atoms: C_1  and  C_2
REMARK    2  A    between atoms: C_4  and  C_26
REMARK    3  A    between atoms: C_5  and  C_9
REMARK    4  A    between atoms: C_7  and  C_8
REMARK    5  A    between atoms: C_10  and  C_11
REMARK    6  A    between atoms: C_16  and  C_19
REMARK                            x       y       z     vdW  Elec       q    Type
REMARK                         _______ _______ _______ _____ _____    ______ ____
ROOT
ATOM      1  C   UNL     1       0.172  -4.219   2.403  0.00  0.00    +0.239 C 
ATOM      2  O   UNL     1      -0.037  -3.020   2.416  0.00  0.00    -0.271 OA
ATOM      3  N   UNL     1       0.389  -4.879   3.558  0.00  0.00    -0.298 N 
ATOM      4  C   UNL     1       0.534  -6.341   3.569  0.00  0.00    +0.109 C 
ATOM      5  C   UNL     1      -0.458  -6.927   4.579  0.00  0.00    +0.032 C 
ATOM      6  C   UNL     1      -0.245  -6.263   5.941  0.00  0.00    +0.078 C 
ATOM      7  C   UNL     1      -0.506  -4.760   5.825  0.00  0.00    +0.032 C 
ATOM      8  C   UNL     1       0.491  -4.149   4.829  0.00  0.00    +0.109 C 
ENDROOT
BRANCH   6   9
ATOM      9  C   UNL     1      -1.196  -6.862   6.945  0.00  0.00    +0.219 C 
ATOM     10  O   UNL     1      -2.323  -6.426   7.047  0.00  0.00    -0.275 OA
ATOM     11  N   UNL     1      -0.794  -7.881   7.730  0.00  0.00    -0.301 N 
ATOM     12  C   UNL     1       0.568  -8.431   7.790  0.00  0.00    +0.108 C 
ATOM     13  C   UNL     1       0.548  -9.596   8.802  0.00  0.00    +0.020 C 
ATOM     14  C   UNL     1      -0.949 -10.002   8.834  0.00  0.00    +0.020 C 
ATOM     15  C   UNL     1      -1.646  -8.626   8.675  0.00  0.00    +0.108 C 
ENDBRANCH   6   9
BRANCH   1  17
ATOM     16  C   UNL     1       0.096  -4.269  -0.032  0.00  0.00    +0.013 C 
ATOM     17  C   UNL     1       0.186  -4.945   1.131  0.00  0.00    +0.068 C 
BRANCH  16  22
ATOM     18  C   UNL     1       0.479   1.467  -0.061  0.00  0.00    +0.044 C 
ATOM     19  C   UNL     1       0.379  -0.037  -0.053  0.00  0.00    -0.047 A 
ATOM     20  C   UNL     1      -0.605  -0.665  -0.797  0.00  0.00    +0.007 A 
ATOM     21  C   UNL     1      -0.704  -2.040  -0.796  0.00  0.00    -0.043 A 
ATOM     22  C   UNL     1       0.194  -2.801  -0.040  0.00  0.00    -0.022 A 
ATOM     23  C   UNL     1       1.185  -2.159   0.709  0.00  0.00    +0.011 A 
ATOM     24  C   UNL     1       1.274  -0.783   0.693  0.00  0.00    -0.047 A 
ATOM     25  C   UNL     1       2.345  -0.089   1.494  0.00  0.00    +0.044 C 
ATOM     26  C   UNL     1      -1.776  -2.722  -1.606  0.00  0.00    +0.044 C 
ENDBRANCH  16  22
ENDBRANCH   1  17
TORSDOF 3
