REMARK  Name = ZINC19804912
REMARK  11 active torsions:
REMARK  status: ('A' for Active; 'I' for Inactive)
REMARK    1  A    between atoms: C_1  and  N_2
REMARK    2  A    between atoms: N_2  and  C_3
REMARK    3  A    between atoms: N_2  and  C_4
REMARK    4  A    between atoms: C_4  and  C_5
REMARK    5  A    between atoms: C_5  and  N_6
REMARK    6  A    between atoms: N_6  and  C_7
REMARK    7  A    between atoms: C_7  and  C_8
REMARK    8  A    between atoms: C_8  and  C_10
REMARK    9  A    between atoms: C_8  and  O_34
REMARK   10  A    between atoms: C_10  and  N_11
REMARK   11  A    between atoms: C_18  and  C_28
REMARK                            x       y       z     vdW  Elec       q    Type
REMARK                         _______ _______ _______ _____ _____    ______ ____
ROOT
ATOM      1  N   UNL     1      -5.364  -6.648  -0.843  0.00  0.00    -0.290 NA
ATOM      2  C   UNL     1      -6.038  -6.118  -2.037  0.00  0.00    +0.106 C 
ATOM      3  C   UNL     1      -7.553  -6.338  -1.966  0.00  0.00    +0.137 C 
ATOM      4  N   UNL     1      -7.796  -7.745  -1.612  0.00  0.00    -0.341 N 
ATOM      5  C   UNL     1      -8.936  -8.488  -1.692  0.00  0.00    +0.050 A 
ATOM      6  C   UNL     1     -10.215  -8.184  -2.153  0.00  0.00    +0.027 A 
ATOM      7  C   UNL     1     -11.166  -9.187  -2.090  0.00  0.00    +0.006 A 
ATOM      8  C   UNL     1     -10.876 -10.447  -1.593  0.00  0.00    -0.044 A 
ATOM      9  C   UNL     1      -9.627 -10.780  -1.133  0.00  0.00    +0.014 A 
ATOM     10  C   UNL     1      -8.642  -9.788  -1.184  0.00  0.00    +0.004 A 
ATOM     11  C   UNL     1      -7.253  -9.765  -0.811  0.00  0.00    -0.017 A 
ATOM     12  C   UNL     1      -6.800  -8.530  -1.103  0.00  0.00    +0.040 A 
ATOM     13  C   UNL     1      -5.364  -8.125  -0.855  0.00  0.00    +0.104 C 
ATOM     14  C   UNL     1      -4.944  -8.676   0.498  0.00  0.00    +0.025 C 
ATOM     15  C   UNL     1      -5.444 -10.059   0.839  0.00  0.00    +0.007 C 
ATOM     16  C   UNL     1      -6.305 -10.760  -0.201  0.00  0.00    +0.037 C 
ENDROOT
BRANCH   8  17
ATOM     17  C   UNL     1     -11.968 -11.485  -1.555  0.00  0.00    +0.019 C 
ATOM     18  C   UNL     1     -13.120 -10.983  -0.682  0.00  0.00    +0.008 C 
ATOM     19  C   UNL     1     -14.228 -12.037  -0.644  0.00  0.00    +0.001 C 
ATOM     20  C   UNL     1     -14.738 -12.292  -2.064  0.00  0.00    +0.000 C 
ATOM     21  C   UNL     1     -13.587 -12.794  -2.937  0.00  0.00    +0.001 C 
ATOM     22  C   UNL     1     -12.478 -11.740  -2.975  0.00  0.00    +0.008 C 
ENDBRANCH   8  17
BRANCH   1  23
ATOM     23  C   UNL     1      -3.996  -6.123  -0.734  0.00  0.00    +0.114 C 
BRANCH  23  24
ATOM     24  C   UNL     1      -4.047  -4.616  -0.475  0.00  0.00    +0.112 C 
BRANCH  24  25
ATOM     25  O   UNL     1      -4.648  -4.372   0.798  0.00  0.00    -0.392 OA
ATOM     26  H   UNL     1      -4.175  -4.773   1.540  0.00  0.00    +0.210 HD
ENDBRANCH  24  25
BRANCH  24  27
ATOM     27  C   UNL     1      -2.626  -4.048  -0.486  0.00  0.00    -0.050 C 
BRANCH  27  28
ATOM     28  N   UNL     1      -2.675  -2.601  -0.237  0.00  0.00    +0.382 N 
ATOM     29  H   UNL     1      -3.100  -2.429   0.662  0.00  0.00    -0.086 HD
ATOM     30  H   UNL     1      -3.221  -2.154  -0.958  0.00  0.00    -0.086 HD
BRANCH  28  31
ATOM     31  C   UNL     1      -1.311  -2.056  -0.247  0.00  0.00    -0.067 C 
BRANCH  31  32
ATOM     32  C   UNL     1      -1.362  -0.549   0.012  0.00  0.00    +0.065 C 
BRANCH  32  34
ATOM     33  C   UNL     1      -0.018   1.465   0.010  0.00  0.00    +0.104 C 
ATOM     34  N   UNL     1       0.002  -0.004   0.002  0.00  0.00    -0.310 NA
ATOM     35  C   UNL     1       0.786  -0.526   1.129  0.00  0.00    +0.104 C 
ENDBRANCH  32  34
ENDBRANCH  31  32
ENDBRANCH  28  31
ENDBRANCH  27  28
ENDBRANCH  24  27
ENDBRANCH  23  24
ENDBRANCH   1  23
TORSDOF 9
