REMARK  Name = ZINC07300866
REMARK  9 active torsions:
REMARK  status: ('A' for Active; 'I' for Inactive)
REMARK    1  A    between atoms: C_1  and  C_2
REMARK    2  A    between atoms: C_2  and  C_4
REMARK    3  A    between atoms: C_2  and  O_14
REMARK    4  A    between atoms: N_9  and  C_10
REMARK    5  A    between atoms: C_10  and  C_11
REMARK    6  A    between atoms: C_10  and  C_12
REMARK    7  A    between atoms: C_10  and  C_13
REMARK    8  A    between atoms: O_14  and  C_15
REMARK    9  A    between atoms: C_15  and  C_17
REMARK                            x       y       z     vdW  Elec       q    Type
REMARK                         _______ _______ _______ _____ _____    ______ ____
ROOT
ATOM      1  C   UNL     1       7.839   3.028   1.381  0.00  0.00    +0.062 C 
ATOM      2  C   UNL     1       7.340   2.873  -0.057  0.00  0.00    +0.259 C 
ENDROOT
BRANCH   2   3
ATOM      3  C   UNL     1       8.198   1.867  -0.781  0.00  0.00    +0.261 C 
ATOM      4  O   UNL     1       7.698   0.863  -1.241  0.00  0.00    -0.271 OA
ATOM      5  N   UNL     1       9.522   2.084  -0.917  0.00  0.00    -0.237 N 
ATOM      6  C   UNL     1      10.289   1.185  -1.564  0.00  0.00    +0.306 C 
ATOM      7  O   UNL     1       9.787   0.178  -2.025  0.00  0.00    -0.252 OA
ATOM      8  N   UNL     1      11.612   1.401  -1.700  0.00  0.00    -0.294 N 
ATOM      9  H   UNL     1       9.922   2.887  -0.548  0.00  0.00    +0.159 HD
ATOM     10  H   UNL     1      12.012   2.205  -1.332  0.00  0.00    +0.151 HD
BRANCH   8  11
ATOM     11  C   UNL     1      12.446   0.424  -2.403  0.00  0.00    +0.028 C 
ATOM     12  C   UNL     1      11.947   0.269  -3.841  0.00  0.00    +0.031 C 
ATOM     13  C   UNL     1      13.898   0.907  -2.416  0.00  0.00    +0.031 C 
ATOM     14  C   UNL     1      12.364  -0.926  -1.687  0.00  0.00    +0.031 C 
ENDBRANCH   8  11
ENDBRANCH   2   3
BRANCH   2  15
ATOM     15  O   UNL     1       5.963   2.414  -0.045  0.00  0.00    -0.448 OA
BRANCH  15  16
ATOM     16  C   UNL     1       5.003   3.361  -0.030  0.00  0.00    +0.347 C 
ATOM     17  O   UNL     1       5.309   4.538  -0.029  0.00  0.00    -0.244 OA
BRANCH  16  18
ATOM     18  C   UNL     1       3.588   2.971  -0.018  0.00  0.00    +0.097 A 
ATOM     19  C   UNL     1       2.488   3.771  -0.003  0.00  0.00    +0.034 A 
ATOM     20  C   UNL     1       1.204   3.199   0.007  0.00  0.00    +0.025 A 
ATOM     21  C   UNL     1      -0.054   3.861   0.023  0.00  0.00    +0.132 A 
ATOM     22  C   UNL     1      -1.220   3.142   0.030  0.00  0.00    +0.039 A 
ATOM     23  C   UNL     1      -1.215   1.752   0.017  0.00  0.00    +0.004 A 
ATOM     24  C   UNL     1      -0.013   1.076   0.008  0.00  0.00    +0.016 A 
ATOM     25  C   UNL     1       1.170   1.784   0.001  0.00  0.00    +0.023 A 
ATOM     26  S   UNL     1       2.886   1.330  -0.019  0.00  0.00    -0.082 S 
ATOM     27  F   UNL     1      -0.099   5.211   0.030  0.00  0.00    -0.205 F 
ENDBRANCH  16  18
ENDBRANCH  15  16
ENDBRANCH   2  15
TORSDOF 5
