REMARK  Name = ZINC34773035
REMARK  6 active torsions:
REMARK  status: ('A' for Active; 'I' for Inactive)
REMARK    1  A    between atoms: C_1  and  C_2
REMARK    2  A    between atoms: C_2  and  C_3
REMARK    3  A    between atoms: C_2  and  C_4
REMARK    4  A    between atoms: C_2  and  C_5
REMARK    5  A    between atoms: C_12  and  N_16
REMARK    6  A    between atoms: C_13  and  C_14
REMARK                            x       y       z     vdW  Elec       q    Type
REMARK                         _______ _______ _______ _____ _____    ______ ____
ROOT
ATOM      1  C   UNL     1       0.722  -0.501  -1.251  0.00  0.00    -0.000 C 
ATOM      2  C   UNL     1       0.752  -2.032  -1.254  0.00  0.00    +0.009 C 
ATOM      3  C   UNL     1       1.240  -2.540  -2.613  0.00  0.00    +0.037 C 
ATOM      4  C   UNL     1       2.550  -1.844  -2.952  0.00  0.00    -0.018 A 
ATOM      5  C   UNL     1       2.923  -0.706  -2.326  0.00  0.00    -0.004 A 
ATOM      6  S   UNL     1       4.484  -0.290  -3.046  0.00  0.00    -0.077 S 
ATOM      7  C   UNL     1       4.647  -1.561  -4.132  0.00  0.00    +0.091 A 
ATOM      8  C   UNL     1       3.500  -2.314  -3.946  0.00  0.00    +0.084 A 
ATOM      9  C   UNL     1       2.164   0.028  -1.264  0.00  0.00    +0.047 C 
ENDROOT
BRANCH   7  10
ATOM     10  N   UNL     1       5.692  -1.802  -5.013  0.00  0.00    -0.263 N 
ATOM     11  C   UNL     1       6.741  -0.956  -5.062  0.00  0.00    +0.307 C 
ATOM     12  O   UNL     1       6.730   0.065  -4.401  0.00  0.00    -0.252 OA
ATOM     13  N   UNL     1       7.801  -1.243  -5.843  0.00  0.00    -0.281 N 
ATOM     14  C   UNL     1       7.788  -2.408  -6.741  0.00  0.00    +0.137 C 
ATOM     15  C   UNL     1       8.206  -1.944  -8.141  0.00  0.00    +0.179 C 
ATOM     16  O   UNL     1       9.439  -1.226  -8.051  0.00  0.00    -0.377 OA
ATOM     17  C   UNL     1       9.365  -0.033  -7.267  0.00  0.00    +0.179 C 
ATOM     18  C   UNL     1       9.005  -0.396  -5.826  0.00  0.00    +0.137 C 
ATOM     19  H   UNL     1       5.668  -2.578  -5.594  0.00  0.00    +0.157 HD
ENDBRANCH   7  10
BRANCH   1  21
ATOM     20  C   UNL     1      -0.018   1.524   0.013  0.00  0.00    +0.011 C 
ATOM     21  C   UNL     1       0.006  -0.006   0.008  0.00  0.00    -0.035 C 
ATOM     22  C   UNL     1       0.749  -0.508   1.248  0.00  0.00    +0.011 C 
ATOM     23  C   UNL     1      -1.428  -0.539   0.022  0.00  0.00    +0.011 C 
ENDBRANCH   1  21
BRANCH   8  24
ATOM     24  C   UNL     1       3.260  -3.506  -4.701  0.00  0.00    +0.102 C 
ATOM     25  N   UNL     1       3.069  -4.452  -5.301  0.00  0.00    -0.191 NA
ENDBRANCH   8  24
TORSDOF 3
