REMARK  Name = ZINC64790056
REMARK  7 active torsions:
REMARK  status: ('A' for Active; 'I' for Inactive)
REMARK    1  A    between atoms: C_1  and  C_2
REMARK    2  A    between atoms: C_6  and  N_8
REMARK    3  A    between atoms: C_9  and  C_19
REMARK    4  A    between atoms: C_19  and  C_20
REMARK    5  A    between atoms: N_28  and  C_31
REMARK    6  A    between atoms: C_31  and  C_32
REMARK    7  A    between atoms: C_31  and  C_33
REMARK                            x       y       z     vdW  Elec       q    Type
REMARK                         _______ _______ _______ _____ _____    ______ ____
ROOT
ATOM      1  N   UNL     1       0.272  -2.829   2.393  0.00  0.00    -0.264 N 
ATOM      2  C   UNL     1      -0.026  -4.156   2.379  0.00  0.00    +0.119 A 
ATOM      3  N   UNL     1      -0.226  -4.853   3.456  0.00  0.00    -0.233 NA
ATOM      4  C   UNL     1      -0.150  -4.294   4.690  0.00  0.00    +0.078 A 
ATOM      5  C   UNL     1      -0.365  -5.044   5.848  0.00  0.00    +0.028 A 
ATOM      6  C   UNL     1      -0.278  -4.436   7.080  0.00  0.00    +0.002 A 
ATOM      7  C   UNL     1       0.021  -3.083   7.186  0.00  0.00    +0.001 A 
ATOM      8  C   UNL     1       0.237  -2.323   6.059  0.00  0.00    +0.015 A 
ATOM      9  C   UNL     1       0.154  -2.919   4.802  0.00  0.00    +0.065 A 
ATOM     10  C   UNL     1       0.380  -2.159   3.564  0.00  0.00    +0.266 A 
ATOM     11  O   UNL     1       0.651  -0.973   3.591  0.00  0.00    -0.267 OA
ENDROOT
BRANCH   1  17
ATOM     12  C   UNL     1      -1.581  -0.832  -1.701  0.00  0.00    +0.044 C 
ATOM     13  C   UNL     1      -0.406  -1.170  -0.819  0.00  0.00    -0.048 A 
ATOM     14  C   UNL     1       0.873  -0.810  -1.203  0.00  0.00    +0.003 A 
ATOM     15  C   UNL     1       1.952  -1.119  -0.397  0.00  0.00    +0.002 A 
ATOM     16  C   UNL     1       1.756  -1.787   0.796  0.00  0.00    +0.026 A 
ATOM     17  C   UNL     1       0.474  -2.150   1.184  0.00  0.00    +0.051 A 
ATOM     18  C   UNL     1      -0.609  -1.835   0.374  0.00  0.00    +0.029 A 
ENDBRANCH   1  17
BRANCH   2  19
ATOM     19  C   UNL     1      -0.129  -4.853   1.047  0.00  0.00    +0.092 C 
BRANCH  19  20
ATOM     20  C   UNL     1      -0.331  -6.353   1.270  0.00  0.00    +0.114 C 
ATOM     21  C   UNL     1      -0.513  -7.065  -0.051  0.00  0.00    -0.014 A 
ATOM     22  C   UNL     1      -1.455  -6.959  -1.049  0.00  0.00    +0.006 A 
ATOM     23  C   UNL     1      -1.363  -7.762  -2.173  0.00  0.00    +0.000 A 
ATOM     24  C   UNL     1      -0.325  -8.668  -2.288  0.00  0.00    +0.002 A 
ATOM     25  C   UNL     1       0.620  -8.776  -1.289  0.00  0.00    +0.024 A 
ATOM     26  C   UNL     1       0.535  -7.971  -0.154  0.00  0.00    +0.040 A 
ATOM     27  N   UNL     1       1.353  -7.893   0.973  0.00  0.00    -0.268 N 
ATOM     28  C   UNL     1       0.919  -6.974   1.857  0.00  0.00    +0.228 C 
ATOM     29  O   UNL     1       1.431  -6.695   2.920  0.00  0.00    -0.275 OA
BRANCH  27  30
ATOM     30  C   UNL     1       2.547  -8.718   1.174  0.00  0.00    +0.075 C 
ATOM     31  C   UNL     1       3.773  -7.815   1.315  0.00  0.00    +0.028 C 
ATOM     32  C   UNL     1       2.381  -9.555   2.445  0.00  0.00    +0.028 C 
ENDBRANCH  27  30
ENDBRANCH  19  20
ENDBRANCH   2  19
TORSDOF 4
