REMARK  Name = ZINC63375957
REMARK  7 active torsions:
REMARK  status: ('A' for Active; 'I' for Inactive)
REMARK    1  A    between atoms: C_1  and  C_2
REMARK    2  A    between atoms: C_2  and  C_3
REMARK    3  A    between atoms: C_3  and  C_5
REMARK    4  A    between atoms: C_3  and  N_6
REMARK    5  A    between atoms: C_7  and  C_9
REMARK    6  A    between atoms: C_14  and  N_15
REMARK    7  A    between atoms: C_31  and  C_36
REMARK                            x       y       z     vdW  Elec       q    Type
REMARK                         _______ _______ _______ _____ _____    ______ ____
ROOT
ATOM      1  N   UNL     1       1.808   0.498  -6.564  0.00  0.00    -0.192 N 
ATOM      2  C   UNL     1       2.345  -0.712  -6.824  0.00  0.00    +0.248 C 
ATOM      3  O   UNL     1       1.751  -1.737  -7.081  0.00  0.00    -0.273 OA
ATOM      4  C   UNL     1       3.843  -0.524  -6.726  0.00  0.00    +0.169 C 
ATOM      5  C   UNL     1       4.421  -1.461  -5.650  0.00  0.00    +0.065 C 
ATOM      6  C   UNL     1       5.719  -0.836  -5.195  0.00  0.00    -0.034 C 
ATOM      7  C   UNL     1       6.948  -1.338  -5.134  0.00  0.00    -0.001 A 
ATOM      8  C   UNL     1       7.464  -2.692  -5.390  0.00  0.00    +0.010 A 
ATOM      9  C   UNL     1       8.806  -2.858  -5.250  0.00  0.00    +0.001 A 
ATOM     10  C   UNL     1       9.675  -1.825  -4.884  0.00  0.00    +0.002 A 
ATOM     11  C   UNL     1       9.286  -0.552  -4.622  0.00  0.00    +0.026 A 
ATOM     12  C   UNL     1       7.895  -0.256  -4.730  0.00  0.00    +0.043 A 
ATOM     13  N   UNL     1       7.253   0.855  -4.520  0.00  0.00    -0.375 N 
ATOM     14  C   UNL     1       5.823   0.605  -4.710  0.00  0.00    +0.131 C 
ATOM     15  C   UNL     1       5.238   1.492  -5.818  0.00  0.00    +0.135 C 
ATOM     16  N   UNL     1       3.980   0.873  -6.268  0.00  0.00    -0.264 N 
ATOM     17  C   UNL     1       2.752   1.408  -6.283  0.00  0.00    +0.317 C 
ATOM     18  O   UNL     1       2.520   2.580  -6.064  0.00  0.00    -0.252 OA
ATOM     19  H   UNL     1       7.654   1.705  -4.279  0.00  0.00    +0.160 HD
ENDROOT
BRANCH  15  20
ATOM     20  C   UNL     1       4.971   2.876  -5.283  0.00  0.00    -0.025 A 
ATOM     21  C   UNL     1       4.126   3.046  -4.202  0.00  0.00    +0.008 A 
ATOM     22  C   UNL     1       3.881   4.314  -3.710  0.00  0.00    +0.038 A 
ATOM     23  C   UNL     1       4.481   5.413  -4.299  0.00  0.00    +0.123 A 
ATOM     24  C   UNL     1       5.327   5.241  -5.382  0.00  0.00    +0.038 A 
ATOM     25  C   UNL     1       5.575   3.972  -5.869  0.00  0.00    +0.008 A 
ATOM     26  F   UNL     1       4.242   6.653  -3.819  0.00  0.00    -0.205 F 
ENDBRANCH  15  20
BRANCH   1  32
ATOM     27  C   UNL     1      -0.331   0.627  -5.429  0.00  0.00    +0.059 A 
ATOM     28  C   UNL     1      -1.699   0.908  -5.468  0.00  0.00    +0.015 A 
ATOM     29  C   UNL     1      -2.283   1.320  -6.647  0.00  0.00    +0.001 A 
ATOM     30  C   UNL     1      -1.519   1.456  -7.795  0.00  0.00    +0.002 A 
ATOM     31  C   UNL     1      -0.167   1.181  -7.771  0.00  0.00    +0.025 A 
ATOM     32  C   UNL     1       0.439   0.771  -6.592  0.00  0.00    +0.058 A 
BRANCH  27  34
ATOM     33  N   UNL     1      -0.444   0.049  -3.055  0.00  0.00    -0.309 N 
ATOM     34  C   UNL     1       0.300   0.186  -4.170  0.00  0.00    +0.246 C 
ATOM     35  O   UNL     1       1.492  -0.053  -4.139  0.00  0.00    -0.270 OA
ATOM     36  H   UNL     1      -1.395   0.240  -3.080  0.00  0.00    +0.149 HD
BRANCH  33  37
ATOM     37  C   UNL     1       0.183  -0.388  -1.805  0.00  0.00    +0.070 C 
ATOM     38  C   UNL     1       0.247  -1.917  -1.774  0.00  0.00    +0.028 C 
BRANCH  37  40
ATOM     39  C   UNL     1      -0.603   1.641  -0.578  0.00  0.00    +0.005 C 
ATOM     40  C   UNL     1      -0.643   0.112  -0.618  0.00  0.00    +0.018 C 
ENDBRANCH  37  40
ENDBRANCH  33  37
ENDBRANCH  27  34
ENDBRANCH   1  32
TORSDOF 5
