REMARK  Name = ZINC40170767
REMARK  10 active torsions:
REMARK  status: ('A' for Active; 'I' for Inactive)
REMARK    1  A    between atoms: C_1  and  C_2
REMARK    2  A    between atoms: C_2  and  C_3
REMARK    3  A    between atoms: C_3  and  C_5
REMARK    4  A    between atoms: C_3  and  S_19
REMARK    5  A    between atoms: N_7  and  C_8
REMARK    6  A    between atoms: C_9  and  C_17
REMARK    7  A    between atoms: S_19  and  C_20
REMARK    8  A    between atoms: C_26  and  C_35
REMARK    9  A    between atoms: C_28  and  C_34
REMARK   10  A    between atoms: C_31  and  C_33
REMARK                            x       y       z     vdW  Elec       q    Type
REMARK                         _______ _______ _______ _____ _____    ______ ____
ROOT
ATOM      1  C   UNL     1       0.619  -0.377  -1.176  0.00  0.00    +0.140 C 
ENDROOT
BRANCH   1   2
ATOM      2  C   UNL     1       0.375  -1.855  -1.339  0.00  0.00    +0.231 C 
ATOM      3  O   UNL     1       1.242  -2.649  -1.041  0.00  0.00    -0.274 OA
ATOM      4  N   UNL     1      -0.806  -2.294  -1.817  0.00  0.00    -0.278 N 
ATOM      5  H   UNL     1      -1.499  -1.659  -2.056  0.00  0.00    +0.155 HD
BRANCH   4   6
ATOM      6  C   UNL     1      -1.031  -3.655  -1.968  0.00  0.00    +0.090 A 
ATOM      7  C   UNL     1      -2.170  -4.283  -2.444  0.00  0.00    +0.084 A 
ATOM      8  C   UNL     1      -2.154  -5.734  -2.505  0.00  0.00    -0.018 A 
ATOM      9  C   UNL     1      -1.000  -6.292  -2.077  0.00  0.00    -0.004 A 
ATOM     10  S   UNL     1       0.019  -4.920  -1.621  0.00  0.00    -0.077 S 
ATOM     11  C   UNL     1      -0.676  -7.752  -2.015  0.00  0.00    +0.043 C 
ATOM     12  C   UNL     1      -1.985  -8.543  -2.155  0.00  0.00    +0.005 C 
ATOM     13  C   UNL     1      -2.778  -7.984  -3.340  0.00  0.00    +0.005 C 
ATOM     14  C   UNL     1      -3.310  -6.590  -2.999  0.00  0.00    +0.037 C 
BRANCH   7  15
ATOM     15  C   UNL     1      -3.317  -3.532  -2.859  0.00  0.00    +0.102 C 
ATOM     16  N   UNL     1      -4.226  -2.936  -3.189  0.00  0.00    -0.191 NA
ENDBRANCH   7  15
ENDBRANCH   4   6
ENDBRANCH   1   2
BRANCH   1  18
ATOM     17  C   UNL     1       0.190   1.606   0.282  0.00  0.00    +0.005 C 
ATOM     18  C   UNL     1       0.068   0.085   0.174  0.00  0.00    +0.020 C 
ENDBRANCH   1  18
BRANCH   1  19
ATOM     19  S   UNL     1       2.401  -0.047  -1.246  0.00  0.00    -0.073 S 
BRANCH  19  20
ATOM     20  C   UNL     1       2.830  -0.373  -2.924  0.00  0.00    +0.197 A 
ATOM     21  N   UNL     1       2.005  -0.883  -3.821  0.00  0.00    -0.122 NA
ATOM     22  N   UNL     1       2.565  -0.897  -4.973  0.00  0.00    -0.129 NA
ATOM     23  C   UNL     1       3.765  -0.357  -4.883  0.00  0.00    +0.162 A 
ATOM     24  N   UNL     1       4.032  -0.191  -3.534  0.00  0.00    -0.270 N 
ATOM     25  C   UNL     1       5.331   0.062  -3.132  0.00  0.00    +0.061 A 
ATOM     26  C   UNL     1       5.830  -0.267  -1.881  0.00  0.00    -0.026 A 
ATOM     27  C   UNL     1       7.060   0.215  -1.472  0.00  0.00    +0.008 A 
ATOM     28  C   UNL     1       7.860   0.940  -2.339  0.00  0.00    -0.050 A 
ATOM     29  C   UNL     1       7.464   1.119  -3.646  0.00  0.00    +0.013 A 
ATOM     30  C   UNL     1       6.236   0.610  -4.071  0.00  0.00    +0.002 A 
ATOM     31  C   UNL     1       5.895   0.556  -5.496  0.00  0.00    -0.038 A 
ATOM     32  C   UNL     1       4.702   0.038  -5.863  0.00  0.00    +0.052 A 
ATOM     33  C   UNL     1       6.847   1.064  -6.548  0.00  0.00    +0.044 C 
ATOM     34  C   UNL     1       9.158   1.531  -1.857  0.00  0.00    +0.044 C 
ATOM     35  C   UNL     1       5.107  -1.217  -0.962  0.00  0.00    +0.046 C 
ENDBRANCH  19  20
ENDBRANCH   1  19
TORSDOF 6
