REMARK  Name = ZINC39999966
REMARK  13 active torsions:
REMARK  status: ('A' for Active; 'I' for Inactive)
REMARK    1  A    between atoms: C_1  and  C_2
REMARK    2  A    between atoms: C_2  and  N_3
REMARK    3  A    between atoms: N_3  and  C_4
REMARK    4  A    between atoms: N_3  and  C_6
REMARK    5  A    between atoms: C_4  and  C_5
REMARK    6  A    between atoms: C_9  and  C_12
REMARK    7  A    between atoms: C_14  and  C_28
REMARK    8  A    between atoms: C_22  and  S_24
REMARK    9  A    between atoms: S_24  and  C_25
REMARK   10  A    between atoms: C_25  and  C_26
REMARK   11  A    between atoms: C_28  and  C_30
REMARK   12  A    between atoms: C_33  and  O_36
REMARK   13  A    between atoms: O_36  and  C_37
REMARK                            x       y       z     vdW  Elec       q    Type
REMARK                         _______ _______ _______ _____ _____    ______ ____
ROOT
ATOM      1  C   UNL     1       6.266  -1.355   0.989  0.00  0.00    +0.152 C 
ATOM      2  C   UNL     1       6.593  -2.829   0.934  0.00  0.00    +0.077 C 
ATOM      3  C   UNL     1       7.340  -3.105   2.030  0.00  0.00    +0.250 C 
ATOM      4  C   UNL     1       7.524  -1.868   2.816  0.00  0.00    +0.293 C 
ATOM      5  O   UNL     1       8.149  -1.788   3.855  0.00  0.00    -0.266 OA
ATOM      6  N   UNL     1       6.898  -0.840   2.210  0.00  0.00    -0.230 N 
ATOM      7  C   UNL     1       6.857   0.474   2.660  0.00  0.00    +0.192 A 
ATOM      8  N   UNL     1       6.265   1.535   2.135  0.00  0.00    -0.125 NA
ATOM      9  N   UNL     1       6.325   2.671   2.679  0.00  0.00    -0.133 NA
ATOM     10  C   UNL     1       6.986   2.873   3.810  0.00  0.00    +0.160 A 
ATOM     11  S   UNL     1       7.582   1.213   4.121  0.00  0.00    -0.024 S 
ATOM     12  O   UNL     1       7.837  -4.320   2.355  0.00  0.00    -0.282 OA
ENDROOT
BRANCH   1  16
ATOM     13  C   UNL     1       2.033  -0.795   1.175  0.00  0.00    +0.030 A 
ATOM     14  C   UNL     1       2.721  -0.520  -0.000  0.00  0.00    +0.023 A 
ATOM     15  C   UNL     1       4.089  -0.702  -0.057  0.00  0.00    +0.007 A 
ATOM     16  C   UNL     1       4.774  -1.157   1.055  0.00  0.00    -0.022 A 
ATOM     17  C   UNL     1       4.092  -1.432   2.226  0.00  0.00    +0.007 A 
ATOM     18  C   UNL     1       2.725  -1.247   2.292  0.00  0.00    +0.023 A 
BRANCH  13  19
ATOM     19  N   UNL     1       0.650  -0.612   1.236  0.00  0.00    -0.330 N 
BRANCH  19  21
ATOM     20  C   UNL     1      -0.133   1.394   0.075  0.00  0.00    +0.024 C 
ATOM     21  C   UNL     1      -0.078  -0.135   0.057  0.00  0.00    +0.102 C 
ENDBRANCH  19  21
BRANCH  19  22
ATOM     22  C   UNL     1      -0.073  -0.897   2.478  0.00  0.00    +0.102 C 
ATOM     23  C   UNL     1      -0.524  -2.359   2.482  0.00  0.00    +0.024 C 
ENDBRANCH  19  22
ENDBRANCH  13  19
ENDBRANCH   1  16
BRANCH   2  24
ATOM     24  C   UNL     1       6.181  -3.778  -0.103  0.00  0.00    +0.195 C 
ATOM     25  O   UNL     1       5.415  -4.684   0.169  0.00  0.00    -0.287 OA
BRANCH  24  26
ATOM     26  C   UNL     1       6.695  -3.635  -1.480  0.00  0.00    +0.022 A 
ATOM     27  C   UNL     1       7.669  -2.675  -1.769  0.00  0.00    +0.015 A 
ATOM     28  C   UNL     1       8.145  -2.545  -3.054  0.00  0.00    +0.046 A 
ATOM     29  C   UNL     1       7.659  -3.367  -4.064  0.00  0.00    +0.120 A 
ATOM     30  C   UNL     1       6.690  -4.323  -3.781  0.00  0.00    +0.046 A 
ATOM     31  C   UNL     1       6.212  -4.464  -2.498  0.00  0.00    +0.015 A 
BRANCH  29  32
ATOM     32  O   UNL     1       8.131  -3.236  -5.329  0.00  0.00    -0.495 OA
ATOM     33  C   UNL     1       7.588  -4.112  -6.319  0.00  0.00    +0.277 C 
ENDBRANCH  29  32
ENDBRANCH  24  26
ENDBRANCH   2  24
BRANCH  10  34
ATOM     34  S   UNL     1       7.209   4.350   4.745  0.00  0.00    -0.097 S 
BRANCH  34  35
ATOM     35  C   UNL     1       6.305   5.607   3.800  0.00  0.00    +0.073 C 
ATOM     36  C   UNL     1       6.418   6.958   4.510  0.00  0.00    +0.016 C 
ENDBRANCH  34  35
ENDBRANCH  10  34
TORSDOF 9
