REMARK  Name = ZINC04675312
REMARK  3 active torsions:
REMARK  status: ('A' for Active; 'I' for Inactive)
REMARK    1  A    between atoms: C_3  and  N_17
REMARK    2  A    between atoms: N_7  and  N_8
REMARK    3  A    between atoms: C_9  and  C_10
REMARK                            x       y       z     vdW  Elec       q    Type
REMARK                         _______ _______ _______ _____ _____    ______ ____
ROOT
ATOM      1  C   UNL     1       1.116  -4.782  -0.189  0.00  0.00    +0.022 A 
ATOM      2  C   UNL     1       2.100  -4.114  -0.907  0.00  0.00    +0.038 A 
ATOM      3  C   UNL     1       2.236  -2.750  -0.728  0.00  0.00    +0.167 A 
ATOM      4  C   UNL     1       1.388  -2.096   0.161  0.00  0.00    +0.169 A 
ATOM      5  N   UNL     1       0.465  -2.770   0.831  0.00  0.00    -0.237 NA
ATOM      6  C   UNL     1       0.309  -4.070   0.676  0.00  0.00    +0.113 A 
ATOM      7  N   UNL     1       1.514  -0.725   0.352  0.00  0.00    -0.219 N 
ATOM      8  H   UNL     1       2.360  -0.286   0.169  0.00  0.00    +0.176 HD
ENDROOT
BRANCH   3   9
ATOM      9  N   UNL     1       3.271  -1.995  -1.471  0.00  0.00    +0.060 N 
ATOM     10  O   UNL     1       4.080  -2.589  -2.160  0.00  0.00    -0.126 OA
ATOM     11  O   UNL     1       3.312  -0.780  -1.393  0.00  0.00    -0.126 OA
ENDBRANCH   3   9
BRANCH   7  12
ATOM     12  N   UNL     1       0.421   0.022   0.808  0.00  0.00    -0.189 NA
ATOM     13  C   UNL     1       0.539   1.303   0.986  0.00  0.00    +0.138 C 
BRANCH  13  14
ATOM     14  C   UNL     1      -0.614   2.090   1.461  0.00  0.00    -0.005 A 
ATOM     15  C   UNL     1      -1.836   1.463   1.714  0.00  0.00    +0.010 A 
ATOM     16  C   UNL     1      -2.909   2.205   2.162  0.00  0.00    +0.015 A 
ATOM     17  C   UNL     1      -2.779   3.570   2.351  0.00  0.00    +0.013 A 
ATOM     18  C   UNL     1      -1.573   4.199   2.097  0.00  0.00    +0.015 A 
ATOM     19  C   UNL     1      -0.490   3.469   1.653  0.00  0.00    +0.010 A 
ATOM     20  I   UNL     1      -4.417   4.689   3.025  0.00  0.00    -0.044 I 
ENDBRANCH  13  14
ENDBRANCH   7  12
TORSDOF 3
