REMARK  Name = ZINC01910381
REMARK  6 active torsions:
REMARK  status: ('A' for Active; 'I' for Inactive)
REMARK    1  A    between atoms: C_1  and  C_2
REMARK    2  A    between atoms: C_11  and  N_15
REMARK    3  A    between atoms: N_15  and  C_16
REMARK    4  A    between atoms: C_19  and  O_22
REMARK    5  A    between atoms: O_22  and  C_23
REMARK    6  A    between atoms: C_23  and  C_24
REMARK                            x       y       z     vdW  Elec       q    Type
REMARK                         _______ _______ _______ _____ _____    ______ ____
ROOT
ATOM      1  N   UNL     1       2.402   1.104  -0.015  0.00  0.00    -0.299 N 
ATOM      2  H   UNL     1       2.402   0.138  -0.109  0.00  0.00    +0.154 HD
ENDROOT
BRANCH   1  12
ATOM      3  C   UNL     1       6.109  -4.511  -0.511  0.00  0.00    +0.008 C 
ATOM      4  C   UNL     1       5.682  -3.062  -0.751  0.00  0.00    -0.009 C 
ATOM      5  C   UNL     1       4.544  -2.696   0.207  0.00  0.00    +0.008 C 
ATOM      6  C   UNL     1       3.948  -1.345  -0.188  0.00  0.00    +0.037 C 
ATOM      7  C   UNL     1       5.074  -0.320  -0.293  0.00  0.00    -0.025 A 
ATOM      8  C   UNL     1       6.356  -0.718  -0.424  0.00  0.00    -0.004 A 
ATOM      9  S   UNL     1       7.299   0.782  -0.507  0.00  0.00    -0.073 S 
ATOM     10  C   UNL     1       5.967   1.944  -0.363  0.00  0.00    +0.114 A 
ATOM     11  C   UNL     1       4.827   1.122  -0.251  0.00  0.00    +0.051 A 
ATOM     12  C   UNL     1       3.588   1.809  -0.128  0.00  0.00    +0.135 A 
ATOM     13  N   UNL     1       3.584   3.133  -0.115  0.00  0.00    -0.220 NA
ATOM     14  C   UNL     1       4.695   3.840  -0.220  0.00  0.00    +0.224 A 
ATOM     15  N   UNL     1       5.873   3.259  -0.343  0.00  0.00    -0.228 NA
ATOM     16  C   UNL     1       6.869  -2.124  -0.486  0.00  0.00    +0.046 C 
ENDBRANCH   1  12
BRANCH   1  17
ATOM     17  C   UNL     1       1.204   1.784   0.232  0.00  0.00    +0.033 A 
ATOM     18  C   UNL     1       0.038   1.394  -0.413  0.00  0.00    +0.027 A 
ATOM     19  C   UNL     1      -1.143   2.069  -0.173  0.00  0.00    +0.047 A 
ATOM     20  C   UNL     1      -1.166   3.129   0.722  0.00  0.00    +0.121 A 
ATOM     21  C   UNL     1      -0.002   3.519   1.367  0.00  0.00    +0.047 A 
ATOM     22  C   UNL     1       1.181   2.849   1.123  0.00  0.00    +0.027 A 
BRANCH  20  23
ATOM     23  O   UNL     1      -2.330   3.790   0.962  0.00  0.00    -0.487 OA
BRANCH  23  24
ATOM     24  C   UNL     1      -3.490   3.335   0.263  0.00  0.00    +0.264 C 
BRANCH  24  25
ATOM     25  C   UNL     1      -4.675   4.181   0.653  0.00  0.00    -0.010 A 
ATOM     26  C   UNL     1      -5.466   3.810   1.725  0.00  0.00    +0.008 A 
ATOM     27  C   UNL     1      -6.549   4.589   2.087  0.00  0.00    +0.020 A 
ATOM     28  C   UNL     1      -6.849   5.732   1.368  0.00  0.00    +0.041 A 
ATOM     29  C   UNL     1      -6.061   6.099   0.292  0.00  0.00    +0.020 A 
ATOM     30  C   UNL     1      -4.975   5.323  -0.065  0.00  0.00    +0.008 A 
ATOM     31 CL   UNL     1      -8.214   6.707   1.818  0.00  0.00    -0.084 Cl
ENDBRANCH  24  25
ENDBRANCH  23  24
ENDBRANCH  20  23
ENDBRANCH   1  17
TORSDOF 5
