REMARK  Name = ZINC02897695
REMARK  8 active torsions:
REMARK  status: ('A' for Active; 'I' for Inactive)
REMARK    1  A    between atoms: C_1  and  C_2
REMARK    2  A    between atoms: C_7  and  C_8
REMARK    3  A    between atoms: C_11  and  C_31
REMARK    4  A    between atoms: C_13  and  C_25
REMARK    5  A    between atoms: C_14  and  C_15
REMARK    6  A    between atoms: N_16  and  C_17
REMARK    7  A    between atoms: C_22  and  O_23
REMARK    8  A    between atoms: O_23  and  C_24
REMARK                            x       y       z     vdW  Elec       q    Type
REMARK                         _______ _______ _______ _____ _____    ______ ____
ROOT
ATOM      1  C   UNL     1       2.361   5.732   0.570  0.00  0.00    +0.080 C 
ATOM      2  C   UNL     1       1.161   6.547   0.173  0.00  0.00    +0.033 C 
ATOM      3  C   UNL     1       0.079   5.978  -0.341  0.00  0.00    +0.133 C 
ATOM      4  O   UNL     1      -0.004   4.645  -0.540  0.00  0.00    -0.455 OA
ATOM      5  C   UNL     1       1.119   3.900  -0.567  0.00  0.00    +0.141 C 
ATOM      6  C   UNL     1       2.286   4.366  -0.055  0.00  0.00    +0.025 C 
ENDROOT
BRANCH   1  13
ATOM      7  C   UNL     1       4.474   6.992   2.085  0.00  0.00    +0.044 C 
ATOM      8  C   UNL     1       3.408   6.198   2.795  0.00  0.00    -0.046 A 
ATOM      9  C   UNL     1       3.441   6.072   4.171  0.00  0.00    +0.003 A 
ATOM     10  C   UNL     1       2.464   5.344   4.823  0.00  0.00    +0.000 A 
ATOM     11  C   UNL     1       1.452   4.741   4.098  0.00  0.00    +0.000 A 
ATOM     12  C   UNL     1       1.416   4.871   2.722  0.00  0.00    +0.005 A 
ATOM     13  C   UNL     1       2.397   5.595   2.070  0.00  0.00    -0.033 A 
ENDBRANCH   1  13
BRANCH   5  14
ATOM     14  C   UNL     1       1.081   2.555  -1.171  0.00  0.00    +0.018 A 
ATOM     15  C   UNL     1       0.135   1.620  -0.743  0.00  0.00    +0.011 A 
ATOM     16  C   UNL     1       0.105   0.364  -1.313  0.00  0.00    +0.001 A 
ATOM     17  C   UNL     1       1.007   0.030  -2.307  0.00  0.00    +0.000 A 
ATOM     18  C   UNL     1       1.947   0.951  -2.736  0.00  0.00    +0.001 A 
ATOM     19  C   UNL     1       1.989   2.210  -2.175  0.00  0.00    +0.011 A 
ENDBRANCH   5  14
BRANCH   3  20
ATOM     20  C   UNL     1      -1.072   6.832  -0.713  0.00  0.00    +0.017 A 
ATOM     21  C   UNL     1      -1.013   8.211  -0.517  0.00  0.00    +0.011 A 
ATOM     22  C   UNL     1      -2.087   9.002  -0.872  0.00  0.00    +0.001 A 
ATOM     23  C   UNL     1      -3.225   8.427  -1.409  0.00  0.00    +0.000 A 
ATOM     24  C   UNL     1      -3.292   7.059  -1.600  0.00  0.00    +0.001 A 
ATOM     25  C   UNL     1      -2.222   6.258  -1.255  0.00  0.00    +0.011 A 
ENDBRANCH   3  20
BRANCH   6  26
ATOM     26  C   UNL     1       3.439   3.562  -0.107  0.00  0.00    +0.119 C 
ATOM     27  N   UNL     1       4.595   4.046   0.278  0.00  0.00    -0.251 NA
BRANCH  27  28
ATOM     28  C   UNL     1       5.725   3.286   0.171  0.00  0.00    +0.105 A 
ATOM     29  C   UNL     1       5.722   1.959   0.607  0.00  0.00    +0.031 A 
ATOM     30  C   UNL     1       6.865   1.195   0.491  0.00  0.00    +0.002 A 
ATOM     31  C   UNL     1       8.018   1.742  -0.045  0.00  0.00    +0.004 A 
ATOM     32  C   UNL     1       8.035   3.056  -0.475  0.00  0.00    +0.048 A 
ATOM     33  C   UNL     1       6.895   3.835  -0.372  0.00  0.00    +0.145 A 
BRANCH  33  34
ATOM     34  O   UNL     1       6.911   5.127  -0.794  0.00  0.00    -0.493 OA
ATOM     35  C   UNL     1       8.102   5.585  -1.437  0.00  0.00    +0.277 C 
ENDBRANCH  33  34
ENDBRANCH  27  28
ENDBRANCH   6  26
TORSDOF 6
