REMARK  Name = ZINC66085822
REMARK  10 active torsions:
REMARK  status: ('A' for Active; 'I' for Inactive)
REMARK    1  A    between atoms: C_1  and  C_2
REMARK    2  A    between atoms: C_2  and  C_3
REMARK    3  A    between atoms: C_3  and  C_4
REMARK    4  A    between atoms: C_4  and  N_5
REMARK    5  A    between atoms: C_9  and  C_11
REMARK    6  A    between atoms: C_11  and  N_12
REMARK    7  A    between atoms: N_12  and  C_13
REMARK    8  A    between atoms: N_21  and  S_23
REMARK    9  A    between atoms: S_23  and  C_26
REMARK   10  A    between atoms: C_26  and  C_27
REMARK                            x       y       z     vdW  Elec       q    Type
REMARK                         _______ _______ _______ _____ _____    ______ ____
ROOT
ATOM      1  N   UNL     1       3.158  -7.585   5.134  0.00  0.00    -0.335 N 
ATOM      2  H   UNL     1       2.738  -8.072   4.408  0.00  0.00    +0.147 HD
ENDROOT
BRANCH   1   3
ATOM      3  C   UNL     1       3.782  -8.281   6.172  0.00  0.00    +0.031 A 
ATOM      4  C   UNL     1       4.377  -7.581   7.211  0.00  0.00    +0.023 A 
ATOM      5  C   UNL     1       4.995  -8.270   8.236  0.00  0.00    +0.002 A 
ATOM      6  C   UNL     1       5.022  -9.650   8.216  0.00  0.00    +0.005 A 
ATOM      7  C   UNL     1       4.430 -10.355   7.177  0.00  0.00    -0.027 A 
ATOM      8  C   UNL     1       3.799  -9.677   6.160  0.00  0.00    -0.021 A 
ATOM      9  C   UNL     1       3.104 -10.374   5.020  0.00  0.00    +0.054 C 
ATOM     10  C   UNL     1       3.603 -11.811   4.876  0.00  0.00    +0.114 C 
ATOM     11  N   UNL     1       3.598 -12.428   6.212  0.00  0.00    -0.177 NA
ATOM     12  C   UNL     1       4.511 -11.861   7.214  0.00  0.00    +0.144 C 
BRANCH  11  13
ATOM     13  S   UNL     1       2.612 -13.711   6.564  0.00  0.00    +0.032 S 
ATOM     14  O   UNL     1       2.405 -13.635   7.968  0.00  0.00    -0.158 OA
ATOM     15  O   UNL     1       1.520 -13.587   5.663  0.00  0.00    -0.158 OA
BRANCH  13  16
ATOM     16  C   UNL     1       3.595 -15.180   6.157  0.00  0.00    +0.182 C 
ATOM     17  C   UNL     1       2.775 -16.439   6.445  0.00  0.00    +0.029 C 
ENDBRANCH  13  16
ENDBRANCH  11  13
ENDBRANCH   1   3
BRANCH   1  18
ATOM     18  C   UNL     1       3.138  -6.120   5.142  0.00  0.00    +0.198 C 
BRANCH  18  23
ATOM     19  N   UNL     1       1.471  -2.526   2.420  0.00  0.00    -0.299 N 
ATOM     20  C   UNL     1       1.615  -3.850   2.625  0.00  0.00    +0.306 C 
ATOM     21  O   UNL     1       1.156  -4.642   1.825  0.00  0.00    -0.252 OA
ATOM     22  N   UNL     1       2.266  -4.297   3.717  0.00  0.00    -0.239 N 
ATOM     23  C   UNL     1       2.409  -5.621   3.921  0.00  0.00    +0.237 C 
ATOM     24  O   UNL     1       1.952  -6.411   3.124  0.00  0.00    -0.274 OA
ATOM     25  H   UNL     1       1.837  -1.894   3.058  0.00  0.00    +0.150 HD
ATOM     26  H   UNL     1       2.632  -3.665   4.355  0.00  0.00    +0.159 HD
BRANCH  19  27
ATOM     27  C   UNL     1       0.763  -2.041   1.233  0.00  0.00    +0.106 C 
BRANCH  27  28
ATOM     28  C   UNL     1       0.742  -0.511   1.242  0.00  0.00    +0.018 C 
BRANCH  28  30
ATOM     29  C   UNL     1      -0.019   1.526   0.010  0.00  0.00    +0.004 C 
ATOM     30  C   UNL     1       0.002  -0.004   0.002  0.00  0.00    -0.002 C 
ENDBRANCH  28  30
ENDBRANCH  27  28
ENDBRANCH  19  27
ENDBRANCH  18  23
ENDBRANCH   1  18
TORSDOF 8
