REMARK  Name = ZINC19881460
REMARK  4 active torsions:
REMARK  status: ('A' for Active; 'I' for Inactive)
REMARK    1  A    between atoms: C_6  and  C_7
REMARK    2  A    between atoms: C_7  and  N_8
REMARK    3  A    between atoms: C_12  and  N_16
REMARK    4  A    between atoms: N_16  and  C_17
REMARK                            x       y       z     vdW  Elec       q    Type
REMARK                         _______ _______ _______ _____ _____    ______ ____
ROOT
ATOM      1  N   UNL     1       0.466   1.446  -0.225  0.00  0.00    -0.239 N 
ATOM      2  C   UNL     1      -0.738   1.141   0.276  0.00  0.00    +0.221 C 
ATOM      3  O   UNL     1      -1.127   0.024   0.537  0.00  0.00    -0.275 OA
ATOM      4  C   UNL     1      -1.538   2.413   0.457  0.00  0.00    +0.090 C 
ATOM      5  C   UNL     1      -0.574   3.518  -0.023  0.00  0.00    +0.026 C 
ATOM      6  C   UNL     1       0.666   2.753  -0.432  0.00  0.00    +0.209 C 
ATOM      7  O   UNL     1       1.680   3.247  -0.878  0.00  0.00    -0.277 OA
ENDROOT
BRANCH   5   8
ATOM      8  N   UNL     1      -1.143   4.235  -1.172  0.00  0.00    +0.391 N 
ATOM      9  H   UNL     1      -0.532   4.038  -2.065  0.00  0.00    -0.084 HD
ATOM     10  H   UNL     1      -2.172   3.888  -1.348  0.00  0.00    -0.084 HD
BRANCH   8  11
ATOM     11  C   UNL     1      -1.169   5.683  -0.928  0.00  0.00    -0.067 C 
ATOM     12  C   UNL     1      -1.746   6.396  -2.153  0.00  0.00    -0.009 C 
ATOM     13  C   UNL     1      -1.774   7.904  -1.899  0.00  0.00    -0.012 C 
ATOM     14  C   UNL     1      -0.351   8.404  -1.641  0.00  0.00    +0.007 C 
ATOM     15  C   UNL     1       0.226   7.691  -0.417  0.00  0.00    -0.012 C 
ATOM     16  C   UNL     1       0.254   6.183  -0.671  0.00  0.00    -0.009 C 
ATOM     17  C   UNL     1      -0.647   7.987   0.804  0.00  0.00    +0.007 C 
ATOM     18  C   UNL     1      -2.070   7.487   0.547  0.00  0.00    -0.012 C 
ATOM     19  C   UNL     1      -2.647   8.200  -0.678  0.00  0.00    +0.007 C 
ATOM     20  C   UNL     1      -2.043   5.979   0.293  0.00  0.00    -0.009 C 
ENDBRANCH   8  11
ENDBRANCH   5   8
BRANCH   1  21
ATOM     21  C   UNL     1       1.481   0.432  -0.522  0.00  0.00    +0.151 C 
BRANCH  21  27
ATOM     22  C   UNL     1       0.494  -1.126  -2.213  0.00  0.00    +0.009 A 
ATOM     23  C   UNL     1       0.333  -1.565  -3.514  0.00  0.00    +0.050 A 
ATOM     24  C   UNL     1       1.000  -0.929  -4.548  0.00  0.00    +0.166 A 
ATOM     25  C   UNL     1       1.830   0.156  -4.274  0.00  0.00    +0.167 A 
ATOM     26  C   UNL     1       1.983   0.593  -2.969  0.00  0.00    +0.054 A 
ATOM     27  C   UNL     1       1.313  -0.046  -1.942  0.00  0.00    -0.026 A 
ATOM     28  O   UNL     1       2.367   0.602  -5.447  0.00  0.00    -0.453 OA
ATOM     29  C   UNL     1       2.180  -0.471  -6.388  0.00  0.00    +0.466 C 
ATOM     30  O   UNL     1       1.018  -1.162  -5.893  0.00  0.00    -0.453 OA
ENDBRANCH  21  27
ENDBRANCH   1  21
TORSDOF 4
