REMARK  Name = ZINC67169658
REMARK  4 active torsions:
REMARK  status: ('A' for Active; 'I' for Inactive)
REMARK    1  A    between atoms: C_6  and  C_7
REMARK    2  A    between atoms: C_10  and  C_12
REMARK    3  A    between atoms: N_14  and  C_15
REMARK    4  A    between atoms: C_20  and  N_21
REMARK                            x       y       z     vdW  Elec       q    Type
REMARK                         _______ _______ _______ _____ _____    ______ ____
ROOT
ATOM      1  C   UNL     1      -0.483  -1.815   2.250  0.00  0.00    +0.221 C 
ATOM      2  O   UNL     1       0.528  -1.154   2.148  0.00  0.00    -0.275 OA
ATOM      3  N   UNL     1      -0.644  -2.643   3.302  0.00  0.00    -0.283 N 
ATOM      4  H   UNL     1      -1.479  -3.121   3.419  0.00  0.00    +0.155 HD
ENDROOT
BRANCH   3   5
ATOM      5  C   UNL     1       0.392  -2.812   4.221  0.00  0.00    +0.067 A 
ATOM      6  C   UNL     1       1.233  -1.751   4.554  0.00  0.00    +0.045 A 
ATOM      7  C   UNL     1       2.245  -1.959   5.467  0.00  0.00    +0.112 A 
ATOM      8  N   UNL     1       2.422  -3.143   6.024  0.00  0.00    -0.261 NA
ATOM      9  C   UNL     1       1.647  -4.171   5.735  0.00  0.00    +0.145 A 
ATOM     10  C   UNL     1       0.609  -4.044   4.836  0.00  0.00    +0.165 A 
BRANCH  10  11
ATOM     11  N   UNL     1      -0.260  -5.201   4.523  0.00  0.00    +0.060 N 
ATOM     12  O   UNL     1      -0.126  -6.239   5.130  0.00  0.00    -0.126 OA
ATOM     13  O   UNL     1      -1.103  -5.109   3.662  0.00  0.00    -0.126 OA
ENDBRANCH  10  11
ENDBRANCH   3   5
BRANCH   1  16
ATOM     14  C   UNL     1      -1.319  -0.754   0.033  0.00  0.00    +0.032 C 
ATOM     15  C   UNL     1      -1.248  -2.266  -0.190  0.00  0.00    +0.022 C 
ATOM     16  C   UNL     1      -1.560  -1.711   1.202  0.00  0.00    +0.083 C 
BRANCH  14  22
ATOM     17  C   UNL     1      -0.035   1.395   0.033  0.00  0.00    +0.005 A 
ATOM     18  C   UNL     1       1.155   2.099   0.020  0.00  0.00    +0.015 A 
ATOM     19  C   UNL     1       2.359   1.420  -0.008  0.00  0.00    +0.018 A 
ATOM     20  C   UNL     1       2.373   0.036  -0.023  0.00  0.00    +0.015 A 
ATOM     21  C   UNL     1       1.183  -0.666  -0.009  0.00  0.00    +0.005 A 
ATOM     22  C   UNL     1      -0.021   0.013   0.018  0.00  0.00    -0.043 A 
ATOM     23 BR   UNL     1       3.987   2.381  -0.027  0.00  0.00    -0.050 Br
ENDBRANCH  14  22
ENDBRANCH   1  16
TORSDOF 4
