REMARK  Name = ZINC56762401
REMARK  8 active torsions:
REMARK  status: ('A' for Active; 'I' for Inactive)
REMARK    1  A    between atoms: C_1  and  C_2
REMARK    2  A    between atoms: C_2  and  C_4
REMARK    3  A    between atoms: C_2  and  N_12
REMARK    4  A    between atoms: C_4  and  C_5
REMARK    5  A    between atoms: C_8  and  O_11
REMARK    6  A    between atoms: N_15  and  C_16
REMARK    7  A    between atoms: N_15  and  C_17
REMARK    8  A    between atoms: C_17  and  C_18
REMARK                            x       y       z     vdW  Elec       q    Type
REMARK                         _______ _______ _______ _____ _____    ______ ____
ROOT
ATOM      1  N   UNL     1       0.688  -0.476  -1.203  0.00  0.00    -0.296 N 
ATOM      2  C   UNL     1       2.031  -0.587  -1.215  0.00  0.00    +0.302 C 
ATOM      3  O   UNL     1       2.674  -0.294  -0.225  0.00  0.00    -0.253 OA
ATOM      4  N   UNL     1       2.662  -1.022  -2.324  0.00  0.00    -0.284 N 
ATOM      5  C   UNL     1       1.887  -1.374  -3.517  0.00  0.00    +0.134 C 
ATOM      6  H   UNL     1       0.175  -0.710  -1.993  0.00  0.00    +0.151 HD
ENDROOT
BRANCH   1   8
ATOM      7  C   UNL     1      -0.019   1.526   0.010  0.00  0.00    +0.028 C 
ATOM      8  C   UNL     1       0.002  -0.004   0.002  0.00  0.00    +0.076 C 
BRANCH   8   9
ATOM      9  C   UNL     1      -1.433  -0.534   0.013  0.00  0.00    +0.057 C 
BRANCH   9  10
ATOM     10  C   UNL     1      -1.414  -2.036   0.129  0.00  0.00    -0.045 A 
ATOM     11  C   UNL     1      -1.374  -2.816  -1.013  0.00  0.00    +0.007 A 
ATOM     12  C   UNL     1      -1.356  -4.193  -0.910  0.00  0.00    +0.045 A 
ATOM     13  C   UNL     1      -1.378  -4.794   0.341  0.00  0.00    +0.117 A 
ATOM     14  C   UNL     1      -1.417  -4.010   1.484  0.00  0.00    +0.045 A 
ATOM     15  C   UNL     1      -1.429  -2.633   1.376  0.00  0.00    +0.007 A 
BRANCH  13  16
ATOM     16  O   UNL     1      -1.361  -6.149   0.445  0.00  0.00    -0.507 OA
ATOM     17  H   UNL     1      -0.473  -6.529   0.496  0.00  0.00    +0.292 HD
ENDBRANCH  13  16
ENDBRANCH   9  10
ENDBRANCH   8   9
ENDBRANCH   1   8
BRANCH   4  18
ATOM     18  C   UNL     1       4.122  -1.142  -2.336  0.00  0.00    +0.144 C 
BRANCH  18  19
ATOM     19  C   UNL     1       4.516  -2.521  -1.876  0.00  0.00    -0.030 A 
ATOM     20  C   UNL     1       4.734  -2.766  -0.533  0.00  0.00    +0.006 A 
ATOM     21  C   UNL     1       5.095  -4.032  -0.111  0.00  0.00    +0.015 A 
ATOM     22  C   UNL     1       5.239  -5.053  -1.032  0.00  0.00    +0.018 A 
ATOM     23  C   UNL     1       5.022  -4.808  -2.376  0.00  0.00    +0.015 A 
ATOM     24  C   UNL     1       4.655  -3.543  -2.797  0.00  0.00    +0.006 A 
ATOM     25 BR   UNL     1       5.735  -6.785  -0.455  0.00  0.00    -0.050 Br
ENDBRANCH  18  19
ENDBRANCH   4  18
TORSDOF 6
