REMARK  Name = ZINC49541520
REMARK  8 active torsions:
REMARK  status: ('A' for Active; 'I' for Inactive)
REMARK    1  A    between atoms: C_1  and  C_2
REMARK    2  A    between atoms: C_2  and  C_3
REMARK    3  A    between atoms: C_3  and  C_4
REMARK    4  A    between atoms: C_4  and  C_6
REMARK    5  A    between atoms: C_4  and  N_11
REMARK    6  A    between atoms: N_11  and  S_12
REMARK    7  A    between atoms: S_12  and  C_15
REMARK    8  A    between atoms: C_20  and  N_21
REMARK                            x       y       z     vdW  Elec       q    Type
REMARK                         _______ _______ _______ _____ _____    ______ ____
ROOT
ATOM      1  S   UNL     1       0.783  -2.924   1.679  0.00  0.00    +0.061 S 
ATOM      2  O   UNL     1       1.649  -1.926   1.157  0.00  0.00    -0.153 OA
ATOM      3  O   UNL     1       0.878  -3.391   3.018  0.00  0.00    -0.153 OA
ENDROOT
BRANCH   1   4
ATOM      4  C   UNL     1       0.957  -4.335   0.640  0.00  0.00    +0.127 A 
ATOM      5  C   UNL     1       1.850  -4.312  -0.414  0.00  0.00    +0.050 A 
ATOM      6  C   UNL     1       1.987  -5.420  -1.231  0.00  0.00    +0.043 A 
ATOM      7  C   UNL     1       1.231  -6.555  -0.994  0.00  0.00    +0.022 A 
ATOM      8  C   UNL     1       0.337  -6.584   0.058  0.00  0.00    +0.026 A 
ATOM      9  C   UNL     1       0.201  -5.475   0.883  0.00  0.00    +0.051 A 
ATOM     10 CL   UNL     1       3.110  -5.388  -2.554  0.00  0.00    -0.083 Cl
BRANCH   9  11
ATOM     11  N   UNL     1      -0.698  -5.504   1.952  0.00  0.00    -0.356 N 
ATOM     12  H   UNL     1      -0.858  -4.701   2.473  0.00  0.00    +0.142 HD
ATOM     13  H   UNL     1      -1.164  -6.326   2.172  0.00  0.00    +0.142 HD
ENDBRANCH   9  11
ENDBRANCH   1   4
BRANCH   1  14
ATOM     14  N   UNL     1      -0.762  -2.359   1.484  0.00  0.00    -0.182 NA
ATOM     15  H   UNL     1      -1.382  -2.375   2.229  0.00  0.00    +0.149 HD
BRANCH  14  16
ATOM     16  C   UNL     1      -1.191  -1.836   0.185  0.00  0.00    +0.113 C 
BRANCH  16  17
ATOM     17  C   UNL     1      -2.368  -2.635  -0.315  0.00  0.00    +0.008 A 
ATOM     18  C   UNL     1      -2.637  -3.062  -1.573  0.00  0.00    +0.013 A 
ATOM     19  C   UNL     1      -3.789  -3.790  -1.801  0.00  0.00    +0.008 A 
ATOM     20  C   UNL     1      -4.617  -4.055  -0.760  0.00  0.00    +0.045 A 
ATOM     21  S   UNL     1      -3.764  -3.270   0.598  0.00  0.00    -0.100 S 
ENDBRANCH  16  17
BRANCH  16  22
ATOM     22  C   UNL     1      -1.598  -0.368   0.335  0.00  0.00    +0.025 C 
BRANCH  22  24
ATOM     23  C   UNL     1      -0.778   1.933   0.859  0.00  0.00    +0.004 C 
ATOM     24  C   UNL     1      -0.372   0.464   0.716  0.00  0.00    -0.001 C 
ENDBRANCH  22  24
ENDBRANCH  16  22
ENDBRANCH  14  16
ENDBRANCH   1  14
TORSDOF 7
