REMARK  Name = ZINC22613481
REMARK  7 active torsions:
REMARK  status: ('A' for Active; 'I' for Inactive)
REMARK    1  A    between atoms: C_1  and  C_2
REMARK    2  A    between atoms: C_4  and  C_12
REMARK    3  A    between atoms: C_6  and  C_11
REMARK    4  A    between atoms: C_12  and  O_14
REMARK    5  A    between atoms: O_14  and  C_15
REMARK    6  A    between atoms: C_15  and  C_17
REMARK    7  A    between atoms: C_15  and  C_18
REMARK                            x       y       z     vdW  Elec       q    Type
REMARK                         _______ _______ _______ _____ _____    ______ ____
ROOT
ATOM      1  O   UNL     1      -1.835  -0.475  -0.636  0.00  0.00    -0.449 OA
ENDROOT
BRANCH   1   2
ATOM      2  C   UNL     1      -0.707  -1.175  -0.410  0.00  0.00    +0.341 C 
ATOM      3  O   UNL     1      -0.736  -2.389  -0.402  0.00  0.00    -0.245 OA
BRANCH   2   7
ATOM      4  C   UNL     1       2.455   2.568  -1.399  0.00  0.00    +0.066 C 
ATOM      5  C   UNL     1       2.102   1.322  -0.628  0.00  0.00    +0.043 A 
ATOM      6  C   UNL     1       0.896   0.688  -0.884  0.00  0.00    +0.039 A 
ATOM      7  C   UNL     1       0.568  -0.465  -0.170  0.00  0.00    +0.075 A 
ATOM      8  C   UNL     1       1.493  -0.930   0.786  0.00  0.00    +0.077 A 
ATOM      9  C   UNL     1       1.518  -2.065   1.707  0.00  0.00    +0.091 A 
ATOM     10  N   UNL     1       2.635  -2.004   2.365  0.00  0.00    -0.080 NA
ATOM     11  O   UNL     1       3.379  -0.881   1.939  0.00  0.00    -0.334 OA
ATOM     12  C   UNL     1       2.693  -0.226   0.981  0.00  0.00    +0.260 A 
ATOM     13  N   UNL     1       2.945   0.864   0.272  0.00  0.00    -0.215 NA
ATOM     14  C   UNL     1       0.445  -3.111   1.865  0.00  0.00    +0.070 C 
ENDBRANCH   2   7
ENDBRANCH   1   2
BRANCH   1  15
ATOM     15  C   UNL     1      -3.050  -1.238  -0.863  0.00  0.00    +0.259 C 
ATOM     16  C   UNL     1      -3.202  -1.522  -2.358  0.00  0.00    +0.062 C 
BRANCH  15  17
ATOM     17  C   UNL     1      -4.237  -0.448  -0.378  0.00  0.00    +0.260 C 
ATOM     18  O   UNL     1      -4.130   0.741  -0.168  0.00  0.00    -0.271 OA
ATOM     19  N   UNL     1      -5.420  -1.064  -0.177  0.00  0.00    -0.268 N 
ATOM     20  C   UNL     1      -5.601  -2.473  -0.549  0.00  0.00    +0.114 C 
ATOM     21  C   UNL     1      -6.947  -2.605  -1.264  0.00  0.00    +0.024 C 
ATOM     22  C   UNL     1      -8.065  -2.228  -0.292  0.00  0.00    +0.038 C 
ATOM     23  C   UNL     1      -7.781  -0.893   0.346  0.00  0.00    -0.026 A 
ATOM     24  C   UNL     1      -6.499  -0.368   0.386  0.00  0.00    +0.040 A 
ATOM     25  C   UNL     1      -6.270   0.864   0.988  0.00  0.00    +0.024 A 
ATOM     26  C   UNL     1      -7.320   1.567   1.545  0.00  0.00    +0.002 A 
ATOM     27  C   UNL     1      -8.599   1.043   1.503  0.00  0.00    +0.000 A 
ATOM     28  C   UNL     1      -8.828  -0.182   0.906  0.00  0.00    +0.005 A 
ENDBRANCH  15  17
ENDBRANCH   1  15
TORSDOF 4
