REMARK  Name = ZINC18142667
REMARK  12 active torsions:
REMARK  status: ('A' for Active; 'I' for Inactive)
REMARK    1  A    between atoms: C_1  and  O_2
REMARK    2  A    between atoms: O_2  and  C_3
REMARK    3  A    between atoms: C_6  and  C_11
REMARK    4  A    between atoms: C_8  and  O_9
REMARK    5  A    between atoms: O_9  and  C_10
REMARK    6  A    between atoms: C_16  and  C_26
REMARK    7  A    between atoms: C_28  and  O_36
REMARK    8  A    between atoms: C_29  and  O_34
REMARK    9  A    between atoms: C_30  and  O_32
REMARK   10  A    between atoms: O_32  and  C_33
REMARK   11  A    between atoms: O_34  and  C_35
REMARK   12  A    between atoms: O_36  and  C_37
REMARK                            x       y       z     vdW  Elec       q    Type
REMARK                         _______ _______ _______ _____ _____    ______ ____
ROOT
ATOM      1  C   UNL     1      -5.954  -2.137  -2.698  0.00  0.00    +0.032 C 
ATOM      2  C   UNL     1      -7.229  -1.375  -2.346  0.00  0.00    +0.059 C 
ATOM      3  C   UNL     1      -7.033  -0.602  -1.052  0.00  0.00    +0.017 C 
ATOM      4  C   UNL     1      -6.221  -1.073  -0.091  0.00  0.00    +0.036 C 
ATOM      5  C   UNL     1      -5.943  -0.412   1.237  0.00  0.00    +0.136 C 
ATOM      6  N   UNL     1      -6.827   0.690   1.554  0.00  0.00    -0.331 N 
ATOM      7  C   UNL     1      -6.830   1.854   0.792  0.00  0.00    +0.049 A 
ATOM      8  C   UNL     1      -6.377   3.059   1.306  0.00  0.00    +0.025 A 
ATOM      9  C   UNL     1      -6.292   4.163   0.475  0.00  0.00    +0.002 A 
ATOM     10  C   UNL     1      -6.655   4.067  -0.856  0.00  0.00    +0.002 A 
ATOM     11  C   UNL     1      -7.127   2.870  -1.367  0.00  0.00    +0.025 A 
ATOM     12  C   UNL     1      -7.231   1.770  -0.533  0.00  0.00    +0.052 A 
ATOM     13  N   UNL     1      -7.742   0.553  -0.967  0.00  0.00    -0.316 N 
ATOM     14  C   UNL     1      -5.530  -2.294  -0.278  0.00  0.00    +0.163 C 
ATOM     15  O   UNL     1      -4.817  -2.708   0.615  0.00  0.00    -0.292 OA
ATOM     16  C   UNL     1      -5.648  -3.095  -1.540  0.00  0.00    +0.088 C 
ATOM     17  H   UNL     1      -7.427   0.617   2.313  0.00  0.00    +0.147 HD
ATOM     18  H   UNL     1      -8.676   0.526  -1.228  0.00  0.00    +0.152 HD
ENDROOT
BRANCH   1  22
ATOM     19  C   UNL     1      -6.544  -4.363  -6.302  0.00  0.00    +0.161 A 
ATOM     20  C   UNL     1      -7.364  -4.582  -5.207  0.00  0.00    +0.049 A 
ATOM     21  C   UNL     1      -7.170  -3.861  -4.043  0.00  0.00    +0.008 A 
ATOM     22  C   UNL     1      -6.160  -2.921  -3.969  0.00  0.00    -0.040 A 
ATOM     23  C   UNL     1      -5.341  -2.694  -5.059  0.00  0.00    +0.053 A 
ATOM     24  C   UNL     1      -5.526  -3.417  -6.227  0.00  0.00    +0.162 A 
BRANCH  19  26
ATOM     25  C   UNL     1      -7.798  -6.024  -7.452  0.00  0.00    +0.277 C 
ATOM     26  O   UNL     1      -6.734  -5.071  -7.447  0.00  0.00    -0.491 OA
ENDBRANCH  19  26
BRANCH  24  27
ATOM     27  O   UNL     1      -4.718  -3.199  -7.299  0.00  0.00    -0.491 OA
ATOM     28  C   UNL     1      -3.695  -2.212  -7.150  0.00  0.00    +0.277 C 
ENDBRANCH  24  27
ENDBRANCH   1  22
BRANCH   5  29
ATOM     29  C   UNL     1      -4.526   0.100   1.229  0.00  0.00    -0.016 A 
ATOM     30  C   UNL     1      -4.138   1.040   0.292  0.00  0.00    +0.055 A 
ATOM     31  C   UNL     1      -2.835   1.513   0.280  0.00  0.00    +0.165 A 
ATOM     32  C   UNL     1      -1.919   1.042   1.213  0.00  0.00    +0.204 A 
ATOM     33  C   UNL     1      -2.311   0.094   2.150  0.00  0.00    +0.165 A 
ATOM     34  C   UNL     1      -3.617  -0.370   2.158  0.00  0.00    +0.055 A 
BRANCH  33  35
ATOM     35  O   UNL     1      -1.416  -0.373   3.061  0.00  0.00    -0.491 OA
ATOM     36  C   UNL     1      -1.856  -1.427   3.921  0.00  0.00    +0.277 C 
ENDBRANCH  33  35
BRANCH  32  37
ATOM     37  O   UNL     1      -0.638   1.504   1.204  0.00  0.00    -0.488 OA
ATOM     38  C   UNL     1      -0.360   2.659   1.999  0.00  0.00    +0.277 C 
ENDBRANCH  32  37
BRANCH  31  39
ATOM     39  O   UNL     1      -2.455   2.438  -0.642  0.00  0.00    -0.491 OA
ATOM     40  C   UNL     1      -3.450   2.877  -1.569  0.00  0.00    +0.277 C 
ENDBRANCH  31  39
ENDBRANCH   5  29
TORSDOF 7
