REMARK  Name = ZINC21258386
REMARK  9 active torsions:
REMARK  status: ('A' for Active; 'I' for Inactive)
REMARK    1  A    between atoms: C_1  and  C_2
REMARK    2  A    between atoms: C_2  and  C_3
REMARK    3  A    between atoms: C_2  and  O_4
REMARK    4  A    between atoms: O_4  and  C_5
REMARK    5  A    between atoms: C_8  and  C_13
REMARK    6  A    between atoms: C_10  and  O_11
REMARK    7  A    between atoms: O_11  and  C_12
REMARK    8  A    between atoms: C_18  and  C_28
REMARK    9  A    between atoms: C_33  and  N_34
REMARK                            x       y       z     vdW  Elec       q    Type
REMARK                         _______ _______ _______ _____ _____    ______ ____
ROOT
ATOM      1  C   UNL     1       1.408   3.317   0.683  0.00  0.00    +0.032 C 
ATOM      2  C   UNL     1       0.352   4.189   0.006  0.00  0.00    +0.059 C 
ATOM      3  C   UNL     1      -1.000   3.497   0.052  0.00  0.00    +0.017 C 
ATOM      4  C   UNL     1      -1.081   2.156   0.005  0.00  0.00    +0.036 C 
ATOM      5  C   UNL     1      -2.353   1.344   0.049  0.00  0.00    +0.138 C 
ATOM      6  N   UNL     1      -3.564   2.115  -0.129  0.00  0.00    -0.331 N 
ATOM      7  C   UNL     1      -3.951   3.071   0.809  0.00  0.00    +0.049 A 
ATOM      8  C   UNL     1      -5.078   2.897   1.596  0.00  0.00    +0.025 A 
ATOM      9  C   UNL     1      -5.362   3.817   2.591  0.00  0.00    +0.002 A 
ATOM     10  C   UNL     1      -4.530   4.902   2.799  0.00  0.00    +0.002 A 
ATOM     11  C   UNL     1      -3.415   5.090   1.999  0.00  0.00    +0.025 A 
ATOM     12  C   UNL     1      -3.140   4.181   0.993  0.00  0.00    +0.052 A 
ATOM     13  N   UNL     1      -2.066   4.334   0.124  0.00  0.00    -0.316 N 
ATOM     14  C   UNL     1       0.095   1.373  -0.066  0.00  0.00    +0.163 C 
ATOM     15  O   UNL     1      -0.009   0.164  -0.129  0.00  0.00    -0.292 OA
ATOM     16  C   UNL     1       1.465   1.983  -0.072  0.00  0.00    +0.088 C 
ATOM     17  H   UNL     1      -4.196   1.952  -1.015  0.00  0.00    +0.147 HD
ATOM     18  H   UNL     1      -2.122   5.212  -0.537  0.00  0.00    +0.152 HD
ENDROOT
BRANCH   1  22
ATOM     19  C   UNL     1       5.217   5.251   0.494  0.00  0.00    +0.162 A 
ATOM     20  C   UNL     1       4.526   4.961  -0.672  0.00  0.00    +0.050 A 
ATOM     21  C   UNL     1       3.295   4.335  -0.607  0.00  0.00    +0.008 A 
ATOM     22  C   UNL     1       2.751   3.998   0.618  0.00  0.00    -0.040 A 
ATOM     23  C   UNL     1       3.433   4.289   1.785  0.00  0.00    +0.053 A 
ATOM     24  C   UNL     1       4.670   4.911   1.727  0.00  0.00    +0.162 A 
BRANCH  24  25
ATOM     25  O   UNL     1       5.345   5.194   2.873  0.00  0.00    -0.491 OA
ATOM     26  C   UNL     1       4.722   4.816   4.103  0.00  0.00    +0.277 C 
ENDBRANCH  24  25
BRANCH  19  27
ATOM     27  O   UNL     1       6.428   5.867   0.432  0.00  0.00    -0.486 OA
BRANCH  27  29
ATOM     28  C   UNL     1       6.274   7.609  -1.235  0.00  0.00    +0.051 C 
ATOM     29  C   UNL     1       6.891   6.260  -0.862  0.00  0.00    +0.167 C 
ATOM     30  C   UNL     1       8.416   6.384  -0.842  0.00  0.00    +0.051 C 
ENDBRANCH  27  29
ENDBRANCH  19  27
ENDBRANCH   1  22
BRANCH   5  31
ATOM     31  C   UNL     1      -2.426   0.639   1.379  0.00  0.00    +0.007 A 
ATOM     32  C   UNL     1      -1.666   1.089   2.442  0.00  0.00    +0.008 A 
ATOM     33  C   UNL     1      -1.737   0.445   3.664  0.00  0.00    +0.000 A 
ATOM     34  C   UNL     1      -2.561  -0.654   3.819  0.00  0.00    +0.002 A 
ATOM     35  C   UNL     1      -3.317  -1.107   2.754  0.00  0.00    +0.033 A 
ATOM     36  C   UNL     1      -3.250  -0.460   1.534  0.00  0.00    +0.131 A 
BRANCH  36  37
ATOM     37  N   UNL     1      -4.059  -0.945   0.394  0.00  0.00    +0.057 N 
ATOM     38  O   UNL     1      -4.854  -1.854   0.554  0.00  0.00    -0.126 OA
ATOM     39  O   UNL     1      -3.931  -0.436  -0.705  0.00  0.00    -0.126 OA
ENDBRANCH  36  37
ENDBRANCH   5  31
TORSDOF 6
