REMARK  Name = ZINC20077731
REMARK  3 active torsions:
REMARK  status: ('A' for Active; 'I' for Inactive)
REMARK    1  A    between atoms: C_1  and  C_2
REMARK    2  A    between atoms: C_5  and  O_9
REMARK    3  A    between atoms: O_9  and  C_10
REMARK                            x       y       z     vdW  Elec       q    Type
REMARK                         _______ _______ _______ _____ _____    ______ ____
ROOT
ATOM      1  O   UNL     1       2.321   3.868   0.001  0.00  0.00    -0.453 OA
ENDROOT
BRANCH   1   2
ATOM      2  C   UNL     1       2.965   4.024  -1.186  0.00  0.00    +0.147 A 
ATOM      3  C   UNL     1       4.213   4.638  -1.237  0.00  0.00    +0.051 A 
ATOM      4  C   UNL     1       4.829   4.774  -2.470  0.00  0.00    +0.057 A 
ATOM      5  C   UNL     1       4.191   4.298  -3.600  0.00  0.00    +0.215 A 
ATOM      6  N   UNL     1       3.009   3.720  -3.517  0.00  0.00    -0.229 NA
ATOM      7  C   UNL     1       2.390   3.567  -2.363  0.00  0.00    +0.159 A 
ATOM      8  N   UNL     1       4.843   4.439  -4.921  0.00  0.00    +0.075 N 
ATOM      9  O   UNL     1       5.935   4.971  -5.008  0.00  0.00    -0.125 OA
ATOM     10  O   UNL     1       4.288   4.022  -5.922  0.00  0.00    -0.125 OA
ENDBRANCH   1   2
BRANCH   1  15
ATOM     11  C   UNL     1      -2.480   0.923   0.029  0.00  0.00    +0.044 C 
ATOM     12  C   UNL     1      -1.195   1.710   0.025  0.00  0.00    -0.049 A 
ATOM     13  C   UNL     1      -1.233   3.093  -0.002  0.00  0.00    +0.007 A 
ATOM     14  C   UNL     1      -0.057   3.817  -0.012  0.00  0.00    +0.047 A 
ATOM     15  C   UNL     1       1.163   3.158   0.011  0.00  0.00    +0.142 A 
ATOM     16  C   UNL     1       1.199   1.770   0.043  0.00  0.00    +0.060 A 
ATOM     17  C   UNL     1       0.019   1.050   0.053  0.00  0.00    +0.022 A 
ATOM     18 BR   UNL     1       2.860   0.867   0.073  0.00  0.00    -0.046 Br
ENDBRANCH   1  15
TORSDOF 2
