REMARK  Name = ZINC15969995
REMARK  7 active torsions:
REMARK  status: ('A' for Active; 'I' for Inactive)
REMARK    1  A    between atoms: C_1  and  C_2
REMARK    2  A    between atoms: C_2  and  C_3
REMARK    3  A    between atoms: C_3  and  C_5
REMARK    4  A    between atoms: C_3  and  N_6
REMARK    5  A    between atoms: C_11  and  C_29
REMARK    6  A    between atoms: C_21  and  C_28
REMARK    7  A    between atoms: C_29  and  C_30
REMARK                            x       y       z     vdW  Elec       q    Type
REMARK                         _______ _______ _______ _____ _____    ______ ____
ROOT
ATOM      1  N   UNL     1      -2.105  -0.148  -1.230  0.00  0.00    -0.239 N 
ATOM      2  C   UNL     1      -1.670  -0.530  -2.437  0.00  0.00    +0.227 C 
ATOM      3  O   UNL     1      -0.697  -1.223  -2.643  0.00  0.00    -0.275 OA
ATOM      4  C   UNL     1      -2.581   0.037  -3.502  0.00  0.00    +0.107 C 
ATOM      5  C   UNL     1      -3.350  -1.115  -4.183  0.00  0.00    +0.072 C 
ATOM      6  N   UNL     1      -4.555  -1.322  -3.337  0.00  0.00    -0.295 NA
ATOM      7  C   UNL     1      -4.958   0.041  -2.945  0.00  0.00    +0.136 C 
ATOM      8  C   UNL     1      -3.645   0.820  -2.685  0.00  0.00    +0.122 C 
ATOM      9  C   UNL     1      -3.208   0.610  -1.252  0.00  0.00    +0.228 C 
ATOM     10  O   UNL     1      -3.767   1.060  -0.276  0.00  0.00    -0.275 OA
ATOM     11  C   UNL     1      -5.846   0.027  -1.733  0.00  0.00    +0.004 A 
ATOM     12  C   UNL     1      -5.684  -0.430  -0.444  0.00  0.00    +0.011 A 
ATOM     13  C   UNL     1      -6.713  -0.299   0.472  0.00  0.00    -0.050 A 
ATOM     14  C   UNL     1      -7.903   0.293   0.089  0.00  0.00    +0.005 A 
ATOM     15  C   UNL     1      -8.070   0.753  -1.200  0.00  0.00    +0.024 A 
ATOM     16  C   UNL     1      -7.039   0.625  -2.128  0.00  0.00    +0.039 A 
ATOM     17  N   UNL     1      -6.966   1.008  -3.469  0.00  0.00    -0.283 N 
ATOM     18  C   UNL     1      -5.776   0.701  -4.021  0.00  0.00    +0.243 C 
ATOM     19  O   UNL     1      -5.431   0.916  -5.164  0.00  0.00    -0.273 OA
ATOM     20  C   UNL     1      -6.537  -0.799   1.882  0.00  0.00    +0.044 C 
ATOM     21  H   UNL     1      -5.288  -1.781  -3.857  0.00  0.00    +0.124 HD
ATOM     22  H   UNL     1      -7.688   1.444  -3.948  0.00  0.00    +0.155 HD
ENDROOT
BRANCH   1  23
ATOM     23  C   UNL     1      -1.433  -0.534   0.013  0.00  0.00    +0.081 C 
ATOM     24  C   UNL     1      -1.413  -2.059   0.130  0.00  0.00    +0.028 C 
BRANCH  23  26
ATOM     25  C   UNL     1      -0.019   1.526   0.010  0.00  0.00    +0.006 C 
ATOM     26  C   UNL     1       0.002  -0.004   0.002  0.00  0.00    +0.019 C 
ENDBRANCH  23  26
ENDBRANCH   1  23
BRANCH   5  27
ATOM     27  C   UNL     1      -2.494  -2.382  -4.214  0.00  0.00    +0.056 C 
BRANCH  27  28
ATOM     28  C   UNL     1      -3.213  -3.456  -4.989  0.00  0.00    -0.021 A 
ATOM     29  C   UNL     1      -3.997  -4.419  -4.480  0.00  0.00    +0.087 A 
ATOM     30  N   UNL     1      -4.477  -5.211  -5.488  0.00  0.00    -0.360 N 
ATOM     31  H   UNL     1      -5.064  -5.973  -5.365  0.00  0.00    +0.165 HD
ATOM     32  C   UNL     1      -4.002  -4.765  -6.700  0.00  0.00    +0.047 A 
ATOM     33  C   UNL     1      -3.194  -3.642  -6.442  0.00  0.00    +0.003 A 
ATOM     34  C   UNL     1      -2.576  -2.970  -7.498  0.00  0.00    +0.010 A 
ATOM     35  C   UNL     1      -2.763  -3.405  -8.780  0.00  0.00    +0.001 A 
ATOM     36  C   UNL     1      -3.561  -4.510  -9.041  0.00  0.00    +0.002 A 
ATOM     37  C   UNL     1      -4.173  -5.193  -8.012  0.00  0.00    +0.026 A 
ENDBRANCH  27  28
ENDBRANCH   5  27
TORSDOF 4
