REMARK  Name = ZINC27376055
REMARK  7 active torsions:
REMARK  status: ('A' for Active; 'I' for Inactive)
REMARK    1  A    between atoms: C_4  and  S_7
REMARK    2  A    between atoms: S_7  and  C_8
REMARK    3  A    between atoms: C_13  and  N_14
REMARK    4  A    between atoms: C_15  and  C_17
REMARK    5  A    between atoms: C_17  and  N_18
REMARK    6  A    between atoms: N_21  and  C_24
REMARK    7  A    between atoms: C_24  and  C_25
REMARK                            x       y       z     vdW  Elec       q    Type
REMARK                         _______ _______ _______ _____ _____    ______ ____
ROOT
ATOM      1  N   UNL     1      -1.159   1.904  -0.231  0.00  0.00    -0.286 N 
ATOM      2  C   UNL     1      -0.056   1.380  -0.801  0.00  0.00    +0.201 C 
ATOM      3  O   UNL     1      -0.073   0.241  -1.219  0.00  0.00    -0.278 OA
ATOM      4  H   UNL     1      -1.121   2.905   0.223  0.00  0.00    +0.155 HD
ENDROOT
BRANCH   1  10
ATOM      5  C   UNL     1      -3.581   1.839  -0.183  0.00  0.00    +0.034 A 
ATOM      6  C   UNL     1      -4.761   1.109  -0.173  0.00  0.00    +0.017 A 
ATOM      7  C   UNL     1      -4.720  -0.273  -0.186  0.00  0.00    +0.001 A 
ATOM      8  C   UNL     1      -3.504  -0.932  -0.213  0.00  0.00    +0.002 A 
ATOM      9  C   UNL     1      -2.323  -0.213  -0.228  0.00  0.00    +0.024 A 
ATOM     10  C   UNL     1      -2.355   1.173  -0.216  0.00  0.00    +0.047 A 
BRANCH   5  11
ATOM     11  S   UNL     1      -3.630   3.600  -0.159  0.00  0.00    -0.088 S 
BRANCH  11  15
ATOM     12  C   UNL     1      -2.494   4.671   4.092  0.00  0.00    +0.000 A 
ATOM     13  C   UNL     1      -2.659   5.670   3.150  0.00  0.00    +0.001 A 
ATOM     14  C   UNL     1      -3.005   5.347   1.853  0.00  0.00    +0.015 A 
ATOM     15  C   UNL     1      -3.189   4.016   1.495  0.00  0.00    +0.013 A 
ATOM     16  C   UNL     1      -3.028   3.016   2.446  0.00  0.00    +0.015 A 
ATOM     17  C   UNL     1      -2.676   3.346   3.740  0.00  0.00    +0.001 A 
ENDBRANCH  11  15
ENDBRANCH   5  11
ENDBRANCH   1  10
BRANCH   2  18
ATOM     18  C   UNL     1       1.195   2.210  -0.924  0.00  0.00    +0.019 C 
BRANCH  18  19
ATOM     19  N   UNL     1       2.244   1.420  -1.581  0.00  0.00    +0.387 N 
ATOM     20  C   UNL     1       2.660   0.290  -0.737  0.00  0.00    -0.063 C 
ATOM     21  C   UNL     1       3.694  -0.551  -1.489  0.00  0.00    +0.066 C 
ATOM     22  N   UNL     1       4.845   0.291  -1.840  0.00  0.00    -0.298 NA
ATOM     23  C   UNL     1       4.430   1.420  -2.684  0.00  0.00    +0.066 C 
ATOM     24  C   UNL     1       3.396   2.262  -1.933  0.00  0.00    -0.063 C 
ATOM     25  H   UNL     1       1.825   1.012  -2.513  0.00  0.00    -0.081 HD
BRANCH  22  26
ATOM     26  C   UNL     1       5.895  -0.499  -2.498  0.00  0.00    +0.180 C 
BRANCH  26  27
ATOM     27  C   UNL     1       6.466  -1.491  -1.516  0.00  0.00    +0.230 C 
ATOM     28  O   UNL     1       6.041  -1.534  -0.382  0.00  0.00    -0.274 OA
ATOM     29  N   UNL     1       7.449  -2.329  -1.900  0.00  0.00    -0.300 N 
ATOM     30  C   UNL     1       7.970  -2.292  -3.273  0.00  0.00    +0.108 C 
ATOM     31  C   UNL     1       9.496  -2.125  -3.213  0.00  0.00    +0.019 C 
ATOM     32  C   UNL     1      10.091  -3.236  -2.344  0.00  0.00    +0.003 C 
ATOM     33  C   UNL     1       9.538  -3.126  -0.922  0.00  0.00    +0.019 C 
ATOM     34  C   UNL     1       8.016  -3.300  -0.955  0.00  0.00    +0.108 C 
ENDBRANCH  26  27
ENDBRANCH  22  26
ENDBRANCH  18  19
ENDBRANCH   2  18
TORSDOF 7
