REMARK  Name = ZINC22627261
REMARK  6 active torsions:
REMARK  status: ('A' for Active; 'I' for Inactive)
REMARK    1  A    between atoms: C_1  and  C_2
REMARK    2  A    between atoms: C_7  and  O_33
REMARK    3  A    between atoms: C_8  and  C_10
REMARK    4  A    between atoms: C_10  and  C_12
REMARK    5  A    between atoms: C_10  and  N_20
REMARK    6  A    between atoms: N_23  and  C_26
REMARK                            x       y       z     vdW  Elec       q    Type
REMARK                         _______ _______ _______ _____ _____    ______ ____
ROOT
ATOM      1  C   UNL     1       1.669   7.546  -1.035  0.00  0.00    +0.129 C 
ENDROOT
BRANCH   1   9
ATOM      2  C   UNL     1       8.341  10.862  -0.699  0.00  0.00    +0.090 C 
ATOM      3  C   UNL     1       7.055  10.099  -0.884  0.00  0.00    +0.150 A 
ATOM      4  N   UNL     1       6.863   9.115  -1.760  0.00  0.00    -0.205 NA
ATOM      5  C   UNL     1       5.638   8.677  -1.655  0.00  0.00    +0.199 A 
ATOM      6  N   UNL     1       4.984   9.378  -0.688  0.00  0.00    -0.173 N 
ATOM      7  N   UNL     1       5.954  10.298  -0.211  0.00  0.00    -0.147 NA
ATOM      8  C   UNL     1       3.672   9.047  -0.448  0.00  0.00    +0.228 A 
ATOM      9  C   UNL     1       3.079   8.066  -1.140  0.00  0.00    +0.076 A 
ATOM     10  S   UNL     1       4.397   7.540  -2.225  0.00  0.00    -0.047 S 
BRANCH   8  11
ATOM     11  O   UNL     1       2.970   9.720   0.503  0.00  0.00    -0.492 OA
ATOM     12  H   UNL     1       1.919   9.459   0.699  0.00  0.00    +0.294 HD
ENDBRANCH   8  11
ENDBRANCH   1   9
BRANCH   1  13
ATOM     13  C   UNL     1       0.861   8.045  -2.206  0.00  0.00    -0.024 A 
ATOM     14  C   UNL     1       0.969   7.422  -3.435  0.00  0.00    +0.007 A 
ATOM     15  C   UNL     1       0.225   7.875  -4.508  0.00  0.00    +0.022 A 
ATOM     16  C   UNL     1      -0.619   8.960  -4.355  0.00  0.00    +0.059 A 
ATOM     17  C   UNL     1      -0.723   9.588  -3.126  0.00  0.00    +0.060 A 
ATOM     18  C   UNL     1       0.018   9.130  -2.051  0.00  0.00    +0.027 A 
ATOM     19 CL   UNL     1      -1.782  10.950  -2.933  0.00  0.00    -0.082 Cl
ATOM     20 CL   UNL     1      -1.548   9.535  -5.705  0.00  0.00    -0.082 Cl
ENDBRANCH   1  13
BRANCH   1  21
ATOM     21  N   UNL     1       1.686   6.078  -1.042  0.00  0.00    -0.288 NA
ATOM     22  C   UNL     1       2.466   5.554   0.088  0.00  0.00    +0.104 C 
ATOM     23  C   UNL     1       2.526   4.028  -0.001  0.00  0.00    +0.120 C 
ATOM     24  N   UNL     1       1.161   3.485   0.009  0.00  0.00    -0.327 N 
ATOM     25  C   UNL     1       0.381   4.008  -1.121  0.00  0.00    +0.120 C 
ATOM     26  C   UNL     1       0.320   5.535  -1.032  0.00  0.00    +0.104 C 
BRANCH  24  27
ATOM     27  C   UNL     1       1.177   2.087   0.002  0.00  0.00    +0.030 A 
ATOM     28  C   UNL     1      -0.017   1.377   0.010  0.00  0.00    +0.026 A 
ATOM     29  C   UNL     1       0.002  -0.004   0.002  0.00  0.00    +0.040 A 
ATOM     30  C   UNL     1       1.210  -0.681  -0.013  0.00  0.00    +0.124 A 
ATOM     31  C   UNL     1       2.401   0.025  -0.021  0.00  0.00    +0.040 A 
ATOM     32  C   UNL     1       2.387   1.406  -0.013  0.00  0.00    +0.026 A 
ATOM     33  F   UNL     1       1.226  -2.032  -0.020  0.00  0.00    -0.205 F 
ENDBRANCH  24  27
ENDBRANCH   1  21
TORSDOF 5
