REMARK  Name = ZINC49520942
REMARK  6 active torsions:
REMARK  status: ('A' for Active; 'I' for Inactive)
REMARK    1  A    between atoms: C_1  and  C_2
REMARK    2  A    between atoms: C_4  and  S_10
REMARK    3  A    between atoms: S_10  and  N_13
REMARK    4  A    between atoms: N_13  and  C_14
REMARK    5  A    between atoms: C_14  and  C_15
REMARK    6  A    between atoms: C_15  and  C_21
REMARK                            x       y       z     vdW  Elec       q    Type
REMARK                         _______ _______ _______ _____ _____    ______ ____
ROOT
ATOM      1  N   UNL     1       2.357  -4.515  -0.341  0.00  0.00    -0.189 NA
ATOM      2  H   UNL     1       3.202  -4.862  -0.016  0.00  0.00    +0.148 HD
ENDROOT
BRANCH   1   3
ATOM      3  S   UNL     1       1.467  -3.486   0.603  0.00  0.00    +0.060 S 
ATOM      4  O   UNL     1       1.113  -2.383  -0.221  0.00  0.00    -0.153 OA
ATOM      5  O   UNL     1       2.183  -3.329   1.820  0.00  0.00    -0.153 OA
BRANCH   3   9
ATOM      6  C   UNL     1      -1.784  -5.664   4.067  0.00  0.00    +0.045 C 
ATOM      7  C   UNL     1      -1.487  -5.300   2.635  0.00  0.00    -0.030 A 
ATOM      8  C   UNL     1      -0.308  -4.650   2.318  0.00  0.00    +0.034 A 
ATOM      9  C   UNL     1      -0.035  -4.315   1.006  0.00  0.00    +0.124 A 
ATOM     10  C   UNL     1      -0.940  -4.631   0.008  0.00  0.00    +0.069 A 
ATOM     11  C   UNL     1      -2.118  -5.282   0.324  0.00  0.00    +0.042 A 
ATOM     12  C   UNL     1      -2.390  -5.621   1.638  0.00  0.00    +0.045 A 
ATOM     13 CL   UNL     1      -3.866  -6.443   2.035  0.00  0.00    -0.083 Cl
ATOM     14 CL   UNL     1      -0.596  -4.211  -1.641  0.00  0.00    -0.081 Cl
ENDBRANCH   3   9
ENDBRANCH   1   3
BRANCH   1  15
ATOM     15  C   UNL     1       1.867  -4.901  -1.667  0.00  0.00    +0.117 C 
BRANCH  15  16
ATOM     16  C   UNL     1       3.009  -5.527  -2.470  0.00  0.00    +0.014 C 
ATOM     17  C   UNL     1       2.524  -5.846  -3.887  0.00  0.00    +0.041 C 
ATOM     18  C   UNL     1       1.401  -6.883  -3.813  0.00  0.00    +0.160 C 
ATOM     19  O   UNL     1       1.878  -8.053  -3.145  0.00  0.00    -0.380 OA
ATOM     20  C   UNL     1       2.301  -7.824  -1.799  0.00  0.00    +0.160 C 
ATOM     21  C   UNL     1       3.461  -6.825  -1.792  0.00  0.00    +0.041 C 
BRANCH  16  22
ATOM     22  C   UNL     1       4.166  -4.564  -2.535  0.00  0.00    -0.040 A 
ATOM     23  C   UNL     1       5.368  -4.885  -1.931  0.00  0.00    +0.007 A 
ATOM     24  C   UNL     1       6.430  -4.003  -1.991  0.00  0.00    +0.038 A 
ATOM     25  C   UNL     1       6.290  -2.797  -2.656  0.00  0.00    +0.123 A 
ATOM     26  C   UNL     1       5.087  -2.476  -3.261  0.00  0.00    +0.038 A 
ATOM     27  C   UNL     1       4.028  -3.362  -3.204  0.00  0.00    +0.007 A 
ATOM     28  F   UNL     1       7.328  -1.933  -2.715  0.00  0.00    -0.205 F 
ENDBRANCH  16  22
ENDBRANCH  15  16
ENDBRANCH   1  15
TORSDOF 5
