REMARK  Name = ZINC36586042
REMARK  18 active torsions:
REMARK  status: ('A' for Active; 'I' for Inactive)
REMARK    1  A    between atoms: C_1  and  C_2
REMARK    2  A    between atoms: C_2  and  C_3
REMARK    3  A    between atoms: C_2  and  C_4
REMARK    4  A    between atoms: C_2  and  C_5
REMARK    5  A    between atoms: C_5  and  C_6
REMARK    6  A    between atoms: C_6  and  C_7
REMARK    7  A    between atoms: C_6  and  C_8
REMARK    8  A    between atoms: C_6  and  N_9
REMARK    9  A    between atoms: C_10  and  C_12
REMARK   10  A    between atoms: C_12  and  C_14
REMARK   11  A    between atoms: C_12  and  N_21
REMARK   12  A    between atoms: C_17  and  O_20
REMARK   13  A    between atoms: N_21  and  C_32
REMARK   14  A    between atoms: C_22  and  C_24
REMARK   15  A    between atoms: C_25  and  C_26
REMARK   16  A    between atoms: C_32  and  C_33
REMARK   17  A    between atoms: C_32  and  C_34
REMARK   18  A    between atoms: C_32  and  C_35
REMARK                            x       y       z     vdW  Elec       q    Type
REMARK                         _______ _______ _______ _____ _____    ______ ____
ROOT
ATOM      1  C   UNL     1       5.616  -0.704  -4.587  0.00  0.00    +0.194 C 
ENDROOT
BRANCH   1   2
ATOM      2  C   UNL     1       5.019   0.028  -5.762  0.00  0.00    -0.018 A 
ATOM      3  C   UNL     1       5.461   1.299  -6.080  0.00  0.00    +0.009 A 
ATOM      4  C   UNL     1       4.915   1.972  -7.155  0.00  0.00    +0.046 A 
ATOM      5  C   UNL     1       3.924   1.371  -7.918  0.00  0.00    +0.117 A 
ATOM      6  C   UNL     1       3.483   0.095  -7.597  0.00  0.00    +0.046 A 
ATOM      7  C   UNL     1       4.036  -0.576  -6.523  0.00  0.00    +0.009 A 
BRANCH   5   8
ATOM      8  O   UNL     1       3.385   2.031  -8.976  0.00  0.00    -0.507 OA
ATOM      9  H   UNL     1       3.845   1.877  -9.812  0.00  0.00    +0.292 HD
ENDBRANCH   5   8
ENDBRANCH   1   2
BRANCH   1  11
ATOM     10  N   UNL     1       3.526  -0.735  -3.265  0.00  0.00    -0.308 N 
ATOM     11  C   UNL     1       4.826  -0.388  -3.344  0.00  0.00    +0.239 C 
ATOM     12  O   UNL     1       5.359   0.179  -2.414  0.00  0.00    -0.273 OA
ATOM     13  H   UNL     1       3.099  -1.188  -4.009  0.00  0.00    +0.149 HD
BRANCH  10  14
ATOM     14  C   UNL     1       2.757  -0.427  -2.057  0.00  0.00    +0.030 C 
ATOM     15  C   UNL     1       3.042   1.012  -1.624  0.00  0.00    +0.031 C 
ATOM     16  C   UNL     1       3.164  -1.386  -0.936  0.00  0.00    +0.031 C 
BRANCH  14  17
ATOM     17  C   UNL     1       1.264  -0.587  -2.348  0.00  0.00    +0.031 C 
BRANCH  17  19
ATOM     18  C   UNL     1       1.279  -0.904  -4.826  0.00  0.00    +0.010 C 
ATOM     19  C   UNL     1       0.934   0.064  -3.692  0.00  0.00    -0.036 C 
ATOM     20  C   UNL     1       1.750   1.348  -3.851  0.00  0.00    +0.010 C 
ATOM     21  C   UNL     1      -0.558   0.398  -3.744  0.00  0.00    +0.010 C 
ENDBRANCH  17  19
ENDBRANCH  14  17
ENDBRANCH  10  14
ENDBRANCH   1  11
BRANCH   1  22
ATOM     22  N   UNL     1       7.007  -0.280  -4.403  0.00  0.00    -0.270 N 
ATOM     23  C   UNL     1       7.279   0.965  -3.966  0.00  0.00    +0.293 C 
ATOM     24  O   UNL     1       6.370   1.719  -3.670  0.00  0.00    -0.260 OA
BRANCH  22  25
ATOM     25  C   UNL     1       8.101  -1.210  -4.695  0.00  0.00    +0.031 C 
ATOM     26  C   UNL     1       7.523  -2.580  -5.053  0.00  0.00    +0.031 C 
ATOM     27  C   UNL     1       8.922  -0.678  -5.871  0.00  0.00    +0.031 C 
ATOM     28  C   UNL     1       9.000  -1.341  -3.464  0.00  0.00    +0.031 C 
ENDBRANCH  22  25
BRANCH  23  29
ATOM     29  C   UNL     1       8.638   1.402  -3.848  0.00  0.00    -0.003 C 
ATOM     30  C   UNL     1       9.752   1.760  -3.752  0.00  0.00    -0.057 C 
BRANCH  30  31
ATOM     31  C   UNL     1      11.111   2.196  -3.635  0.00  0.00    +0.025 A 
ATOM     32  C   UNL     1      12.157   1.335  -3.979  0.00  0.00    +0.017 A 
ATOM     33  C   UNL     1      13.463   1.763  -3.864  0.00  0.00    +0.001 A 
ATOM     34  C   UNL     1      13.739   3.041  -3.409  0.00  0.00    +0.000 A 
ATOM     35  C   UNL     1      12.708   3.899  -3.066  0.00  0.00    +0.001 A 
ATOM     36  C   UNL     1      11.397   3.488  -3.181  0.00  0.00    +0.017 A 
ENDBRANCH  30  31
ENDBRANCH  23  29
ENDBRANCH   1  22
TORSDOF 10
