REMARK  Name = ZINC62427319
REMARK  8 active torsions:
REMARK  status: ('A' for Active; 'I' for Inactive)
REMARK    1  A    between atoms: C_1  and  O_2
REMARK    2  A    between atoms: O_2  and  C_3
REMARK    3  A    between atoms: C_5  and  C_12
REMARK    4  A    between atoms: C_7  and  O_10
REMARK    5  A    between atoms: C_8  and  O_9
REMARK    6  A    between atoms: O_10  and  C_11
REMARK    7  A    between atoms: C_12  and  N_13
REMARK    8  A    between atoms: N_16  and  C_17
REMARK                            x       y       z     vdW  Elec       q    Type
REMARK                         _______ _______ _______ _____ _____    ______ ____
ROOT
ATOM      1  N   UNL     1       1.472   0.587   5.255  0.00  0.00    -0.295 N 
ATOM      2  C   UNL     1       1.812   1.303   6.345  0.00  0.00    +0.304 C 
ATOM      3  O   UNL     1       2.939   1.746   6.455  0.00  0.00    -0.252 OA
ATOM      4  N   UNL     1       0.902   1.527   7.314  0.00  0.00    -0.269 N 
ATOM      5  H   UNL     1       0.573   0.234   5.167  0.00  0.00    +0.151 HD
ATOM      6  H   UNL     1      -0.014   1.232   7.197  0.00  0.00    +0.156 HD
ENDROOT
BRANCH   4   7
ATOM      7  C   UNL     1       1.280   2.187   8.491  0.00  0.00    +0.036 A 
ATOM      8  C   UNL     1       2.229   3.207   8.441  0.00  0.00    +0.027 A 
ATOM      9  C   UNL     1       2.612   3.865   9.589  0.00  0.00    +0.049 A 
ATOM     10  C   UNL     1       2.053   3.515  10.812  0.00  0.00    +0.139 A 
ATOM     11  C   UNL     1       1.095   2.487  10.867  0.00  0.00    +0.019 A 
ATOM     12  C   UNL     1       0.708   1.828   9.697  0.00  0.00    +0.035 A 
ATOM     13  C   UNL     1       0.512   2.127  12.164  0.00  0.00    +0.018 A 
ATOM     14  C   UNL     1       0.925   2.807  13.263  0.00  0.00    +0.092 A 
ATOM     15  C   UNL     1       1.891   3.828  13.134  0.00  0.00    +0.337 A 
ATOM     16  O   UNL     1       2.254   4.430  14.129  0.00  0.00    -0.245 OA
ATOM     17  O   UNL     1       2.420   4.152  11.945  0.00  0.00    -0.422 OA
ENDBRANCH   4   7
BRANCH   1  18
ATOM     18  C   UNL     1       2.461   0.343   4.202  0.00  0.00    +0.141 C 
BRANCH  18  21
ATOM     19  C   UNL     1       0.625  -0.592   1.033  0.00  0.00    +0.165 A 
ATOM     20  C   UNL     1       1.204   0.157   2.046  0.00  0.00    +0.054 A 
ATOM     21  C   UNL     1       1.833  -0.475   3.103  0.00  0.00    -0.023 A 
ATOM     22  C   UNL     1       1.887  -1.855   3.154  0.00  0.00    +0.054 A 
ATOM     23  C   UNL     1       1.310  -2.611   2.144  0.00  0.00    +0.165 A 
ATOM     24  C   UNL     1       0.672  -1.980   1.083  0.00  0.00    +0.201 A 
BRANCH  19  26
ATOM     25  C   UNL     1      -0.004   1.460   0.008  0.00  0.00    +0.277 C 
ATOM     26  O   UNL     1       0.007   0.031  -0.006  0.00  0.00    -0.491 OA
ENDBRANCH  19  26
BRANCH  24  27
ATOM     27  O   UNL     1       0.101  -2.718   0.094  0.00  0.00    -0.501 OA
ATOM     28  H   UNL     1       0.697  -2.922  -0.640  0.00  0.00    +0.292 HD
ENDBRANCH  24  27
BRANCH  23  29
ATOM     29  O   UNL     1       1.365  -3.969   2.195  0.00  0.00    -0.491 OA
ATOM     30  C   UNL     1       2.032  -4.550   3.317  0.00  0.00    +0.277 C 
ENDBRANCH  23  29
ENDBRANCH  18  21
ENDBRANCH   1  18
TORSDOF 6
