REMARK  Name = ZINC61361508
REMARK  5 active torsions:
REMARK  status: ('A' for Active; 'I' for Inactive)
REMARK    1  A    between atoms: C_1  and  C_2
REMARK    2  A    between atoms: C_2  and  C_4
REMARK    3  A    between atoms: C_2  and  N_9
REMARK    4  A    between atoms: N_9  and  C_10
REMARK    5  A    between atoms: C_10  and  C_11
REMARK                            x       y       z     vdW  Elec       q    Type
REMARK                         _______ _______ _______ _____ _____    ______ ____
ROOT
ATOM      1  N   UNL     1      -1.376  -0.512   0.012  0.00  0.00    +0.388 N 
ATOM      2  H   UNL     1      -1.888  -0.113  -0.760  0.00  0.00    -0.084 HD
ATOM      3  H   UNL     1      -1.364  -1.518  -0.076  0.00  0.00    -0.084 HD
ENDROOT
BRANCH   1   5
ATOM      4  C   UNL     1      -0.019   1.526   0.010  0.00  0.00    -0.009 C 
ATOM      5  C   UNL     1       0.002  -0.004   0.002  0.00  0.00    -0.043 C 
BRANCH   5   6
ATOM      6  C   UNL     1       0.707  -0.490  -1.238  0.00  0.00    -0.055 A 
ATOM      7  C   UNL     1       2.024  -0.906  -1.178  0.00  0.00    +0.009 A 
ATOM      8  C   UNL     1       2.629  -1.338  -2.312  0.00  0.00    +0.045 A 
ATOM      9  S   UNL     1       1.324  -1.162  -3.517  0.00  0.00    -0.105 S 
ATOM     10  C   UNL     1       0.058  -0.531  -2.427  0.00  0.00    +0.047 A 
ENDBRANCH   5   6
ENDBRANCH   1   5
BRANCH   1  11
ATOM     11  C   UNL     1      -2.026  -0.140   1.276  0.00  0.00    -0.006 C 
BRANCH  11  12
ATOM     12  C   UNL     1      -3.440  -0.661   1.287  0.00  0.00    +0.090 A 
ATOM     13  C   UNL     1      -3.832  -1.862   1.750  0.00  0.00    +0.044 A 
ATOM     14  C   UNL     1      -5.232  -1.934   1.567  0.00  0.00    +0.056 A 
ATOM     15  C   UNL     1      -5.612  -0.773   1.002  0.00  0.00    +0.165 A 
ATOM     16  O   UNL     1      -4.523  -0.004   0.840  0.00  0.00    -0.456 OA
ATOM     17  I   UNL     1      -7.571  -0.251   0.474  0.00  0.00    -0.001 I 
ENDBRANCH  11  12
ENDBRANCH   1  11
TORSDOF 4
