REMARK  Name = ZINC13151219
REMARK  13 active torsions:
REMARK  status: ('A' for Active; 'I' for Inactive)
REMARK    1  A    between atoms: C_1  and  C_2
REMARK    2  A    between atoms: C_2  and  C_3
REMARK    3  A    between atoms: C_3  and  C_5
REMARK    4  A    between atoms: C_3  and  N_17
REMARK    5  A    between atoms: N_9  and  C_10
REMARK    6  A    between atoms: C_10  and  C_11
REMARK    7  A    between atoms: N_17  and  C_18
REMARK    8  A    between atoms: N_17  and  C_22
REMARK    9  A    between atoms: C_18  and  C_19
REMARK   10  A    between atoms: C_19  and  C_20
REMARK   11  A    between atoms: C_20  and  O_21
REMARK   12  A    between atoms: C_22  and  C_23
REMARK   13  A    between atoms: C_29  and  C_35
REMARK                            x       y       z     vdW  Elec       q    Type
REMARK                         _______ _______ _______ _____ _____    ______ ____
ROOT
ATOM      1  N   UNL     1      -2.224  -0.255   1.317  0.00  0.00    +0.389 N 
ATOM      2  H   UNL     1      -1.678  -0.469   2.138  0.00  0.00    -0.080 HD
ENDROOT
BRANCH   1   3
ATOM      3  C   UNL     1      -1.456  -0.601   0.114  0.00  0.00    +0.003 C 
BRANCH   3   4
ATOM      4  C   UNL     1      -2.250  -0.233  -1.112  0.00  0.00    +0.138 A 
ATOM      5  N   UNL     1      -3.524  -0.464  -1.318  0.00  0.00    -0.115 NA
ATOM      6  N   UNL     1      -3.830   0.000  -2.480  0.00  0.00    -0.023 NA
ATOM      7  N   UNL     1      -2.785   0.520  -3.022  0.00  0.00    -0.044 NA
ATOM      8  N   UNL     1      -1.791   0.401  -2.207  0.00  0.00    -0.228 N 
BRANCH   8   9
ATOM      9  C   UNL     1      -0.420   0.866  -2.433  0.00  0.00    +0.178 C 
BRANCH   9  10
ATOM     10  C   UNL     1       0.389  -0.243  -3.108  0.00  0.00    +0.140 C 
ATOM     11  C   UNL     1       1.865   0.192  -3.241  0.00  0.00    +0.035 C 
ATOM     12  C   UNL     1       2.246  -0.359  -4.642  0.00  0.00    +0.031 C 
ATOM     13  C   UNL     1       0.905  -0.188  -5.400  0.00  0.00    +0.160 C 
ATOM     14  O   UNL     1      -0.115  -0.478  -4.428  0.00  0.00    -0.375 OA
ENDBRANCH   9  10
ENDBRANCH   8   9
ENDBRANCH   3   4
BRANCH   3  16
ATOM     15  C   UNL     1      -0.299  -2.465   1.310  0.00  0.00    +0.002 C 
ATOM     16  C   UNL     1      -1.171  -2.104   0.105  0.00  0.00    -0.011 C 
ENDBRANCH   3  16
ENDBRANCH   1   3
BRANCH   1  17
ATOM     17  C   UNL     1      -2.542   1.179   1.300  0.00  0.00    -0.075 C 
BRANCH  17  18
ATOM     18  C   UNL     1      -1.248   1.990   1.389  0.00  0.00    +0.009 C 
BRANCH  18  19
ATOM     19  C   UNL     1      -1.585   3.478   1.502  0.00  0.00    +0.154 C 
BRANCH  19  20
ATOM     20  O   UNL     1      -0.376   4.235   1.585  0.00  0.00    -0.395 OA
ATOM     21  H   UNL     1      -0.514   5.189   1.659  0.00  0.00    +0.209 HD
ENDBRANCH  19  20
ENDBRANCH  18  19
ENDBRANCH  17  18
ENDBRANCH   1  17
BRANCH   1  22
ATOM     22  C   UNL     1      -3.470  -1.033   1.343  0.00  0.00    -0.037 C 
BRANCH  22  23
ATOM     23  C   UNL     1      -4.182  -0.798   2.650  0.00  0.00    +0.001 A 
ATOM     24  C   UNL     1      -5.165   0.133   2.726  0.00  0.00    +0.017 A 
ATOM     25  C   UNL     1      -5.838   0.337   4.010  0.00  0.00    -0.001 A 
ATOM     26  C   UNL     1      -6.859   1.283   4.150  0.00  0.00    +0.010 A 
ATOM     27  C   UNL     1      -7.467   1.449   5.362  0.00  0.00    +0.001 A 
ATOM     28  C   UNL     1      -7.080   0.687   6.457  0.00  0.00    +0.005 A 
ATOM     29  C   UNL     1      -6.076  -0.250   6.342  0.00  0.00    -0.026 A 
ATOM     30  C   UNL     1      -5.443  -0.437   5.117  0.00  0.00    +0.052 A 
ATOM     31  N   UNL     1      -4.436  -1.368   4.974  0.00  0.00    -0.322 N 
ATOM     32  H   UNL     1      -4.166  -1.901   5.738  0.00  0.00    +0.169 HD
ATOM     33  C   UNL     1      -3.828  -1.552   3.789  0.00  0.00    +0.251 A 
ATOM     34  O   UNL     1      -2.946  -2.387   3.698  0.00  0.00    -0.268 OA
ATOM     35  C   UNL     1      -5.666  -1.069   7.539  0.00  0.00    +0.046 C 
ENDBRANCH  22  23
ENDBRANCH   1  22
TORSDOF 11
