REMARK  Name = ZINC23530707
REMARK  8 active torsions:
REMARK  status: ('A' for Active; 'I' for Inactive)
REMARK    1  A    between atoms: C_1  and  C_2
REMARK    2  A    between atoms: C_2  and  C_4
REMARK    3  A    between atoms: C_9  and  N_10
REMARK    4  A    between atoms: C_11  and  C_13
REMARK    5  A    between atoms: C_13  and  O_14
REMARK    6  A    between atoms: O_14  and  C_15
REMARK    7  A    between atoms: C_15  and  C_17
REMARK    8  A    between atoms: C_22  and  O_23
REMARK                            x       y       z     vdW  Elec       q    Type
REMARK                         _______ _______ _______ _____ _____    ______ ____
ROOT
ATOM      1  N   UNL     1       4.489   8.316   0.004  0.00  0.00    -0.282 N 
ATOM      2  C   UNL     1       3.438   7.473   0.014  0.00  0.00    +0.255 C 
ATOM      3  O   UNL     1       2.308   7.913   0.042  0.00  0.00    -0.272 OA
ATOM      4  H   UNL     1       5.513   7.920   0.071  0.00  0.00    +0.155 HD
ENDROOT
BRANCH   1  10
ATOM      5  C   UNL     1       5.236  10.587   0.416  0.00  0.00    +0.042 A 
ATOM      6  C   UNL     1       5.018  11.969   0.308  0.00  0.00    +0.062 A 
ATOM      7  C   UNL     1       3.866  12.440  -0.282  0.00  0.00    +0.167 A 
ATOM      8  C   UNL     1       2.914  11.544  -0.781  0.00  0.00    +0.168 A 
ATOM      9  C   UNL     1       3.125  10.177  -0.684  0.00  0.00    +0.073 A 
ATOM     10  C   UNL     1       4.279   9.690  -0.093  0.00  0.00    +0.048 A 
ATOM     11  O   UNL     1       1.880  12.259  -1.308  0.00  0.00    -0.453 OA
ATOM     12  C   UNL     1       2.389  13.591  -1.499  0.00  0.00    +0.466 C 
ATOM     13  O   UNL     1       3.420  13.713  -0.501  0.00  0.00    -0.453 OA
BRANCH   5  15
ATOM     14  C   UNL     1       7.428  11.041   1.686  0.00  0.00    +0.091 C 
ATOM     15  C   UNL     1       6.456  10.082   1.048  0.00  0.00    +0.162 C 
ATOM     16  O   UNL     1       6.685   8.890   1.060  0.00  0.00    -0.292 OA
ENDBRANCH   5  15
ENDBRANCH   1  10
BRANCH   2  17
ATOM     17  C   UNL     1       3.666   5.984  -0.009  0.00  0.00    +0.328 C 
BRANCH  17  18
ATOM     18  O   UNL     1       2.386   5.298   0.008  0.00  0.00    -0.452 OA
BRANCH  18  19
ATOM     19  C   UNL     1       2.414   3.951  -0.009  0.00  0.00    +0.343 C 
ATOM     20  O   UNL     1       3.479   3.365  -0.037  0.00  0.00    -0.245 OA
BRANCH  19  21
ATOM     21  C   UNL     1       1.154   3.187   0.007  0.00  0.00    +0.101 A 
ATOM     22  C   UNL     1      -0.073   3.856   0.040  0.00  0.00    +0.034 A 
ATOM     23  C   UNL     1      -1.248   3.136   0.055  0.00  0.00    +0.019 A 
ATOM     24  C   UNL     1      -1.219   1.750   0.032  0.00  0.00    +0.019 A 
ATOM     25  C   UNL     1      -0.014   1.077   0.005  0.00  0.00    +0.047 A 
ATOM     26  C   UNL     1       1.178   1.786  -0.010  0.00  0.00    +0.131 A 
ATOM     27 BR   UNL     1      -2.907   4.042   0.099  0.00  0.00    -0.050 Br
BRANCH  26  28
ATOM     28  O   UNL     1       2.362   1.125  -0.043  0.00  0.00    -0.506 OA
ATOM     29  H   UNL     1       2.379   0.025  -0.056  0.00  0.00    +0.292 HD
ENDBRANCH  26  28
ENDBRANCH  19  21
ENDBRANCH  18  19
ENDBRANCH  17  18
ENDBRANCH   2  17
TORSDOF 7
