REMARK  Name = ZINC43639811
REMARK  5 active torsions:
REMARK  status: ('A' for Active; 'I' for Inactive)
REMARK    1  A    between atoms: C_1  and  C_2
REMARK    2  A    between atoms: C_2  and  C_3
REMARK    3  A    between atoms: C_6  and  C_8
REMARK    4  A    between atoms: C_8  and  C_10
REMARK    5  A    between atoms: C_8  and  N_21
REMARK                            x       y       z     vdW  Elec       q    Type
REMARK                         _______ _______ _______ _____ _____    ______ ____
ROOT
ATOM      1  C   UNL     1       3.550  -1.835   4.021  0.00  0.00    -0.006 C 
ENDROOT
BRANCH   1   2
ATOM      2  C   UNL     1       3.871  -3.276   3.717  0.00  0.00    -0.055 A 
ATOM      3  C   UNL     1       4.654  -3.591   2.621  0.00  0.00    +0.006 A 
ATOM      4  C   UNL     1       4.955  -4.910   2.336  0.00  0.00    +0.048 A 
ATOM      5  C   UNL     1       4.471  -5.919   3.151  0.00  0.00    +0.142 A 
ATOM      6  C   UNL     1       3.681  -5.602   4.255  0.00  0.00    +0.076 A 
ATOM      7  C   UNL     1       3.389  -4.278   4.539  0.00  0.00    +0.029 A 
ATOM      8  N   UNL     1       3.196  -6.634   5.070  0.00  0.00    -0.280 N 
ATOM      9  C   UNL     1       3.745  -7.863   4.967  0.00  0.00    +0.255 C 
ATOM     10  O   UNL     1       3.320  -8.779   5.639  0.00  0.00    -0.272 OA
ATOM     11  C   UNL     1       4.889  -8.093   4.012  0.00  0.00    +0.325 C 
ATOM     12  O   UNL     1       4.758  -7.222   2.886  0.00  0.00    -0.481 OA
ATOM     13  H   UNL     1       2.476  -6.467   5.699  0.00  0.00    +0.155 HD
ENDBRANCH   1   2
BRANCH   1  17
ATOM     14  C   UNL     1       0.731  -0.503   1.223  0.00  0.00    -0.010 A 
ATOM     15  C   UNL     1       0.236  -0.806   2.448  0.00  0.00    +0.011 A 
ATOM     16  C   UNL     1       1.102  -1.254   3.429  0.00  0.00    +0.010 A 
ATOM     17  C   UNL     1       2.420  -1.375   3.136  0.00  0.00    -0.020 A 
ATOM     18  S   UNL     1       2.469  -0.856   1.429  0.00  0.00    -0.100 S 
BRANCH  14  20
ATOM     19  C   UNL     1      -0.019   1.526   0.010  0.00  0.00    +0.009 C 
ATOM     20  C   UNL     1       0.002  -0.004   0.002  0.00  0.00    +0.039 C 
ENDBRANCH  14  20
ENDBRANCH   1  17
BRANCH   1  21
ATOM     21  N   UNL     1       4.736  -1.005   3.772  0.00  0.00    +0.386 N 
ATOM     22  H   UNL     1       4.520  -0.041   3.975  0.00  0.00    -0.089 HD
ATOM     23  H   UNL     1       5.492  -1.313   4.364  0.00  0.00    -0.089 HD
ATOM     24  H   UNL     1       5.010  -1.092   2.805  0.00  0.00    -0.089 HD
ENDBRANCH   1  21
TORSDOF 4
