REMARK  Name = ZINC02762443
REMARK  9 active torsions:
REMARK  status: ('A' for Active; 'I' for Inactive)
REMARK    1  A    between atoms: C_1  and  O_2
REMARK    2  A    between atoms: O_2  and  C_3
REMARK    3  A    between atoms: C_4  and  O_24
REMARK    4  A    between atoms: C_7  and  C_9
REMARK    5  A    between atoms: N_10  and  N_11
REMARK    6  A    between atoms: C_12  and  C_13
REMARK    7  A    between atoms: C_16  and  O_21
REMARK    8  A    between atoms: C_17  and  O_19
REMARK    9  A    between atoms: O_19  and  C_20
REMARK                            x       y       z     vdW  Elec       q    Type
REMARK                         _______ _______ _______ _____ _____    ______ ____
ROOT
ATOM      1  C   UNL     1       2.392   0.343  -4.215  0.00  0.00    +0.143 C 
ATOM      2  N   UNL     1       2.972  -0.242  -5.231  0.00  0.00    -0.157 NA
ENDROOT
BRANCH   1   7
ATOM      3  C   UNL     1       0.606  -0.608  -1.056  0.00  0.00    +0.163 A 
ATOM      4  C   UNL     1       0.656  -1.999  -1.130  0.00  0.00    +0.177 A 
ATOM      5  C   UNL     1       1.272  -2.620  -2.209  0.00  0.00    +0.087 A 
ATOM      6  C   UNL     1       1.837  -1.863  -3.214  0.00  0.00    +0.033 A 
ATOM      7  C   UNL     1       1.791  -0.466  -3.147  0.00  0.00    -0.000 A 
ATOM      8  C   UNL     1       1.165   0.158  -2.061  0.00  0.00    +0.059 A 
ATOM      9 CL   UNL     1       1.330  -4.353  -2.293  0.00  0.00    -0.080 Cl
BRANCH   3  11
ATOM     10  C   UNL     1      -0.017   1.425   0.010  0.00  0.00    +0.277 C 
ATOM     11  O   UNL     1       0.002  -0.004   0.002  0.00  0.00    -0.491 OA
ENDBRANCH   3  11
BRANCH   4  12
ATOM     12  O   UNL     1       0.100  -2.749  -0.143  0.00  0.00    -0.502 OA
ATOM     13  H   UNL     1      -0.829  -2.971  -0.293  0.00  0.00    +0.292 HD
ENDBRANCH   4  12
ENDBRANCH   1   7
BRANCH   2  14
ATOM     14  N   UNL     1       3.500   0.469  -6.169  0.00  0.00    -0.157 NA
ATOM     15  C   UNL     1       4.080  -0.117  -7.185  0.00  0.00    +0.143 C 
BRANCH  15  16
ATOM     16  C   UNL     1       4.682   0.693  -8.254  0.00  0.00    -0.000 A 
ATOM     17  C   UNL     1       4.641   2.090  -8.184  0.00  0.00    +0.033 A 
ATOM     18  C   UNL     1       5.206   2.847  -9.188  0.00  0.00    +0.087 A 
ATOM     19  C   UNL     1       5.817   2.225 -10.271  0.00  0.00    +0.177 A 
ATOM     20  C   UNL     1       5.862   0.835 -10.347  0.00  0.00    +0.163 A 
ATOM     21  C   UNL     1       5.303   0.069  -9.342  0.00  0.00    +0.059 A 
ATOM     22 CL   UNL     1       5.154   4.580  -9.101  0.00  0.00    -0.080 Cl
BRANCH  20  23
ATOM     23  O   UNL     1       6.460   0.231 -11.408  0.00  0.00    -0.491 OA
ATOM     24  C   UNL     1       6.470  -1.198 -11.422  0.00  0.00    +0.277 C 
ENDBRANCH  20  23
BRANCH  19  25
ATOM     25  O   UNL     1       6.372   2.976 -11.258  0.00  0.00    -0.502 OA
ATOM     26  H   UNL     1       7.302   3.195 -11.110  0.00  0.00    +0.292 HD
ENDBRANCH  19  25
ENDBRANCH  15  16
ENDBRANCH   2  14
TORSDOF 7
