REMARK  Name = ZINC47872121
REMARK  12 active torsions:
REMARK  status: ('A' for Active; 'I' for Inactive)
REMARK    1  A    between atoms: C_1  and  C_2
REMARK    2  A    between atoms: C_7  and  N_12
REMARK    3  A    between atoms: C_9  and  C_11
REMARK    4  A    between atoms: N_12  and  C_13
REMARK    5  A    between atoms: C_13  and  N_15
REMARK    6  A    between atoms: N_15  and  N_16
REMARK    7  A    between atoms: C_17  and  C_19
REMARK    8  A    between atoms: C_19  and  C_21
REMARK    9  A    between atoms: C_19  and  N_24
REMARK   10  A    between atoms: C_21  and  C_22
REMARK   11  A    between atoms: C_21  and  C_23
REMARK   12  A    between atoms: C_25  and  C_27
REMARK                            x       y       z     vdW  Elec       q    Type
REMARK                         _______ _______ _______ _____ _____    ______ ____
ROOT
ATOM      1  N   UNL     1       2.091  -1.291   6.195  0.00  0.00    -0.234 N 
ATOM      2  C   UNL     1       2.778  -1.915   7.173  0.00  0.00    +0.250 C 
ATOM      3  O   UNL     1       2.840  -1.422   8.280  0.00  0.00    -0.272 OA
ATOM      4  H   UNL     1       2.102  -1.647   5.293  0.00  0.00    +0.173 HD
ENDROOT
BRANCH   1   5
ATOM      5  N   UNL     1       1.362  -0.130   6.482  0.00  0.00    -0.246 N 
ATOM      6  H   UNL     1       1.352   0.226   7.385  0.00  0.00    +0.172 HD
BRANCH   5   7
ATOM      7  C   UNL     1       0.676   0.493   5.504  0.00  0.00    +0.147 C 
ATOM      8  S   UNL     1      -0.215   1.913   5.854  0.00  0.00    -0.017 S 
BRANCH   7   9
ATOM      9  N   UNL     1       0.690  -0.001   4.250  0.00  0.00    -0.322 N 
ATOM     10  H   UNL     1       1.195  -0.805   4.052  0.00  0.00    +0.148 HD
BRANCH   9  16
ATOM     11  C   UNL     1      -0.161   2.569   0.953  0.00  0.00    +0.008 C 
ATOM     12  C   UNL     1      -0.204   1.057   0.722  0.00  0.00    -0.009 C 
ATOM     13  C   UNL     1      -1.658   0.580   0.736  0.00  0.00    +0.003 C 
ATOM     14  C   UNL     1      -2.289   0.908   2.091  0.00  0.00    +0.002 C 
ATOM     15  C   UNL     1      -1.510   0.200   3.201  0.00  0.00    +0.022 C 
ATOM     16  C   UNL     1      -0.056   0.677   3.187  0.00  0.00    +0.075 C 
ATOM     17  C   UNL     1       0.575   0.350   1.833  0.00  0.00    +0.009 C 
ATOM     18  C   UNL     1       2.029   0.827   1.819  0.00  0.00    +0.009 C 
ENDBRANCH   9  16
ENDBRANCH   7   9
ENDBRANCH   5   7
ENDBRANCH   1   5
BRANCH   2  19
ATOM     19  C   UNL     1       3.469  -3.224   6.892  0.00  0.00    +0.163 C 
BRANCH  19  20
ATOM     20  N   UNL     1       3.566  -4.001   8.131  0.00  0.00    -0.297 N 
ATOM     21  C   UNL     1       3.663  -5.344   8.078  0.00  0.00    +0.280 C 
ATOM     22  O   UNL     1       3.671  -5.912   7.002  0.00  0.00    -0.267 OA
ATOM     23  H   UNL     1       3.559  -3.548   8.989  0.00  0.00    +0.150 HD
BRANCH  21  24
ATOM     24  C   UNL     1       3.761  -6.121   9.318  0.00  0.00    +0.189 A 
ATOM     25  C   UNL     1       3.870  -7.480   9.407  0.00  0.00    +0.054 A 
ATOM     26  C   UNL     1       3.935  -7.791  10.774  0.00  0.00    +0.042 A 
ATOM     27  C   UNL     1       3.864  -6.623  11.451  0.00  0.00    +0.196 A 
ATOM     28  O   UNL     1       3.764  -5.620  10.570  0.00  0.00    -0.458 OA
ENDBRANCH  21  24
ENDBRANCH  19  20
BRANCH  19  29
ATOM     29  C   UNL     1       4.873  -2.954   6.348  0.00  0.00    +0.012 C 
ATOM     30  C   UNL     1       4.768  -2.256   4.991  0.00  0.00    +0.009 C 
ATOM     31  C   UNL     1       5.634  -2.056   7.326  0.00  0.00    +0.009 C 
ENDBRANCH  19  29
ENDBRANCH   2  19
TORSDOF 8
