REMARK  Name = ZINC21239938
REMARK  8 active torsions:
REMARK  status: ('A' for Active; 'I' for Inactive)
REMARK    1  A    between atoms: C_1  and  C_2
REMARK    2  A    between atoms: C_2  and  O_3
REMARK    3  A    between atoms: O_3  and  C_4
REMARK    4  A    between atoms: C_7  and  C_13
REMARK    5  A    between atoms: C_9  and  O_10
REMARK    6  A    between atoms: O_10  and  C_11
REMARK    7  A    between atoms: C_11  and  C_12
REMARK    8  A    between atoms: C_18  and  C_23
REMARK                            x       y       z     vdW  Elec       q    Type
REMARK                         _______ _______ _______ _____ _____    ______ ____
ROOT
ATOM      1  C   UNL     1       3.671   2.193  -0.021  0.00  0.00    +0.136 C 
ATOM      2  C   UNL     1       3.965   2.649   1.389  0.00  0.00    +0.036 C 
ATOM      3  C   UNL     1       3.902   3.913   1.838  0.00  0.00    +0.017 C 
ATOM      4  C   UNL     1       4.186   4.224   3.299  0.00  0.00    +0.059 C 
ATOM      5  C   UNL     1       5.239   3.261   3.841  0.00  0.00    +0.032 C 
ATOM      6  C   UNL     1       4.686   1.838   3.701  0.00  0.00    +0.088 C 
ATOM      7  C   UNL     1       4.335   1.600   2.263  0.00  0.00    +0.163 C 
ATOM      8  O   UNL     1       4.371   0.464   1.832  0.00  0.00    -0.292 OA
ATOM      9  N   UNL     1       3.582   4.992   1.081  0.00  0.00    -0.316 N 
ATOM     10  C   UNL     1       2.505   5.053   0.204  0.00  0.00    +0.052 A 
ATOM     11  C   UNL     1       1.471   5.959   0.367  0.00  0.00    +0.025 A 
ATOM     12  C   UNL     1       0.483   6.042  -0.599  0.00  0.00    +0.002 A 
ATOM     13  C   UNL     1       0.529   5.226  -1.715  0.00  0.00    +0.002 A 
ATOM     14  C   UNL     1       1.551   4.306  -1.869  0.00  0.00    +0.025 A 
ATOM     15  C   UNL     1       2.532   4.209  -0.896  0.00  0.00    +0.049 A 
ATOM     16  N   UNL     1       3.556   3.267  -0.985  0.00  0.00    -0.331 N 
ATOM     17  H   UNL     1       4.195   5.904   1.136  0.00  0.00    +0.152 HD
ATOM     18  H   UNL     1       4.284   3.350  -1.805  0.00  0.00    +0.147 HD
ENDROOT
BRANCH   1  22
ATOM     19  C   UNL     1       0.002  -0.004   0.004  0.00  0.00    +0.162 A 
ATOM     20  C   UNL     1       0.005   1.348   0.305  0.00  0.00    +0.050 A 
ATOM     21  C   UNL     1       1.193   2.056   0.296  0.00  0.00    +0.009 A 
ATOM     22  C   UNL     1       2.379   1.417  -0.013  0.00  0.00    -0.019 A 
ATOM     23  C   UNL     1       2.383   0.068  -0.315  0.00  0.00    +0.055 A 
ATOM     24  C   UNL     1       1.197  -0.647  -0.307  0.00  0.00    +0.162 A 
BRANCH  19  25
ATOM     25  O   UNL     1      -1.165  -0.702   0.011  0.00  0.00    -0.489 OA
BRANCH  25  27
ATOM     26  C   UNL     1      -3.555  -0.921   0.297  0.00  0.00    +0.048 C 
ATOM     27  C   UNL     1      -2.352   0.023   0.339  0.00  0.00    +0.226 C 
ENDBRANCH  25  27
ENDBRANCH  19  25
BRANCH  24  28
ATOM     28  O   UNL     1       1.199  -1.975  -0.604  0.00  0.00    -0.489 OA
BRANCH  28  29
ATOM     29  C   UNL     1       2.462  -2.568  -0.913  0.00  0.00    +0.226 C 
ATOM     30  C   UNL     1       2.266  -4.055  -1.217  0.00  0.00    +0.048 C 
ENDBRANCH  28  29
ENDBRANCH  24  28
ENDBRANCH   1  22
BRANCH   5  31
ATOM     31  C   UNL     1       5.511   3.563   5.292  0.00  0.00    -0.044 A 
ATOM     32  C   UNL     1       4.479   3.524   6.211  0.00  0.00    +0.004 A 
ATOM     33  C   UNL     1       4.729   3.797   7.543  0.00  0.00    +0.000 A 
ATOM     34  C   UNL     1       6.009   4.117   7.954  0.00  0.00    +0.000 A 
ATOM     35  C   UNL     1       7.040   4.161   7.035  0.00  0.00    +0.000 A 
ATOM     36  C   UNL     1       6.791   3.883   5.703  0.00  0.00    +0.004 A 
ENDBRANCH   5  31
TORSDOF 6
