REMARK  Name = ZINC35772484
REMARK  12 active torsions:
REMARK  status: ('A' for Active; 'I' for Inactive)
REMARK    1  A    between atoms: C_1  and  C_2
REMARK    2  A    between atoms: N_11  and  C_15
REMARK    3  A    between atoms: C_15  and  C_16
REMARK    4  A    between atoms: N_18  and  C_19
REMARK    5  A    between atoms: C_19  and  C_21
REMARK    6  A    between atoms: C_19  and  C_31
REMARK    7  A    between atoms: C_24  and  C_27
REMARK    8  A    between atoms: C_27  and  C_28
REMARK    9  A    between atoms: C_27  and  C_29
REMARK   10  A    between atoms: C_27  and  C_30
REMARK   11  A    between atoms: C_31  and  C_32
REMARK   12  A    between atoms: C_31  and  C_33
REMARK                            x       y       z     vdW  Elec       q    Type
REMARK                         _______ _______ _______ _____ _____    ______ ____
ROOT
ATOM      1  C   UNL     1       1.267   0.606   5.501  0.00  0.00    +0.231 C 
ATOM      2  O   UNL     1       1.635  -0.530   5.291  0.00  0.00    -0.274 OA
ATOM      3  N   UNL     1       1.182   1.065   6.765  0.00  0.00    -0.307 N 
ATOM      4  H   UNL     1       0.888   1.974   6.933  0.00  0.00    +0.149 HD
ENDROOT
BRANCH   1   5
ATOM      5  C   UNL     1       0.904   1.505   4.347  0.00  0.00    +0.213 C 
BRANCH   5  15
ATOM      6  C   UNL     1      -0.019   1.526   0.010  0.00  0.00    +0.010 C 
ATOM      7  C   UNL     1       0.002  -0.004   0.002  0.00  0.00    +0.018 C 
ATOM      8  C   UNL     1      -1.434  -0.533   0.012  0.00  0.00    +0.006 C 
ATOM      9  C   UNL     1      -1.413  -2.063   0.024  0.00  0.00    +0.000 C 
ATOM     10  C   UNL     1      -0.690  -2.554   1.280  0.00  0.00    +0.003 C 
ATOM     11  C   UNL     1       0.749  -2.033   1.276  0.00  0.00    +0.035 C 
ATOM     12  C   UNL     1       0.741  -0.509   1.237  0.00  0.00    +0.115 C 
ATOM     13  C   UNL     1       0.111   0.049   2.493  0.00  0.00    +0.247 C 
ATOM     14  O   UNL     1      -1.023  -0.123   2.884  0.00  0.00    -0.273 OA
ATOM     15  N   UNL     1       1.078   0.778   3.087  0.00  0.00    -0.215 N 
ATOM     16  C   UNL     1       2.217   0.755   2.383  0.00  0.00    +0.310 C 
ATOM     17  O   UNL     1       3.230   1.337   2.717  0.00  0.00    -0.252 OA
ATOM     18  N   UNL     1       2.113   0.013   1.264  0.00  0.00    -0.285 N 
ATOM     19  H   UNL     1       2.808  -0.145   0.606  0.00  0.00    +0.151 HD
ENDBRANCH   5  15
ENDBRANCH   1   5
BRANCH   3  20
ATOM     20  C   UNL     1       1.535   0.191   7.887  0.00  0.00    +0.106 C 
BRANCH  20  21
ATOM     21  C   UNL     1       1.952   1.031   9.066  0.00  0.00    -0.027 A 
ATOM     22  C   UNL     1       1.267   2.194   9.364  0.00  0.00    +0.006 A 
ATOM     23  C   UNL     1       1.650   2.964  10.446  0.00  0.00    +0.004 A 
ATOM     24  C   UNL     1       2.718   2.572  11.230  0.00  0.00    -0.042 A 
ATOM     25  C   UNL     1       3.403   1.408  10.933  0.00  0.00    +0.004 A 
ATOM     26  C   UNL     1       3.017   0.636   9.854  0.00  0.00    +0.006 A 
BRANCH  24  27
ATOM     27  C   UNL     1       3.136   3.412  12.409  0.00  0.00    -0.013 C 
ATOM     28  C   UNL     1       1.973   3.520  13.397  0.00  0.00    +0.015 C 
ATOM     29  C   UNL     1       4.334   2.759  13.102  0.00  0.00    +0.015 C 
ATOM     30  C   UNL     1       3.527   4.810  11.926  0.00  0.00    +0.015 C 
ENDBRANCH  24  27
ENDBRANCH  20  21
BRANCH  20  31
ATOM     31  C   UNL     1       0.323  -0.660   8.270  0.00  0.00    +0.008 C 
ATOM     32  C   UNL     1      -0.101  -1.513   7.073  0.00  0.00    +0.009 C 
ATOM     33  C   UNL     1       0.691  -1.573   9.442  0.00  0.00    +0.009 C 
ENDBRANCH  20  31
ENDBRANCH   3  20
TORSDOF 6
