REMARK  Name = ZINC36485153
REMARK  16 active torsions:
REMARK  status: ('A' for Active; 'I' for Inactive)
REMARK    1  A    between atoms: C_1  and  C_2
REMARK    2  A    between atoms: C_3  and  C_4
REMARK    3  A    between atoms: C_4  and  C_6
REMARK    4  A    between atoms: C_4  and  N_17
REMARK    5  A    between atoms: N_8  and  C_9
REMARK    6  A    between atoms: C_9  and  C_10
REMARK    7  A    between atoms: C_9  and  C_11
REMARK    8  A    between atoms: C_9  and  C_12
REMARK    9  A    between atoms: C_12  and  C_13
REMARK   10  A    between atoms: C_13  and  C_14
REMARK   11  A    between atoms: C_13  and  C_15
REMARK   12  A    between atoms: C_13  and  C_16
REMARK   13  A    between atoms: N_17  and  C_18
REMARK   14  A    between atoms: C_25  and  C_27
REMARK   15  A    between atoms: C_31  and  O_34
REMARK   16  A    between atoms: C_32  and  O_33
REMARK                            x       y       z     vdW  Elec       q    Type
REMARK                         _______ _______ _______ _____ _____    ______ ____
ROOT
ATOM      1  N   UNL     1       0.747  -0.421   1.098  0.00  0.00    -0.252 N 
ATOM      2  C   UNL     1       0.798  -0.238  -0.236  0.00  0.00    +0.255 C 
ATOM      3  O   UNL     1       1.303  -1.085  -0.947  0.00  0.00    -0.269 OA
ENDROOT
BRANCH   1   4
ATOM      4  C   UNL     1       0.068   0.498   1.905  0.00  0.00    +0.039 A 
ATOM      5  C   UNL     1      -1.156   0.159   2.467  0.00  0.00    +0.023 A 
ATOM      6  C   UNL     1      -1.825   1.067   3.263  0.00  0.00    +0.003 A 
ATOM      7  C   UNL     1      -1.277   2.315   3.501  0.00  0.00    +0.020 A 
ATOM      8  C   UNL     1      -0.058   2.656   2.943  0.00  0.00    +0.043 A 
ATOM      9  C   UNL     1       0.619   1.749   2.150  0.00  0.00    +0.043 A 
ATOM     10 CL   UNL     1       0.625   4.223   3.245  0.00  0.00    -0.083 Cl
ENDBRANCH   1   4
BRANCH   2  11
ATOM     11  C   UNL     1       0.241   0.991  -0.834  0.00  0.00    +0.082 A 
ATOM     12  C   UNL     1      -0.932   1.552  -0.320  0.00  0.00    +0.017 A 
ATOM     13  C   UNL     1      -1.450   2.699  -0.881  0.00  0.00    +0.005 A 
ATOM     14  C   UNL     1      -0.814   3.302  -1.954  0.00  0.00    +0.049 A 
ATOM     15  C   UNL     1       0.348   2.758  -2.474  0.00  0.00    +0.159 A 
ATOM     16  C   UNL     1       0.887   1.603  -1.914  0.00  0.00    +0.171 A 
BRANCH  16  17
ATOM     17  O   UNL     1       2.029   1.070  -2.417  0.00  0.00    -0.503 OA
ATOM     18  H   UNL     1       1.885   0.426  -3.124  0.00  0.00    +0.292 HD
ENDBRANCH  16  17
BRANCH  15  19
ATOM     19  O   UNL     1       0.967   3.355  -3.528  0.00  0.00    -0.503 OA
ATOM     20  H   UNL     1       1.624   4.017  -3.274  0.00  0.00    +0.292 HD
ENDBRANCH  15  19
ENDBRANCH   2  11
BRANCH   1  21
ATOM     21  C   UNL     1       1.404  -1.582   1.704  0.00  0.00    +0.190 C 
BRANCH  21  22
ATOM     22  C   UNL     1       2.541  -1.118   2.577  0.00  0.00    +0.238 C 
ATOM     23  O   UNL     1       2.779   0.067   2.684  0.00  0.00    -0.273 OA
ATOM     24  N   UNL     1       3.292  -2.019   3.240  0.00  0.00    -0.308 N 
ATOM     25  H   UNL     1       3.102  -2.966   3.155  0.00  0.00    +0.149 HD
BRANCH  24  26
ATOM     26  C   UNL     1       4.397  -1.568   4.090  0.00  0.00    +0.030 C 
ATOM     27  C   UNL     1       5.548  -1.075   3.210  0.00  0.00    +0.031 C 
ATOM     28  C   UNL     1       3.917  -0.425   4.987  0.00  0.00    +0.031 C 
BRANCH  26  29
ATOM     29  C   UNL     1       4.881  -2.731   4.958  0.00  0.00    +0.031 C 
BRANCH  29  30
ATOM     30  C   UNL     1       3.730  -3.715   5.179  0.00  0.00    -0.036 C 
ATOM     31  C   UNL     1       3.495  -4.519   3.899  0.00  0.00    +0.010 C 
ATOM     32  C   UNL     1       4.086  -4.667   6.322  0.00  0.00    +0.010 C 
ATOM     33  C   UNL     1       2.459  -2.942   5.536  0.00  0.00    +0.010 C 
ENDBRANCH  29  30
ENDBRANCH  26  29
ENDBRANCH  24  26
ENDBRANCH  21  22
BRANCH  21  36
ATOM     34  C   UNL     1       0.983  -4.331   1.243  0.00  0.00    +0.035 C 
ATOM     35  C   UNL     1       0.176  -3.609   2.291  0.00  0.00    -0.032 C 
ATOM     36  C   UNL     1       0.407  -2.344   2.539  0.00  0.00    +0.000 C 
ENDBRANCH  21  36
ENDBRANCH   1  21
TORSDOF 10
