REMARK  Name = ZINC59019875
REMARK  9 active torsions:
REMARK  status: ('A' for Active; 'I' for Inactive)
REMARK    1  A    between atoms: C_1  and  C_2
REMARK    2  A    between atoms: C_2  and  S_3
REMARK    3  A    between atoms: S_3  and  C_4
REMARK    4  A    between atoms: C_9  and  N_13
REMARK    5  A    between atoms: C_14  and  C_16
REMARK    6  A    between atoms: C_16  and  S_17
REMARK    7  A    between atoms: S_17  and  C_18
REMARK    8  A    between atoms: N_23  and  N_24
REMARK    9  A    between atoms: C_25  and  C_26
REMARK                            x       y       z     vdW  Elec       q    Type
REMARK                         _______ _______ _______ _____ _____    ______ ____
ROOT
ATOM      1  S   UNL     1       1.642 -11.715  -0.401  0.00  0.00    -0.075 S 
ENDROOT
BRANCH   1   2
ATOM      2  C   UNL     1       1.273 -13.433  -0.534  0.00  0.00    +0.211 A 
ATOM      3  N   UNL     1       2.174 -14.414  -0.649  0.00  0.00    -0.186 NA
ATOM      4  C   UNL     1       1.558 -15.575  -0.727  0.00  0.00    +0.232 A 
ATOM      5  N   UNL     1       0.229 -15.346  -0.661  0.00  0.00    -0.245 N 
ATOM      6  N   UNL     1       0.071 -13.957  -0.532  0.00  0.00    -0.144 NA
ATOM      7  N   UNL     1       2.164 -16.811  -0.854  0.00  0.00    -0.205 N 
ATOM      8  H   UNL     1       1.623 -17.614  -0.904  0.00  0.00    +0.177 HD
ATOM      9  H   UNL     1      -0.477 -16.010  -0.694  0.00  0.00    +0.192 HD
BRANCH   7  10
ATOM     10  N   UNL     1       3.561 -16.903  -0.911  0.00  0.00    -0.188 NA
ATOM     11  C   UNL     1       4.131 -18.064  -1.030  0.00  0.00    +0.138 C 
BRANCH  11  12
ATOM     12  C   UNL     1       5.601 -18.161  -1.090  0.00  0.00    -0.004 A 
ATOM     13  C   UNL     1       6.384 -17.006  -1.012  0.00  0.00    +0.009 A 
ATOM     14  C   UNL     1       7.759 -17.104  -1.069  0.00  0.00    +0.002 A 
ATOM     15  C   UNL     1       8.363 -18.342  -1.202  0.00  0.00    +0.020 A 
ATOM     16  C   UNL     1       7.594 -19.490  -1.280  0.00  0.00    +0.042 A 
ATOM     17  C   UNL     1       6.217 -19.408  -1.218  0.00  0.00    +0.029 A 
ATOM     18 CL   UNL     1       8.362 -21.038  -1.448  0.00  0.00    -0.084 Cl
ENDBRANCH  11  12
ENDBRANCH   7  10
ENDBRANCH   1   2
BRANCH   1  19
ATOM     19  C   UNL     1       0.014 -10.926  -0.268  0.00  0.00    +0.173 C 
BRANCH  19  21
ATOM     20  N   UNL     1      -0.893  -8.637  -0.035  0.00  0.00    -0.285 N 
ATOM     21  C   UNL     1       0.188  -9.434  -0.146  0.00  0.00    +0.227 C 
ATOM     22  O   UNL     1       1.300  -8.950  -0.149  0.00  0.00    -0.275 OA
ATOM     23  H   UNL     1      -1.779  -9.027   0.035  0.00  0.00    +0.155 HD
BRANCH  20  29
ATOM     24  C   UNL     1       0.906  -2.659   0.680  0.00  0.00    +0.136 A 
ATOM     25  N   UNL     1      -0.173  -3.117   0.087  0.00  0.00    -0.233 NA
ATOM     26  C   UNL     1      -0.447  -4.439  -0.001  0.00  0.00    +0.080 A 
ATOM     27  C   UNL     1      -1.564  -5.058  -0.608  0.00  0.00    +0.031 A 
ATOM     28  C   UNL     1      -1.695  -6.422  -0.611  0.00  0.00    +0.025 A 
ATOM     29  C   UNL     1      -0.738  -7.244  -0.020  0.00  0.00    +0.035 A 
ATOM     30  C   UNL     1       0.371  -6.667   0.584  0.00  0.00    +0.040 A 
ATOM     31  C   UNL     1       0.504  -5.301   0.589  0.00  0.00    +0.042 A 
ATOM     32  S   UNL     1       1.714  -4.160   1.214  0.00  0.00    -0.061 S 
BRANCH  24  33
ATOM     33  S   UNL     1       1.426  -0.989   0.890  0.00  0.00    -0.099 S 
BRANCH  33  35
ATOM     34  C   UNL     1       0.445   1.472   0.210  0.00  0.00    +0.016 C 
ATOM     35  C   UNL     1       0.114  -0.017   0.099  0.00  0.00    +0.073 C 
ENDBRANCH  33  35
ENDBRANCH  24  33
ENDBRANCH  20  29
ENDBRANCH  19  21
ENDBRANCH   1  19
TORSDOF 8
