REMARK  Name = ZINC28053645
REMARK  3 active torsions:
REMARK  status: ('A' for Active; 'I' for Inactive)
REMARK    1  A    between atoms: C_1  and  C_2
REMARK    2  A    between atoms: C_10  and  C_18
REMARK    3  A    between atoms: C_24  and  C_27
REMARK                            x       y       z     vdW  Elec       q    Type
REMARK                         _______ _______ _______ _____ _____    ______ ____
ROOT
ATOM      1  C   UNL     1       2.139  -6.091   0.923  0.00  0.00    +0.044 C 
ATOM      2  C   UNL     1       1.251  -4.971   0.445  0.00  0.00    -0.050 A 
ATOM      3  C   UNL     1       1.173  -4.683  -0.907  0.00  0.00    +0.007 A 
ATOM      4  C   UNL     1       0.364  -3.657  -1.362  0.00  0.00    +0.046 A 
ATOM      5  C   UNL     1      -0.373  -2.914  -0.459  0.00  0.00    +0.131 A 
ATOM      6  C   UNL     1      -0.299  -3.207   0.909  0.00  0.00    +0.038 A 
ATOM      7  C   UNL     1       0.518  -4.237   1.357  0.00  0.00    +0.016 A 
ATOM      8  C   UNL     1      -1.111  -2.395   1.847  0.00  0.00    +0.050 C 
ATOM      9  C   UNL     1      -1.595  -1.227   1.420  0.00  0.00    +0.025 C 
ATOM     10  C   UNL     1      -2.435  -0.332   2.299  0.00  0.00    +0.174 C 
ATOM     11  N   UNL     1      -2.860  -1.055   3.489  0.00  0.00    -0.201 N 
ATOM     12  C   UNL     1      -2.336  -2.247   3.879  0.00  0.00    +0.240 A 
ATOM     13  N   UNL     1      -2.938  -2.594   4.980  0.00  0.00    -0.092 NA
ATOM     14  N   UNL     1      -3.811  -1.704   5.311  0.00  0.00    -0.021 NA
ATOM     15  N   UNL     1      -3.821  -0.740   4.448  0.00  0.00    -0.042 NA
ATOM     16  N   UNL     1      -1.349  -2.876   3.140  0.00  0.00    -0.282 N 
ATOM     17  C   UNL     1      -1.293  -0.775   0.010  0.00  0.00    +0.234 C 
ATOM     18  O   UNL     1      -1.177  -1.898  -0.863  0.00  0.00    -0.479 OA
ATOM     19  H   UNL     1      -0.762  -3.721   3.529  0.00  0.00    +0.155 HD
ENDROOT
BRANCH  17  20
ATOM     20  C   UNL     1       0.002  -0.004   0.002  0.00  0.00    -0.002 A 
ATOM     21  C   UNL     1      -0.014   1.373  -0.125  0.00  0.00    +0.009 A 
ATOM     22  C   UNL     1       1.173   2.081  -0.132  0.00  0.00    +0.022 A 
ATOM     23  C   UNL     1       2.378   1.412  -0.013  0.00  0.00    +0.059 A 
ATOM     24  C   UNL     1       2.394   0.033   0.113  0.00  0.00    +0.060 A 
ATOM     25  C   UNL     1       1.205  -0.674   0.121  0.00  0.00    +0.029 A 
ATOM     26 CL   UNL     1       3.906  -0.807   0.263  0.00  0.00    -0.082 Cl
ATOM     27 CL   UNL     1       3.869   2.301  -0.022  0.00  0.00    -0.082 Cl
ENDBRANCH  17  20
BRANCH  10  28
ATOM     28  C   UNL     1      -1.624   0.870   2.707  0.00  0.00    -0.019 A 
ATOM     29  C   UNL     1      -0.455   0.704   3.426  0.00  0.00    +0.006 A 
ATOM     30  C   UNL     1       0.292   1.807   3.796  0.00  0.00    +0.000 A 
ATOM     31  C   UNL     1      -0.137   3.077   3.457  0.00  0.00    +0.000 A 
ATOM     32  C   UNL     1      -1.308   3.243   2.743  0.00  0.00    +0.000 A 
ATOM     33  C   UNL     1      -2.052   2.140   2.368  0.00  0.00    +0.006 A 
ENDBRANCH  10  28
TORSDOF 2
