REMARK  Name = ZINC08470833
REMARK  5 active torsions:
REMARK  status: ('A' for Active; 'I' for Inactive)
REMARK    1  A    between atoms: C_1  and  C_2
REMARK    2  A    between atoms: C_4  and  C_15
REMARK    3  A    between atoms: C_10  and  O_13
REMARK    4  A    between atoms: O_13  and  C_14
REMARK    5  A    between atoms: C_25  and  C_28
REMARK                            x       y       z     vdW  Elec       q    Type
REMARK                         _______ _______ _______ _____ _____    ______ ____
ROOT
ATOM      1  C   UNL     1      -2.261   0.328  -0.648  0.00  0.00    +0.027 C 
ATOM      2  C   UNL     1      -1.869   1.448  -1.323  0.00  0.00    +0.079 C 
ATOM      3  C   UNL     1      -2.685   2.515  -1.941  0.00  0.00    +0.276 C 
ATOM      4  O   UNL     1      -3.905   2.496  -1.903  0.00  0.00    -0.267 OA
ATOM      5  N   UNL     1      -2.025   3.487  -2.533  0.00  0.00    -0.154 NA
ATOM      6  C   UNL     1      -0.703   3.519  -2.581  0.00  0.00    +0.154 C 
ATOM      7  S   UNL     1      -0.225   2.040  -1.701  0.00  0.00    -0.052 S 
ATOM      8  N   UNL     1       0.105   4.463  -3.160  0.00  0.00    -0.311 N 
ATOM      9  C   UNL     1       1.567   4.326  -3.117  0.00  0.00    +0.107 C 
ATOM     10  C   UNL     1       2.114   4.422  -4.545  0.00  0.00    +0.022 C 
ATOM     11  C   UNL     1       1.623   5.721  -5.189  0.00  0.00    -0.011 C 
ATOM     12  C   UNL     1       0.094   5.713  -5.256  0.00  0.00    +0.022 C 
ATOM     13  C   UNL     1      -0.475   5.629  -3.841  0.00  0.00    +0.107 C 
ATOM     14  C   UNL     1       2.195   5.837  -6.603  0.00  0.00    +0.007 C 
ENDROOT
BRANCH   1  17
ATOM     15  C   UNL     1      -1.750  -2.178  -1.800  0.00  0.00    +0.057 C 
ATOM     16  C   UNL     1      -1.236  -1.965  -0.375  0.00  0.00    +0.201 C 
ATOM     17  C   UNL     1      -1.300  -0.498  -0.036  0.00  0.00    -0.006 C 
ATOM     18  C   UNL     1      -0.422   0.024   0.865  0.00  0.00    +0.019 C 
ATOM     19  C   UNL     1       0.573  -0.881   1.457  0.00  0.00    +0.021 A 
ATOM     20  C   UNL     1       1.280  -0.532   2.610  0.00  0.00    +0.012 A 
ATOM     21  C   UNL     1       2.205  -1.410   3.133  0.00  0.00    +0.004 A 
ATOM     22  C   UNL     1       2.435  -2.633   2.523  0.00  0.00    +0.049 A 
ATOM     23  C   UNL     1       1.740  -2.992   1.378  0.00  0.00    +0.162 A 
ATOM     24  C   UNL     1       0.805  -2.120   0.838  0.00  0.00    +0.170 A 
ATOM     25  O   UNL     1       0.109  -2.436  -0.282  0.00  0.00    -0.480 OA
BRANCH  23  26
ATOM     26  O   UNL     1       1.973  -4.194   0.787  0.00  0.00    -0.491 OA
ATOM     27  C   UNL     1       2.950  -5.039   1.399  0.00  0.00    +0.277 C 
ENDBRANCH  23  26
ENDBRANCH   1  17
TORSDOF 2
