REMARK  Name = ZINC23130004
REMARK  10 active torsions:
REMARK  status: ('A' for Active; 'I' for Inactive)
REMARK    1  A    between atoms: C_1  and  O_2
REMARK    2  A    between atoms: O_2  and  C_3
REMARK    3  A    between atoms: C_8  and  C_9
REMARK    4  A    between atoms: C_10  and  C_11
REMARK    5  A    between atoms: C_11  and  N_12
REMARK    6  A    between atoms: C_18  and  C_20
REMARK    7  A    between atoms: C_20  and  C_21
REMARK    8  A    between atoms: N_23  and  C_24
REMARK    9  A    between atoms: C_24  and  C_25
REMARK   10  A    between atoms: C_25  and  N_26
REMARK                            x       y       z     vdW  Elec       q    Type
REMARK                         _______ _______ _______ _____ _____    ______ ____
ROOT
ATOM      1  N   UNL     1       2.972  -4.554  -4.717  0.00  0.00    +0.391 N 
ATOM      2  C   UNL     1       3.056  -5.304  -5.981  0.00  0.00    -0.058 C 
ATOM      3  C   UNL     1       3.299  -6.780  -5.662  0.00  0.00    +0.085 C 
ATOM      4  N   UNL     1       4.415  -6.913  -4.730  0.00  0.00    -0.318 N 
ATOM      5  C   UNL     1       4.862  -5.899  -3.985  0.00  0.00    +0.200 C 
ATOM      6  O   UNL     1       5.774  -6.106  -3.212  0.00  0.00    -0.278 OA
ATOM      7  C   UNL     1       4.287  -4.513  -4.064  0.00  0.00    +0.028 C 
ATOM      8  H   UNL     1       4.925  -7.881  -4.618  0.00  0.00    +0.149 HD
ATOM      9  H   UNL     1       2.268  -5.072  -4.049  0.00  0.00    -0.080 HD
ENDROOT
BRANCH   1  10
ATOM     10  C   UNL     1       2.454  -3.198  -4.943  0.00  0.00    -0.050 C 
BRANCH  10  12
ATOM     11  C   UNL     1       0.115  -2.569  -4.540  0.00  0.00    +0.005 C 
ATOM     12  C   UNL     1       0.982  -3.269  -5.259  0.00  0.00    -0.045 C 
BRANCH  11  18
ATOM     13  C   UNL     1      -2.247  -1.906  -4.090  0.00  0.00    +0.127 A 
ATOM     14  C   UNL     1      -3.598  -1.975  -4.391  0.00  0.00    +0.046 A 
ATOM     15  C   UNL     1      -4.036  -2.772  -5.432  0.00  0.00    +0.004 A 
ATOM     16  C   UNL     1      -3.131  -3.502  -6.183  0.00  0.00    +0.001 A 
ATOM     17  C   UNL     1      -1.782  -3.440  -5.898  0.00  0.00    +0.011 A 
ATOM     18  C   UNL     1      -1.328  -2.639  -4.850  0.00  0.00    +0.016 A 
BRANCH  13  20
ATOM     19  C   UNL     1      -2.812  -0.408  -2.334  0.00  0.00    +0.277 C 
ATOM     20  O   UNL     1      -1.816  -1.127  -3.065  0.00  0.00    -0.495 OA
ENDBRANCH  13  20
ENDBRANCH  11  18
ENDBRANCH  10  12
ENDBRANCH   1  10
BRANCH   7  21
ATOM     21  C   UNL     1       4.136  -3.944  -2.652  0.00  0.00    +0.089 C 
BRANCH  21  22
ATOM     22  C   UNL     1       3.164  -4.790  -1.871  0.00  0.00    +0.212 C 
ATOM     23  O   UNL     1       2.566  -5.691  -2.421  0.00  0.00    -0.276 OA
ATOM     24  N   UNL     1       2.959  -4.546  -0.562  0.00  0.00    -0.314 N 
ATOM     25  H   UNL     1       3.501  -3.730  -0.063  0.00  0.00    +0.149 HD
BRANCH  24  26
ATOM     26  C   UNL     1       2.014  -5.369   0.197  0.00  0.00    +0.125 C 
BRANCH  26  27
ATOM     27  C   UNL     1       1.969  -4.886   1.649  0.00  0.00    +0.140 C 
BRANCH  27  28
ATOM     28  N   UNL     1       1.024  -5.709   2.408  0.00  0.00    -0.345 N 
ATOM     29  C   UNL     1      -0.288  -5.392   2.635  0.00  0.00    +0.087 A 
ATOM     30  C   UNL     1      -0.872  -6.357   3.363  0.00  0.00    +0.027 A 
ATOM     31  C   UNL     1       0.149  -7.375   3.623  0.00  0.00    -0.000 A 
ATOM     32  C   UNL     1       1.323  -6.916   2.999  0.00  0.00    +0.049 A 
ATOM     33  C   UNL     1       2.480  -7.684   3.075  0.00  0.00    +0.026 A 
ATOM     34  C   UNL     1       2.462  -8.883   3.754  0.00  0.00    +0.002 A 
ATOM     35  C   UNL     1       1.302  -9.329   4.372  0.00  0.00    +0.001 A 
ATOM     36  C   UNL     1       0.154  -8.590   4.310  0.00  0.00    +0.010 A 
ENDBRANCH  27  28
ENDBRANCH  26  27
ENDBRANCH  24  26
ENDBRANCH  21  22
ENDBRANCH   7  21
TORSDOF 9
