REMARK  Name = ZINC08740644
REMARK  12 active torsions:
REMARK  status: ('A' for Active; 'I' for Inactive)
REMARK    1  A    between atoms: C_1  and  C_2
REMARK    2  A    between atoms: C_2  and  C_3
REMARK    3  A    between atoms: C_8  and  C_28
REMARK    4  A    between atoms: C_9  and  C_23
REMARK    5  A    between atoms: C_12  and  C_15
REMARK    6  A    between atoms: C_13  and  O_14
REMARK    7  A    between atoms: C_15  and  N_70
REMARK    8  A    between atoms: C_20  and  C_22
REMARK    9  A    between atoms: C_23  and  O_25
REMARK   10  A    between atoms: O_25  and  C_26
REMARK   11  A    between atoms: C_26  and  C_27
REMARK   12  A    between atoms: N_36  and  C_37
REMARK                            x       y       z     vdW  Elec       q    Type
REMARK                         _______ _______ _______ _____ _____    ______ ____
ROOT
ATOM      1  C   UNL     1       1.682   3.078  -1.677  0.00  0.00    -0.005 A 
ATOM      2  C   UNL     1       2.944   3.583  -1.542  0.00  0.00    +0.022 A 
ATOM      3  C   UNL     1       3.621   3.441  -0.329  0.00  0.00    +0.065 A 
ATOM      4  C   UNL     1       4.982   3.975  -0.153  0.00  0.00    +0.204 A 
ATOM      5  O   UNL     1       5.562   4.555  -1.053  0.00  0.00    -0.286 OA
ATOM      6  C   UNL     1       5.613   3.773   1.171  0.00  0.00    +0.114 A 
ATOM      7  C   UNL     1       4.897   3.107   2.144  0.00  0.00    +0.226 A 
ATOM      8  O   UNL     1       3.659   2.642   1.926  0.00  0.00    -0.447 OA
ATOM      9  C   UNL     1       3.011   2.781   0.753  0.00  0.00    +0.144 A 
ATOM     10  C   UNL     1       1.725   2.279   0.600  0.00  0.00    +0.021 A 
ATOM     11  C   UNL     1       1.069   2.423  -0.611  0.00  0.00    +0.125 A 
ENDROOT
BRANCH   6  12
ATOM     12  C   UNL     1       6.974   4.272   1.443  0.00  0.00    +0.149 A 
ATOM     13  N   UNL     1       7.287   5.142   2.374  0.00  0.00    -0.227 NA
ATOM     14  C   UNL     1       8.614   5.377   2.350  0.00  0.00    +0.090 A 
ATOM     15  C   UNL     1       9.459   6.198   3.107  0.00  0.00    +0.030 A 
ATOM     16  C   UNL     1      10.798   6.225   2.841  0.00  0.00    +0.002 A 
ATOM     17  C   UNL     1      11.335   5.446   1.826  0.00  0.00    +0.002 A 
ATOM     18  C   UNL     1      10.524   4.629   1.067  0.00  0.00    +0.028 A 
ATOM     19  C   UNL     1       9.160   4.587   1.321  0.00  0.00    +0.069 A 
ATOM     20  N   UNL     1       8.103   3.893   0.766  0.00  0.00    -0.327 N 
ATOM     21  C   UNL     1       8.175   2.935  -0.340  0.00  0.00    +0.151 C 
ENDBRANCH   6  12
BRANCH   1  23
ATOM     22  C   UNL     1       0.055   4.471  -2.927  0.00  0.00    +0.009 C 
ATOM     23  C   UNL     1       0.950   3.231  -2.986  0.00  0.00    +0.035 C 
ENDBRANCH   1  23
BRANCH  11  24
ATOM     24  O   UNL     1      -0.185   1.926  -0.760  0.00  0.00    -0.506 OA
ATOM     25  H   UNL     1      -0.212   1.014  -1.081  0.00  0.00    +0.292 HD
ENDBRANCH  11  24
BRANCH   7  26
ATOM     26  C   UNL     1       5.516   2.899   3.471  0.00  0.00    +0.376 C 
ATOM     27  O   UNL     1       6.675   3.211   3.656  0.00  0.00    -0.241 OA
BRANCH  26  28
ATOM     28  O   UNL     1       4.793   2.365   4.475  0.00  0.00    -0.459 OA
BRANCH  28  29
ATOM     29  C   UNL     1       5.465   2.190   5.750  0.00  0.00    +0.229 C 
ATOM     30  C   UNL     1       4.493   1.575   6.759  0.00  0.00    +0.048 C 
ENDBRANCH  28  29
ENDBRANCH  26  28
ENDBRANCH   7  26
BRANCH  10  31
ATOM     31  C   UNL     1       1.047   1.573   1.746  0.00  0.00    -0.035 C 
BRANCH  31  38
ATOM     32  C   UNL     1       2.786  -0.084   1.444  0.00  0.00    -0.078 C 
ATOM     33  C   UNL     1       3.045  -1.579   1.246  0.00  0.00    -0.019 C 
ATOM     34  C   UNL     1       2.599  -2.339   2.498  0.00  0.00    -0.003 C 
ATOM     35  C   UNL     1       1.117  -2.053   2.759  0.00  0.00    -0.016 C 
ATOM     36  C   UNL     1       0.914  -0.544   2.913  0.00  0.00    -0.071 C 
ATOM     37  C   UNL     1      -0.568  -0.251   3.153  0.00  0.00    -0.013 C 
ATOM     38  N   UNL     1       1.340   0.128   1.666  0.00  0.00    +0.384 N 
ATOM     39  H   UNL     1       0.820  -0.275   0.877  0.00  0.00    -0.081 HD
ENDBRANCH  31  38
ENDBRANCH  10  31
TORSDOF 8
