REMARK  Name = ZINC39287273
REMARK  12 active torsions:
REMARK  status: ('A' for Active; 'I' for Inactive)
REMARK    1  A    between atoms: C_1  and  C_2
REMARK    2  A    between atoms: C_2  and  O_3
REMARK    3  A    between atoms: O_3  and  C_4
REMARK    4  A    between atoms: C_6  and  C_22
REMARK    5  A    between atoms: C_9  and  O_10
REMARK    6  A    between atoms: O_10  and  C_11
REMARK    7  A    between atoms: C_11  and  C_12
REMARK    8  A    between atoms: C_22  and  C_24
REMARK    9  A    between atoms: C_22  and  C_31
REMARK   10  A    between atoms: C_25  and  C_30
REMARK   11  A    between atoms: C_32  and  C_38
REMARK   12  A    between atoms: C_35  and  O_37
REMARK                            x       y       z     vdW  Elec       q    Type
REMARK                         _______ _______ _______ _____ _____    ______ ____
ROOT
ATOM      1  C   UNL     1       1.488  -2.235  -1.485  0.00  0.00    +0.162 A 
ATOM      2  C   UNL     1       0.790  -2.897  -0.488  0.00  0.00    +0.054 A 
ATOM      3  C   UNL     1       0.531  -4.250  -0.608  0.00  0.00    -0.032 A 
ATOM      4  C   UNL     1       0.967  -4.945  -1.720  0.00  0.00    +0.008 A 
ATOM      5  C   UNL     1       1.665  -4.290  -2.718  0.00  0.00    +0.050 A 
ATOM      6  C   UNL     1       1.922  -2.933  -2.607  0.00  0.00    +0.162 A 
ENDROOT
BRANCH   1   7
ATOM      7  O   UNL     1       1.743  -0.904  -1.369  0.00  0.00    -0.489 OA
BRANCH   7   9
ATOM      8  C   UNL     1       1.646   1.229  -0.238  0.00  0.00    +0.048 C 
ATOM      9  C   UNL     1       1.268  -0.253  -0.190  0.00  0.00    +0.226 C 
ENDBRANCH   7   9
ENDBRANCH   1   7
BRANCH   6  10
ATOM     10  O   UNL     1       2.603  -2.287  -3.591  0.00  0.00    -0.484 OA
BRANCH  10  11
ATOM     11  C   UNL     1       3.018  -3.067  -4.714  0.00  0.00    +0.265 C 
BRANCH  11  12
ATOM     12  C   UNL     1       3.752  -2.188  -5.693  0.00  0.00    -0.003 A 
ATOM     13  C   UNL     1       3.931  -0.865  -5.425  0.00  0.00    +0.007 A 
ATOM     14  C   UNL     1       4.606  -0.036  -6.318  0.00  0.00    +0.001 A 
ATOM     15  C   UNL     1       5.108  -0.525  -7.485  0.00  0.00    +0.008 A 
ATOM     16  C   UNL     1       4.943  -1.885  -7.797  0.00  0.00    -0.018 A 
ATOM     17  C   UNL     1       4.261  -2.730  -6.885  0.00  0.00    -0.011 A 
ATOM     18  C   UNL     1       4.102  -4.091  -7.194  0.00  0.00    +0.009 A 
ATOM     19  C   UNL     1       4.608  -4.581  -8.359  0.00  0.00    +0.001 A 
ATOM     20  C   UNL     1       5.285  -3.753  -9.252  0.00  0.00    +0.001 A 
ATOM     21  C   UNL     1       5.447  -2.426  -8.993  0.00  0.00    +0.008 A 
ENDBRANCH  11  12
ENDBRANCH  10  11
ENDBRANCH   6  10
BRANCH   3  22
ATOM     22  C   UNL     1      -0.229  -4.969   0.477  0.00  0.00    +0.088 C 
BRANCH  22  23
ATOM     23  C   UNL     1      -1.353  -5.762  -0.137  0.00  0.00    +0.052 A 
ATOM     24  C   UNL     1      -2.126  -5.378  -1.238  0.00  0.00    +0.068 A 
ATOM     25  N   UNL     1      -2.999  -6.323  -1.476  0.00  0.00    -0.176 NA
ATOM     26  N   UNL     1      -2.813  -7.343  -0.534  0.00  0.00    -0.243 N 
ATOM     27  C   UNL     1      -1.794  -6.980   0.276  0.00  0.00    +0.271 A 
ATOM     28  O   UNL     1      -1.300  -7.700   1.316  0.00  0.00    -0.266 OA
ATOM     29  C   UNL     1      -1.979  -4.096  -2.016  0.00  0.00    +0.068 C 
ATOM     30  H   UNL     1      -3.323  -8.165  -0.475  0.00  0.00    +0.192 HD
ENDBRANCH  22  23
BRANCH  22  31
ATOM     31  C   UNL     1       0.702  -5.901   1.209  0.00  0.00    +0.017 C 
ATOM     32  C   UNL     1       1.016  -5.899   2.506  0.00  0.00    +0.065 C 
ATOM     33  N   UNL     1       1.887  -6.892   2.791  0.00  0.00    -0.156 NA
ATOM     34  N   UNL     1       2.209  -7.584   1.822  0.00  0.00    -0.151 NA
ATOM     35  C   UNL     1       1.495  -7.066   0.643  0.00  0.00    +0.284 C 
ATOM     36  C   UNL     1       0.473  -4.921   3.517  0.00  0.00    +0.067 C 
BRANCH  35  37
ATOM     37  O   UNL     1       2.421  -6.613  -0.347  0.00  0.00    -0.366 OA
ATOM     38  H   UNL     1       2.952  -7.319  -0.740  0.00  0.00    +0.212 HD
ENDBRANCH  35  37
ENDBRANCH  22  31
ENDBRANCH   3  22
TORSDOF 9
