REMARK  Name = ZINC07990823
REMARK  7 active torsions:
REMARK  status: ('A' for Active; 'I' for Inactive)
REMARK    1  A    between atoms: C_1  and  C_2
REMARK    2  A    between atoms: C_2  and  C_4
REMARK    3  A    between atoms: C_2  and  N_13
REMARK    4  A    between atoms: C_14  and  C_16
REMARK    5  A    between atoms: C_16  and  C_18
REMARK    6  A    between atoms: C_16  and  N_19
REMARK    7  A    between atoms: C_20  and  C_22
REMARK                            x       y       z     vdW  Elec       q    Type
REMARK                         _______ _______ _______ _____ _____    ______ ____
ROOT
ATOM      1  N   UNL     1       0.764  -0.485  -1.153  0.00  0.00    -0.307 N 
ATOM      2  C   UNL     1       2.096  -0.663  -1.055  0.00  0.00    +0.234 C 
ATOM      3  O   UNL     1       2.664  -0.425  -0.011  0.00  0.00    -0.274 OA
ATOM      4  H   UNL     1       0.309  -0.676  -1.988  0.00  0.00    +0.149 HD
ENDROOT
BRANCH   1   6
ATOM      5  C   UNL     1       0.009   1.526   0.016  0.00  0.00    +0.033 C 
ATOM      6  C   UNL     1       0.002  -0.004   0.002  0.00  0.00    +0.102 C 
BRANCH   6   7
ATOM      7  C   UNL     1      -1.418  -0.499  -0.091  0.00  0.00    -0.006 A 
ATOM      8  C   UNL     1      -1.976  -0.770  -1.327  0.00  0.00    +0.046 A 
ATOM      9  C   UNL     1      -3.280  -1.224  -1.413  0.00  0.00    +0.142 A 
ATOM     10  C   UNL     1      -4.027  -1.408  -0.260  0.00  0.00    +0.077 A 
ATOM     11  C   UNL     1      -3.467  -1.137   0.975  0.00  0.00    +0.043 A 
ATOM     12  C   UNL     1      -2.162  -0.687   1.060  0.00  0.00    +0.047 A 
ATOM     13 CL   UNL     1      -1.458  -0.353   2.611  0.00  0.00    -0.083 Cl
ATOM     14 CL   UNL     1      -5.663  -1.977  -0.366  0.00  0.00    -0.081 Cl
ATOM     15  F   UNL     1      -3.825  -1.488  -2.620  0.00  0.00    -0.204 F 
ENDBRANCH   6   7
ENDBRANCH   1   6
BRANCH   2  16
ATOM     16  C   UNL     1       2.880  -1.159  -2.243  0.00  0.00    +0.156 C 
ATOM     17  C   UNL     1       2.723  -0.174  -3.404  0.00  0.00    +0.038 C 
BRANCH  16  18
ATOM     18  N   UNL     1       4.296  -1.268  -1.884  0.00  0.00    -0.298 N 
ATOM     19  C   UNL     1       5.096  -2.124  -2.549  0.00  0.00    +0.280 C 
ATOM     20  O   UNL     1       4.642  -2.807  -3.448  0.00  0.00    -0.267 OA
ATOM     21  H   UNL     1       4.657  -0.723  -1.167  0.00  0.00    +0.150 HD
BRANCH  19  22
ATOM     22  C   UNL     1       6.513  -2.233  -2.189  0.00  0.00    +0.189 A 
ATOM     23  C   UNL     1       7.431  -3.052  -2.781  0.00  0.00    +0.054 A 
ATOM     24  C   UNL     1       8.652  -2.832  -2.125  0.00  0.00    +0.042 A 
ATOM     25  C   UNL     1       8.429  -1.899  -1.173  0.00  0.00    +0.196 A 
ATOM     26  O   UNL     1       7.140  -1.538  -1.218  0.00  0.00    -0.458 OA
ENDBRANCH  19  22
ENDBRANCH  16  18
ENDBRANCH   2  16
TORSDOF 5
