REMARK  Name = ZINC39633417
REMARK  5 active torsions:
REMARK  status: ('A' for Active; 'I' for Inactive)
REMARK    1  A    between atoms: C_5  and  N_8
REMARK    2  A    between atoms: C_9  and  C_11
REMARK    3  A    between atoms: C_22  and  C_24
REMARK    4  A    between atoms: C_24  and  C_25
REMARK    5  A    between atoms: C_25  and  C_26
REMARK                            x       y       z     vdW  Elec       q    Type
REMARK                         _______ _______ _______ _____ _____    ______ ____
ROOT
ATOM      1  C   UNL     1       3.005  -3.138  -3.812  0.00  0.00    +0.100 C 
ATOM      2  C   UNL     1       3.916  -2.420  -4.833  0.00  0.00    +0.121 C 
ATOM      3  N   UNL     1       5.295  -2.754  -4.405  0.00  0.00    -0.300 N 
ATOM      4  C   UNL     1       5.217  -4.174  -3.987  0.00  0.00    +0.115 C 
ATOM      5  C   UNL     1       3.861  -4.291  -3.262  0.00  0.00    -0.004 C 
ATOM      6  C   UNL     1       4.054  -4.134  -1.757  0.00  0.00    -0.010 C 
ATOM      7  C   UNL     1       4.860  -5.322  -1.224  0.00  0.00    -0.082 C 
ATOM      8  N   UNL     1       4.147  -6.571  -1.519  0.00  0.00    +0.379 N 
ATOM      9  C   UNL     1       4.047  -6.760  -2.971  0.00  0.00    -0.082 C 
ATOM     10  C   UNL     1       3.207  -5.633  -3.578  0.00  0.00    -0.010 C 
ATOM     11  C   UNL     1       6.375  -1.949  -4.397  0.00  0.00    +0.216 C 
ATOM     12  O   UNL     1       7.445  -2.373  -4.014  0.00  0.00    -0.276 OA
ATOM     13  H   UNL     1       4.649  -7.347  -1.114  0.00  0.00    -0.086 HD
ATOM     14  H   UNL     1       3.221  -6.530  -1.122  0.00  0.00    -0.086 HD
ENDROOT
BRANCH   1  16
ATOM     15  N   UNL     1       1.448  -2.366  -2.053  0.00  0.00    -0.312 N 
ATOM     16  C   UNL     1       2.617  -2.197  -2.702  0.00  0.00    +0.218 C 
ATOM     17  O   UNL     1       3.356  -1.286  -2.392  0.00  0.00    -0.275 OA
ATOM     18  H   UNL     1       0.856  -3.094  -2.301  0.00  0.00    +0.149 HD
BRANCH  15  23
ATOM     19  C   UNL     1       0.352  -0.344   1.736  0.00  0.00    +0.000 C 
ATOM     20  C   UNL     1      -0.092   0.625   0.673  0.00  0.00    +0.000 C 
ATOM     21  C   UNL     1      -0.959  -0.045  -0.409  0.00  0.00    +0.002 C 
ATOM     22  C   UNL     1      -0.428  -1.428  -0.830  0.00  0.00    +0.022 C 
ATOM     23  C   UNL     1       1.070  -1.451  -0.973  0.00  0.00    +0.073 C 
ATOM     24  C   UNL     1       1.682  -1.938   0.357  0.00  0.00    +0.022 C 
ATOM     25  C   UNL     1       1.747  -0.882   1.357  0.00  0.00    +0.002 C 
ENDBRANCH  15  23
ENDBRANCH   1  16
BRANCH  11  26
ATOM     26  C   UNL     1       6.255  -0.521  -4.863  0.00  0.00    +0.096 C 
BRANCH  26  27
ATOM     27  C   UNL     1       7.616   0.169  -4.753  0.00  0.00    +0.013 C 
BRANCH  27  28
ATOM     28  C   UNL     1       7.493   1.618  -5.226  0.00  0.00    -0.011 C 
ATOM     29  C   UNL     1       7.215   1.657  -6.743  0.00  0.00    +0.003 C 
ATOM     30  C   UNL     1       8.013   2.886  -7.245  0.00  0.00    +0.000 C 
ATOM     31  C   UNL     1       9.306   2.823  -6.395  0.00  0.00    +0.000 C 
ATOM     32  C   UNL     1       8.823   2.360  -5.005  0.00  0.00    +0.003 C 
ENDBRANCH  27  28
ENDBRANCH  26  27
ENDBRANCH  11  26
TORSDOF 5
