REMARK  Name = ZINC09222113
REMARK  7 active torsions:
REMARK  status: ('A' for Active; 'I' for Inactive)
REMARK    1  A    between atoms: C_1  and  C_2
REMARK    2  A    between atoms: C_2  and  O_3
REMARK    3  A    between atoms: O_3  and  C_4
REMARK    4  A    between atoms: C_4  and  C_6
REMARK    5  A    between atoms: C_7  and  C_16
REMARK    6  A    between atoms: C_16  and  S_17
REMARK    7  A    between atoms: S_17  and  C_18
REMARK                            x       y       z     vdW  Elec       q    Type
REMARK                         _______ _______ _______ _____ _____    ______ ____
ROOT
ATOM      1  C   UNL     1      -0.018   1.464   0.010  0.00  0.00    +0.101 A 
ATOM      2  C   UNL     1      -1.093   2.297   0.019  0.00  0.00    -0.006 A 
ATOM      3  C   UNL     1      -0.901   3.689   0.029  0.00  0.00    +0.029 A 
ATOM      4  C   UNL     1      -1.887   4.712   0.043  0.00  0.00    +0.132 A 
ATOM      5  C   UNL     1      -1.522   6.033   0.046  0.00  0.00    +0.039 A 
ATOM      6  C   UNL     1      -0.187   6.416   0.036  0.00  0.00    +0.004 A 
ATOM      7  C   UNL     1       0.798   5.449   0.022  0.00  0.00    +0.016 A 
ATOM      8  C   UNL     1       0.448   4.116   0.019  0.00  0.00    +0.023 A 
ATOM      9  S   UNL     1       1.362   2.595   0.003  0.00  0.00    -0.081 S 
ATOM     10  F   UNL     1      -3.197   4.380   0.053  0.00  0.00    -0.205 F 
ENDROOT
BRANCH   1  11
ATOM     11  C   UNL     1       0.002  -0.004   0.002  0.00  0.00    +0.346 C 
ATOM     12  O   UNL     1      -1.042  -0.626   0.008  0.00  0.00    -0.244 OA
BRANCH  11  13
ATOM     13  O   UNL     1       1.179  -0.662  -0.012  0.00  0.00    -0.461 OA
BRANCH  13  15
ATOM     14  C   UNL     1       2.544  -2.679  -0.035  0.00  0.00    +0.048 C 
ATOM     15  C   UNL     1       1.123  -2.113  -0.019  0.00  0.00    +0.229 C 
ENDBRANCH  13  15
ENDBRANCH  11  13
ENDBRANCH   1  11
BRANCH   2  16
ATOM     16  C   UNL     1      -2.489   1.728   0.022  0.00  0.00    +0.114 C 
BRANCH  16  17
ATOM     17  S   UNL     1      -3.040   1.492   1.730  0.00  0.00    -0.083 S 
BRANCH  17  18
ATOM     18  C   UNL     1      -4.651   0.837   1.443  0.00  0.00    +0.168 A 
ATOM     19  N   UNL     1      -5.422   0.510   2.522  0.00  0.00    -0.328 N 
ATOM     20  H   UNL     1      -5.075   0.641   3.418  0.00  0.00    +0.168 HD
ATOM     21  C   UNL     1      -6.667   0.008   2.350  0.00  0.00    +0.095 A 
ATOM     22  S   UNL     1      -7.650  -0.402   3.690  0.00  0.00    -0.032 S 
ATOM     23  C   UNL     1      -7.141  -0.177   0.974  0.00  0.00    +0.031 A 
ATOM     24  C   UNL     1      -8.407  -0.692   0.696  0.00  0.00    +0.012 A 
ATOM     25  C   UNL     1      -8.805  -0.847  -0.614  0.00  0.00    +0.001 A 
ATOM     26  C   UNL     1      -7.957  -0.494  -1.657  0.00  0.00    +0.002 A 
ATOM     27  C   UNL     1      -6.704   0.017  -1.405  0.00  0.00    +0.028 A 
ATOM     28  C   UNL     1      -6.276   0.183  -0.085  0.00  0.00    +0.076 A 
ATOM     29  N   UNL     1      -5.051   0.681   0.205  0.00  0.00    -0.223 NA
ENDBRANCH  17  18
ENDBRANCH  16  17
ENDBRANCH   2  16
TORSDOF 6
