REMARK  Name = ZINC35851683
REMARK  4 active torsions:
REMARK  status: ('A' for Active; 'I' for Inactive)
REMARK    1  A    between atoms: C_8  and  C_27
REMARK    2  A    between atoms: C_10  and  C_18
REMARK    3  A    between atoms: C_21  and  N_24
REMARK    4  A    between atoms: C_27  and  C_29
REMARK                            x       y       z     vdW  Elec       q    Type
REMARK                         _______ _______ _______ _____ _____    ______ ____
ROOT
ATOM      1  C   UNL     1      -0.069   1.367  -0.119  0.00  0.00    +0.000 A 
ATOM      2  C   UNL     1       1.118   2.076  -0.139  0.00  0.00    +0.002 A 
ATOM      3  C   UNL     1       2.327   1.411  -0.125  0.00  0.00    +0.023 A 
ATOM      4  C   UNL     1       2.360   0.019  -0.091  0.00  0.00    +0.039 A 
ATOM      5  C   UNL     1       1.159  -0.684  -0.071  0.00  0.00    +0.004 A 
ATOM      6  C   UNL     1      -0.045  -0.016  -0.085  0.00  0.00    +0.008 A 
ATOM      7  C   UNL     1       1.534  -2.139  -0.032  0.00  0.00    +0.137 C 
ATOM      8  C   UNL     1       0.967  -2.896  -1.238  0.00  0.00    +0.103 C 
ATOM      9  C   UNL     1      -0.382  -3.455  -0.733  0.00  0.00    +0.050 C 
ATOM     10  C   UNL     1      -0.324  -3.335   0.793  0.00  0.00    +0.077 C 
ATOM     11  N   UNL     1       0.993  -2.802   1.167  0.00  0.00    -0.271 NA
ATOM     12  C   UNL     1       1.950  -3.875   1.575  0.00  0.00    +0.155 C 
ATOM     13  S   UNL     1       0.807  -5.019   2.465  0.00  0.00    -0.144 S 
ATOM     14  C   UNL     1      -0.687  -4.668   1.465  0.00  0.00    +0.090 C 
ATOM     15  C   UNL     1       3.039  -2.153  -0.035  0.00  0.00    +0.243 C 
ATOM     16  O   UNL     1       3.753  -3.133  -0.010  0.00  0.00    -0.273 OA
ATOM     17  N   UNL     1       3.439  -0.868  -0.072  0.00  0.00    -0.283 N 
ATOM     18  H   UNL     1       4.368  -0.590  -0.084  0.00  0.00    +0.155 HD
ENDROOT
BRANCH   9  19
ATOM     19  C   UNL     1      -1.523  -2.637  -1.280  0.00  0.00    -0.042 A 
ATOM     20  C   UNL     1      -1.438  -2.091  -2.547  0.00  0.00    +0.006 A 
ATOM     21  C   UNL     1      -2.485  -1.341  -3.049  0.00  0.00    +0.033 A 
ATOM     22  C   UNL     1      -3.618  -1.137  -2.284  0.00  0.00    +0.126 A 
ATOM     23  C   UNL     1      -3.704  -1.683  -1.017  0.00  0.00    +0.033 A 
ATOM     24  C   UNL     1      -2.658  -2.437  -0.517  0.00  0.00    +0.006 A 
BRANCH  22  25
ATOM     25  N   UNL     1      -4.738  -0.333  -2.821  0.00  0.00    +0.056 N 
ATOM     26  O   UNL     1      -4.663   0.145  -3.929  0.00  0.00    -0.126 OA
ATOM     27  O   UNL     1      -5.729  -0.154  -2.151  0.00  0.00    -0.126 OA
ENDBRANCH  22  25
ENDBRANCH   9  19
BRANCH   8  28
ATOM     28  C   UNL     1       1.889  -4.019  -1.638  0.00  0.00    +0.169 C 
ATOM     29  O   UNL     1       1.748  -5.121  -1.153  0.00  0.00    -0.292 OA
BRANCH  28  30
ATOM     30  C   UNL     1       2.961  -3.777  -2.615  0.00  0.00    +0.018 A 
ATOM     31  C   UNL     1       3.130  -2.505  -3.172  0.00  0.00    +0.014 A 
ATOM     32  C   UNL     1       4.135  -2.285  -4.088  0.00  0.00    +0.039 A 
ATOM     33  C   UNL     1       4.979  -3.322  -4.458  0.00  0.00    +0.123 A 
ATOM     34  C   UNL     1       4.817  -4.586  -3.909  0.00  0.00    +0.039 A 
ATOM     35  C   UNL     1       3.819  -4.817  -2.988  0.00  0.00    +0.014 A 
ATOM     36  F   UNL     1       5.963  -3.100  -5.357  0.00  0.00    -0.205 F 
ENDBRANCH  28  30
ENDBRANCH   8  28
TORSDOF 4
