REMARK  Name = ZINC32504524
REMARK  5 active torsions:
REMARK  status: ('A' for Active; 'I' for Inactive)
REMARK    1  A    between atoms: C_1  and  C_2
REMARK    2  A    between atoms: C_5  and  N_8
REMARK    3  A    between atoms: N_20  and  C_21
REMARK    4  A    between atoms: C_21  and  C_23
REMARK    5  A    between atoms: C_23  and  C_24
REMARK                            x       y       z     vdW  Elec       q    Type
REMARK                         _______ _______ _______ _____ _____    ______ ____
ROOT
ATOM      1  N   UNL     1       1.714   3.378   0.782  0.00  0.00    -0.276 N 
ATOM      2  C   UNL     1       1.454   2.166   0.027  0.00  0.00    +0.116 C 
ATOM      3  C   UNL     1      -0.058   1.843   0.090  0.00  0.00    +0.190 C 
ATOM      4  S   UNL     1      -0.048  -0.002   0.110  0.00  0.00    -0.028 S 
ATOM      5  O   UNL     1      -1.105  -0.469   0.937  0.00  0.00    -0.174 OA
ATOM      6  O   UNL     1       0.075  -0.486  -1.220  0.00  0.00    -0.174 OA
ATOM      7  C   UNL     1       1.560  -0.220   0.991  0.00  0.00    +0.182 C 
ATOM      8  C   UNL     1       2.345   1.003   0.478  0.00  0.00    +0.097 C 
ATOM      9  S   UNL     1       3.252   1.762   1.875  0.00  0.00    -0.086 S 
ATOM     10  C   UNL     1       2.598   3.362   1.810  0.00  0.00    +0.154 C 
ATOM     11  N   UNL     1       2.903   4.377   2.610  0.00  0.00    -0.159 NA
ENDROOT
BRANCH   1  16
ATOM     12  C   UNL     1      -0.975   8.188  -0.567  0.00  0.00    +0.044 C 
ATOM     13  C   UNL     1      -0.260   6.910  -0.209  0.00  0.00    -0.050 A 
ATOM     14  C   UNL     1      -0.524   6.287   0.998  0.00  0.00    +0.005 A 
ATOM     15  C   UNL     1       0.129   5.116   1.329  0.00  0.00    +0.024 A 
ATOM     16  C   UNL     1       1.051   4.564   0.449  0.00  0.00    +0.036 A 
ATOM     17  C   UNL     1       1.317   5.195  -0.759  0.00  0.00    +0.024 A 
ATOM     18  C   UNL     1       0.657   6.363  -1.087  0.00  0.00    +0.005 A 
ENDBRANCH   1  16
BRANCH  11  19
ATOM     19  C   UNL     1       3.796   4.212   3.584  0.00  0.00    +0.243 C 
ATOM     20  O   UNL     1       4.332   3.132   3.740  0.00  0.00    -0.273 OA
BRANCH  19  21
ATOM     21  C   UNL     1       4.142   5.364   4.492  0.00  0.00    +0.133 C 
BRANCH  21  22
ATOM     22  C   UNL     1       5.169   4.917   5.500  0.00  0.00    -0.038 A 
ATOM     23  C   UNL     1       4.764   4.391   6.713  0.00  0.00    +0.005 A 
ATOM     24  C   UNL     1       5.706   3.976   7.635  0.00  0.00    +0.020 A 
ATOM     25  C   UNL     1       7.054   4.098   7.350  0.00  0.00    +0.041 A 
ATOM     26  C   UNL     1       7.459   4.630   6.138  0.00  0.00    +0.020 A 
ATOM     27  C   UNL     1       6.516   5.039   5.214  0.00  0.00    +0.005 A 
ATOM     28 CL   UNL     1       8.237   3.583   8.511  0.00  0.00    -0.084 Cl
ENDBRANCH  21  22
ENDBRANCH  19  21
ENDBRANCH  11  19
TORSDOF 4
