REMARK  Name = ZINC11814227
REMARK  7 active torsions:
REMARK  status: ('A' for Active; 'I' for Inactive)
REMARK    1  A    between atoms: C_1  and  C_2
REMARK    2  A    between atoms: C_3  and  C_12
REMARK    3  A    between atoms: C_5  and  C_7
REMARK    4  A    between atoms: C_12  and  N_50
REMARK    5  A    between atoms: C_16  and  O_19
REMARK    6  A    between atoms: O_19  and  C_20
REMARK    7  A    between atoms: C_20  and  C_21
REMARK                            x       y       z     vdW  Elec       q    Type
REMARK                         _______ _______ _______ _____ _____    ______ ____
ROOT
ATOM      1  C   UNL     1      -0.640   3.035  -1.283  0.00  0.00    -0.078 C 
ATOM      2  C   UNL     1      -1.509   3.518  -2.447  0.00  0.00    -0.016 C 
ATOM      3  C   UNL     1      -1.020   2.869  -3.745  0.00  0.00    +0.028 C 
ATOM      4  C   UNL     1      -1.072   1.346  -3.596  0.00  0.00    +0.102 C 
ATOM      5  C   UNL     1      -0.215   0.926  -2.399  0.00  0.00    -0.046 C 
ATOM      6  N   UNL     1      -0.752   1.565  -1.178  0.00  0.00    +0.385 N 
ATOM      7  H   UNL     1      -1.742   1.312  -1.078  0.00  0.00    -0.081 HD
ENDROOT
BRANCH   6   8
ATOM      8  C   UNL     1      -0.013   1.086   0.008  0.00  0.00    -0.019 C 
BRANCH   8  11
ATOM      9  C   UNL     1      -2.304  -0.400   1.526  0.00  0.00    +0.088 C 
ATOM     10  C   UNL     1      -1.704   0.931   1.900  0.00  0.00    +0.124 A 
ATOM     11  C   UNL     1      -0.718   1.572   1.248  0.00  0.00    +0.066 A 
ATOM     12  N   UNL     1      -0.469   2.718   1.900  0.00  0.00    -0.215 NA
ATOM     13  C   UNL     1      -1.283   2.800   2.930  0.00  0.00    +0.234 A 
ATOM     14  O   UNL     1      -2.057   1.700   2.951  0.00  0.00    -0.440 OA
BRANCH  13  15
ATOM     15  C   UNL     1      -1.335   3.906   3.898  0.00  0.00    +0.074 A 
ATOM     16  C   UNL     1      -2.158   4.063   4.998  0.00  0.00    +0.021 A 
ATOM     17  C   UNL     1      -2.015   5.196   5.765  0.00  0.00    +0.008 A 
ATOM     18  C   UNL     1      -1.086   6.123   5.416  0.00  0.00    +0.046 A 
ATOM     19  S   UNL     1      -0.358   5.399   3.955  0.00  0.00    -0.092 S 
ENDBRANCH  13  15
ENDBRANCH   8  11
ENDBRANCH   6   8
BRANCH   4  20
ATOM     20  O   UNL     1      -0.566   0.733  -4.784  0.00  0.00    -0.374 OA
BRANCH  20  21
ATOM     21  C   UNL     1      -1.563   0.474  -5.774  0.00  0.00    +0.195 C 
BRANCH  21  22
ATOM     22  C   UNL     1      -0.921  -0.170  -6.976  0.00  0.00    -0.022 A 
ATOM     23  C   UNL     1      -0.439   0.616  -8.007  0.00  0.00    +0.006 A 
ATOM     24  C   UNL     1       0.154   0.026  -9.107  0.00  0.00    +0.000 A 
ATOM     25  C   UNL     1       0.256  -1.350  -9.182  0.00  0.00    +0.000 A 
ATOM     26  C   UNL     1      -0.231  -2.136  -8.155  0.00  0.00    +0.000 A 
ATOM     27  C   UNL     1      -0.819  -1.546  -7.052  0.00  0.00    +0.006 A 
ENDBRANCH  21  22
ENDBRANCH  20  21
ENDBRANCH   4  20
TORSDOF 6
