REMARK  Name = ZINC67462711
REMARK  5 active torsions:
REMARK  status: ('A' for Active; 'I' for Inactive)
REMARK    1  A    between atoms: C_4  and  C_7
REMARK    2  A    between atoms: C_7  and  N_8
REMARK    3  A    between atoms: C_12  and  C_14
REMARK    4  A    between atoms: C_14  and  N_15
REMARK    5  A    between atoms: N_18  and  C_19
REMARK                            x       y       z     vdW  Elec       q    Type
REMARK                         _______ _______ _______ _____ _____    ______ ____
ROOT
ATOM      1  N   UNL     1       1.287  -2.730  -4.545  0.00  0.00    -0.301 N 
ATOM      2  C   UNL     1       0.266  -3.388  -5.129  0.00  0.00    +0.300 C 
ATOM      3  O   UNL     1       0.401  -4.551  -5.458  0.00  0.00    -0.253 OA
ATOM      4  N   UNL     1      -0.905  -2.757  -5.348  0.00  0.00    -0.288 N 
ATOM      5  H   UNL     1       1.179  -1.803  -4.282  0.00  0.00    +0.150 HD
ATOM      6  H   UNL     1      -1.012  -1.830  -5.086  0.00  0.00    +0.151 HD
ENDROOT
BRANCH   4   7
ATOM      7  C   UNL     1      -2.014  -3.472  -5.984  0.00  0.00    +0.160 C 
ATOM      8  C   UNL     1      -3.056  -2.467  -6.481  0.00  0.00    +0.032 C 
ATOM      9  C   UNL     1      -3.149  -1.280  -5.540  0.00  0.00    +0.004 C 
ATOM     10  C   UNL     1      -3.703  -1.625  -4.170  0.00  0.00    +0.019 C 
ATOM     11  C   UNL     1      -2.736  -2.529  -3.402  0.00  0.00    +0.104 C 
ATOM     12  N   UNL     1      -3.008  -3.929  -3.768  0.00  0.00    -0.314 N 
ATOM     13  C   UNL     1      -2.670  -4.392  -4.976  0.00  0.00    +0.233 C 
ATOM     14  O   UNL     1      -2.893  -5.548  -5.268  0.00  0.00    -0.274 OA
ATOM     15  H   UNL     1      -3.434  -4.520  -3.128  0.00  0.00    +0.149 HD
ENDBRANCH   4   7
BRANCH   1  16
ATOM     16  C   UNL     1       2.559  -3.416  -4.306  0.00  0.00    +0.090 C 
BRANCH  16  21
ATOM     17  N   UNL     1       2.939  -1.896  -2.410  0.00  0.00    +0.383 N 
ATOM     18  C   UNL     1       3.797  -2.255  -1.260  0.00  0.00    -0.078 C 
ATOM     19  C   UNL     1       4.562  -3.522  -1.718  0.00  0.00    -0.020 C 
ATOM     20  C   UNL     1       4.817  -3.210  -3.216  0.00  0.00    -0.016 C 
ATOM     21  C   UNL     1       3.540  -2.452  -3.636  0.00  0.00    -0.051 C 
ATOM     22  H   UNL     1       2.017  -2.284  -2.277  0.00  0.00    -0.081 HD
BRANCH  17  23
ATOM     23  C   UNL     1       2.849  -0.434  -2.522  0.00  0.00    -0.075 C 
BRANCH  23  27
ATOM     24  C   UNL     1      -0.055   1.720  -0.145  0.00  0.00    +0.000 C 
ATOM     25  C   UNL     1       1.392   2.216  -0.139  0.00  0.00    +0.000 C 
ATOM     26  C   UNL     1       2.129   1.655  -1.357  0.00  0.00    +0.002 C 
ATOM     27  C   UNL     1       2.113   0.126  -1.303  0.00  0.00    -0.028 C 
ATOM     28  C   UNL     1       0.666  -0.369  -1.309  0.00  0.00    +0.002 C 
ATOM     29  C   UNL     1      -0.070   0.191  -0.091  0.00  0.00    +0.000 C 
ENDBRANCH  23  27
ENDBRANCH  17  23
ENDBRANCH  16  21
ENDBRANCH   1  16
TORSDOF 5
