REMARK  Name = ZINC39541211
REMARK  8 active torsions:
REMARK  status: ('A' for Active; 'I' for Inactive)
REMARK    1  A    between atoms: C_1  and  C_2
REMARK    2  A    between atoms: C_7  and  C_8
REMARK    3  A    between atoms: C_8  and  C_9
REMARK    4  A    between atoms: C_9  and  C_29
REMARK    5  A    between atoms: N_13  and  C_15
REMARK    6  A    between atoms: C_15  and  C_16
REMARK    7  A    between atoms: C_21  and  C_22
REMARK    8  A    between atoms: C_29  and  O_30
REMARK                            x       y       z     vdW  Elec       q    Type
REMARK                         _______ _______ _______ _____ _____    ______ ____
ROOT
ATOM      1  C   UNL     1      -1.639   0.068   2.955  0.00  0.00    -0.017 C 
ATOM      2  C   UNL     1      -2.425   0.769   1.843  0.00  0.00    +0.006 C 
ATOM      3  C   UNL     1      -1.890   2.194   1.674  0.00  0.00    -0.018 C 
ATOM      4  C   UNL     1      -1.991   2.933   3.010  0.00  0.00    -0.079 C 
ATOM      5  N   UNL     1      -1.198   2.229   4.024  0.00  0.00    +0.381 N 
ATOM      6  C   UNL     1      -1.749   0.886   4.244  0.00  0.00    -0.069 C 
ATOM      7  H   UNL     1      -0.242   2.152   3.708  0.00  0.00    -0.082 HD
ENDROOT
BRANCH   1   8
ATOM      8  C   UNL     1      -0.168  -0.046   2.547  0.00  0.00    +0.042 C 
BRANCH   8  15
ATOM      9  C   UNL     1       0.604  -2.822   2.766  0.00  0.00    +0.044 C 
ATOM     10  C   UNL     1       0.313  -2.225   1.413  0.00  0.00    -0.047 A 
ATOM     11  C   UNL     1       0.411  -3.007   0.277  0.00  0.00    +0.003 A 
ATOM     12  C   UNL     1       0.145  -2.459  -0.964  0.00  0.00    +0.000 A 
ATOM     13  C   UNL     1      -0.219  -1.129  -1.069  0.00  0.00    +0.000 A 
ATOM     14  C   UNL     1      -0.318  -0.348   0.067  0.00  0.00    +0.004 A 
ATOM     15  C   UNL     1      -0.056  -0.897   1.308  0.00  0.00    -0.044 A 
ENDBRANCH   8  15
ENDBRANCH   1   8
BRANCH   5  16
ATOM     16  C   UNL     1      -1.234   2.984   5.284  0.00  0.00    -0.063 C 
BRANCH  16  17
ATOM     17  C   UNL     1      -0.539   4.333   5.090  0.00  0.00    +0.066 C 
ATOM     18  C   UNL     1       0.950   4.142   4.887  0.00  0.00    +0.115 C 
ATOM     19  N   UNL     1       1.528   4.758   5.868  0.00  0.00    -0.161 NA
ATOM     20  N   UNL     1       0.617   5.356   6.732  0.00  0.00    -0.153 NA
ATOM     21  C   UNL     1      -0.622   5.163   6.356  0.00  0.00    +0.077 C 
BRANCH  21  22
ATOM     22  C   UNL     1      -1.841   5.648   7.022  0.00  0.00    -0.001 A 
ATOM     23  C   UNL     1      -3.099   5.346   6.491  0.00  0.00    +0.011 A 
ATOM     24  C   UNL     1      -4.237   5.803   7.120  0.00  0.00    +0.020 A 
ATOM     25  C   UNL     1      -4.137   6.560   8.276  0.00  0.00    +0.041 A 
ATOM     26  C   UNL     1      -2.894   6.863   8.808  0.00  0.00    +0.020 A 
ATOM     27  C   UNL     1      -1.748   6.408   8.193  0.00  0.00    +0.011 A 
ATOM     28 CL   UNL     1      -5.575   7.131   9.062  0.00  0.00    -0.084 Cl
ENDBRANCH  21  22
ENDBRANCH  16  17
ENDBRANCH   5  16
BRANCH   1  29
ATOM     29  C   UNL     1      -2.215  -1.330   3.187  0.00  0.00    +0.161 C 
BRANCH  29  30
ATOM     30  O   UNL     1      -2.113  -2.092   1.982  0.00  0.00    -0.395 OA
ATOM     31  H   UNL     1      -2.461  -2.992   2.056  0.00  0.00    +0.209 HD
ENDBRANCH  29  30
ENDBRANCH   1  29
TORSDOF 7
