REMARK  Name = ZINC49181585
REMARK  13 active torsions:
REMARK  status: ('A' for Active; 'I' for Inactive)
REMARK    1  A    between atoms: C_1  and  C_2
REMARK    2  A    between atoms: C_8  and  C_37
REMARK    3  A    between atoms: C_9  and  O_36
REMARK    4  A    between atoms: C_16  and  C_35
REMARK    5  A    between atoms: C_21  and  C_23
REMARK    6  A    between atoms: C_23  and  C_25
REMARK    7  A    between atoms: C_23  and  C_26
REMARK    8  A    between atoms: C_26  and  C_28
REMARK    9  A    between atoms: C_29  and  C_30
REMARK   10  A    between atoms: C_29  and  C_31
REMARK   11  A    between atoms: C_31  and  C_32
REMARK   12  A    between atoms: C_31  and  C_33
REMARK   13  A    between atoms: C_31  and  O_34
REMARK                            x       y       z     vdW  Elec       q    Type
REMARK                         _______ _______ _______ _____ _____    ______ ____
ROOT
ATOM      1  C   UNL     1       3.807   2.905  -0.197  0.00  0.00    +0.018 C 
ATOM      2  C   UNL     1       3.494   1.426  -0.432  0.00  0.00    +0.085 C 
ATOM      3  C   UNL     1       4.483   0.845  -1.421  0.00  0.00    +0.139 C 
ATOM      4  O   UNL     1       5.246   1.562  -2.024  0.00  0.00    -0.297 OA
ATOM      5  C   UNL     1       4.494  -0.651  -1.638  0.00  0.00    +0.075 C 
ATOM      6  C   UNL     1       4.574  -1.349  -0.275  0.00  0.00    +0.021 C 
ATOM      7  C   UNL     1       3.442  -0.835   0.614  0.00  0.00    +0.019 C 
ATOM      8  C   UNL     1       3.629   0.653   0.884  0.00  0.00    +0.085 C 
ATOM      9  C   UNL     1       2.534   1.089   1.863  0.00  0.00    +0.040 C 
ATOM     10  C   UNL     1       2.831   0.422   3.203  0.00  0.00    +0.034 C 
ATOM     11  C   UNL     1       3.127  -1.047   3.047  0.00  0.00    -0.066 C 
ATOM     12  C   UNL     1       3.394  -1.627   1.903  0.00  0.00    -0.061 C 
ATOM     13  C   UNL     1       3.642  -3.111   1.739  0.00  0.00    +0.032 C 
ATOM     14  C   UNL     1       3.670  -3.894   3.051  0.00  0.00    +0.012 C 
ATOM     15  C   UNL     1       2.605  -3.280   3.943  0.00  0.00    -0.022 C 
ATOM     16  C   UNL     1       3.145  -1.871   4.299  0.00  0.00    +0.021 C 
ATOM     17  C   UNL     1       2.193  -1.444   5.418  0.00  0.00    +0.009 C 
ATOM     18  C   UNL     1       2.057  -2.741   6.263  0.00  0.00    +0.005 C 
ATOM     19  C   UNL     1       2.394  -3.920   5.311  0.00  0.00    +0.006 C 
ATOM     20  C   UNL     1       1.276  -3.183   3.192  0.00  0.00    +0.012 C 
ATOM     21  C   UNL     1       2.115  -1.018  -0.125  0.00  0.00    +0.019 C 
ENDROOT
BRANCH  19  22
ATOM     22  C   UNL     1       3.671  -4.629   5.767  0.00  0.00    +0.060 C 
ATOM     23  C   UNL     1       3.488  -5.137   7.199  0.00  0.00    +0.016 C 
BRANCH  22  24
ATOM     24  C   UNL     1       3.953  -5.794   4.853  0.00  0.00    +0.159 C 
ATOM     25  O   UNL     1       3.034  -6.407   4.350  0.00  0.00    -0.292 OA
BRANCH  24  26
ATOM     26  C   UNL     1       5.334  -6.186   4.573  0.00  0.00    +0.048 C 
ATOM     27  C   UNL     1       5.583  -7.286   3.861  0.00  0.00    -0.039 C 
ATOM     28  C   UNL     1       4.456  -8.214   3.486  0.00  0.00    +0.042 C 
BRANCH  27  29
ATOM     29  C   UNL     1       6.993  -7.602   3.430  0.00  0.00    +0.082 C 
ATOM     30  C   UNL     1       7.415  -8.951   4.015  0.00  0.00    +0.046 C 
ATOM     31  C   UNL     1       7.058  -7.665   1.903  0.00  0.00    +0.046 C 
BRANCH  29  32
ATOM     32  O   UNL     1       7.875  -6.581   3.903  0.00  0.00    -0.385 OA
ATOM     33  H   UNL     1       8.801  -6.720   3.662  0.00  0.00    +0.211 HD
ENDBRANCH  29  32
ENDBRANCH  27  29
ENDBRANCH  24  26
ENDBRANCH  22  24
ENDBRANCH  19  22
BRANCH   8  34
ATOM     34  O   UNL     1       4.923   0.881   1.447  0.00  0.00    -0.387 OA
ATOM     35  H   UNL     1       5.108   1.810   1.644  0.00  0.00    +0.210 HD
ENDBRANCH   8  34
TORSDOF 6
