REMARK  Name = ZINC13642813
REMARK  6 active torsions:
REMARK  status: ('A' for Active; 'I' for Inactive)
REMARK    1  A    between atoms: C_1  and  C_2
REMARK    2  A    between atoms: C_2  and  N_3
REMARK    3  A    between atoms: C_4  and  C_6
REMARK    4  A    between atoms: C_13  and  C_22
REMARK    5  A    between atoms: N_34  and  C_35
REMARK    6  A    between atoms: C_35  and  C_36
REMARK                            x       y       z     vdW  Elec       q    Type
REMARK                         _______ _______ _______ _____ _____    ______ ____
ROOT
ATOM      1  C   UNL     1      -2.435  10.647   1.218  0.00  0.00    +0.058 A 
ATOM      2  C   UNL     1      -3.701  10.978   0.734  0.00  0.00    +0.015 A 
ATOM      3  C   UNL     1      -3.970  10.853  -0.612  0.00  0.00    +0.001 A 
ATOM      4  C   UNL     1      -2.991  10.401  -1.478  0.00  0.00    +0.006 A 
ATOM      5  C   UNL     1      -1.726  10.068  -1.016  0.00  0.00    -0.019 A 
ATOM      6  C   UNL     1      -1.441  10.189   0.332  0.00  0.00    +0.044 A 
ATOM      7  N   UNL     1      -0.176   9.883   0.859  0.00  0.00    -0.336 N 
ATOM      8  C   UNL     1       0.478   8.845   0.061  0.00  0.00    +0.105 C 
ATOM      9  C   UNL     1       0.654   9.328  -1.371  0.00  0.00    +0.029 C 
ATOM     10  C   UNL     1      -0.719   9.584  -2.026  0.00  0.00    +0.049 C 
ATOM     11  C   UNL     1      -0.422  10.742  -2.984  0.00  0.00    -0.023 C 
ATOM     12  C   UNL     1       0.672  11.370  -2.636  0.00  0.00    -0.030 C 
ATOM     13  C   UNL     1       1.266  10.749  -1.386  0.00  0.00    +0.033 C 
ATOM     14  H   UNL     1      -0.252   9.602   1.825  0.00  0.00    +0.147 HD
ENDROOT
BRANCH   8  15
ATOM     15  C   UNL     1      -0.369   7.599   0.068  0.00  0.00    -0.026 A 
ATOM     16  C   UNL     1      -0.364   6.753  -1.031  0.00  0.00    +0.007 A 
ATOM     17  C   UNL     1      -1.134   5.610  -1.039  0.00  0.00    +0.027 A 
ATOM     18  C   UNL     1      -1.925   5.295   0.061  0.00  0.00    +0.050 A 
ATOM     19  C   UNL     1      -1.929   6.151   1.173  0.00  0.00    +0.008 A 
ATOM     20  C   UNL     1      -1.145   7.303   1.168  0.00  0.00    +0.016 A 
ATOM     21  C   UNL     1      -2.849   5.554   2.157  0.00  0.00    +0.008 A 
ATOM     22  C   UNL     1      -3.264   5.930   3.433  0.00  0.00    +0.010 A 
ATOM     23  C   UNL     1      -4.159   5.141   4.122  0.00  0.00    +0.001 A 
ATOM     24  C   UNL     1      -4.648   3.976   3.551  0.00  0.00    +0.002 A 
ATOM     25  C   UNL     1      -4.242   3.589   2.292  0.00  0.00    +0.026 A 
ATOM     26  C   UNL     1      -3.343   4.376   1.578  0.00  0.00    +0.050 A 
ATOM     27  N   UNL     1      -2.778   4.237   0.323  0.00  0.00    -0.340 N 
BRANCH  27  28
ATOM     28  C   UNL     1      -3.045   3.130  -0.598  0.00  0.00    +0.119 C 
ATOM     29  C   UNL     1      -2.042   2.002  -0.344  0.00  0.00    +0.027 C 
ENDBRANCH  27  28
ENDBRANCH   8  15
BRANCH   1  31
ATOM     30  N   UNL     1      -3.124  11.082   3.523  0.00  0.00    -0.312 N 
ATOM     31  C   UNL     1      -2.138  10.777   2.656  0.00  0.00    +0.246 C 
ATOM     32  O   UNL     1      -1.004  10.608   3.061  0.00  0.00    -0.270 OA
ATOM     33  H   UNL     1      -4.029  11.217   3.201  0.00  0.00    +0.149 HD
BRANCH  30  35
ATOM     34  C   UNL     1      -4.112  11.561   5.708  0.00  0.00    +0.024 C 
ATOM     35  C   UNL     1      -2.829  11.211   4.952  0.00  0.00    +0.101 C 
ENDBRANCH  30  35
ENDBRANCH   1  31
TORSDOF 4
