REMARK  Name = ZINC22815230
REMARK  9 active torsions:
REMARK  status: ('A' for Active; 'I' for Inactive)
REMARK    1  A    between atoms: C_1  and  C_2
REMARK    2  A    between atoms: C_7  and  C_8
REMARK    3  A    between atoms: C_8  and  N_9
REMARK    4  A    between atoms: N_12  and  C_15
REMARK    5  A    between atoms: C_15  and  N_16
REMARK    6  A    between atoms: C_22  and  C_25
REMARK    7  A    between atoms: C_25  and  C_26
REMARK    8  A    between atoms: C_25  and  C_27
REMARK    9  A    between atoms: C_25  and  C_28
REMARK                            x       y       z     vdW  Elec       q    Type
REMARK                         _______ _______ _______ _____ _____    ______ ____
ROOT
ATOM      1  N   UNL     1       1.508   5.663  -2.252  0.00  0.00    -0.211 N 
ATOM      2  C   UNL     1       0.924   5.263  -1.104  0.00  0.00    +0.248 C 
ATOM      3  O   UNL     1       0.416   5.963  -0.255  0.00  0.00    -0.273 OA
ATOM      4  C   UNL     1       1.037   3.755  -1.099  0.00  0.00    +0.113 C 
ATOM      5  C   UNL     1       1.859   3.288   0.097  0.00  0.00    +0.035 C 
ATOM      6  C   UNL     1       1.984   1.762   0.069  0.00  0.00    +0.006 C 
ATOM      7  C   UNL     1       0.589   1.136   0.112  0.00  0.00    -0.005 C 
ATOM      8  C   UNL     1      -0.215   1.595  -1.107  0.00  0.00    +0.006 C 
ATOM      9  C   UNL     1      -0.349   3.119  -1.083  0.00  0.00    +0.035 C 
ATOM     10  N   UNL     1       1.732   3.445  -2.354  0.00  0.00    -0.285 N 
ATOM     11  C   UNL     1       1.967   4.624  -2.961  0.00  0.00    +0.310 C 
ATOM     12  O   UNL     1       2.532   4.733  -4.032  0.00  0.00    -0.252 OA
ATOM     13  H   UNL     1       1.952   2.400  -2.618  0.00  0.00    +0.151 HD
ENDROOT
BRANCH   7  14
ATOM     14  C   UNL     1       0.713  -0.389   0.097  0.00  0.00    -0.035 C 
ATOM     15  C   UNL     1       1.516  -0.847   1.316  0.00  0.00    +0.011 C 
ATOM     16  C   UNL     1      -0.682  -1.015   0.139  0.00  0.00    +0.011 C 
ATOM     17  C   UNL     1       1.431  -0.829  -1.181  0.00  0.00    +0.011 C 
ENDBRANCH   7  14
BRANCH   1  18
ATOM     18  C   UNL     1       1.626   7.062  -2.671  0.00  0.00    +0.204 C 
BRANCH  18  22
ATOM     19  N   UNL     1       4.547   9.659  -1.068  0.00  0.00    +0.384 N 
ATOM     20  C   UNL     1       4.685   9.250  -2.473  0.00  0.00    -0.063 C 
ATOM     21  C   UNL     1       3.336   8.747  -2.991  0.00  0.00    +0.067 C 
ATOM     22  N   UNL     1       2.884   7.622  -2.160  0.00  0.00    -0.290 NA
ATOM     23  C   UNL     1       2.745   8.032  -0.755  0.00  0.00    +0.067 C 
ATOM     24  C   UNL     1       4.095   8.535  -0.237  0.00  0.00    -0.063 C 
ATOM     25  H   UNL     1       3.781  10.448  -1.018  0.00  0.00    -0.081 HD
BRANCH  19  26
ATOM     26  C   UNL     1       5.804  10.220  -0.556  0.00  0.00    -0.043 C 
BRANCH  26  33
ATOM     27  C   UNL     1       4.238  12.499   0.279  0.00  0.00    +0.044 C 
ATOM     28  C   UNL     1       4.905  11.625   1.309  0.00  0.00    -0.049 A 
ATOM     29  C   UNL     1       4.767  11.913   2.655  0.00  0.00    +0.003 A 
ATOM     30  C   UNL     1       5.378  11.111   3.599  0.00  0.00    +0.000 A 
ATOM     31  C   UNL     1       6.128  10.020   3.200  0.00  0.00    +0.000 A 
ATOM     32  C   UNL     1       6.262   9.729   1.855  0.00  0.00    +0.002 A 
ATOM     33  C   UNL     1       5.654  10.534   0.910  0.00  0.00    -0.061 A 
ENDBRANCH  26  33
ENDBRANCH  19  26
ENDBRANCH  18  22
ENDBRANCH   1  18
TORSDOF 5
