REMARK  Name = ZINC13064173
REMARK  14 active torsions:
REMARK  status: ('A' for Active; 'I' for Inactive)
REMARK    1  A    between atoms: C_1  and  C_2
REMARK    2  A    between atoms: C_2  and  C_3
REMARK    3  A    between atoms: C_3  and  C_5
REMARK    4  A    between atoms: C_3  and  N_68
REMARK    5  A    between atoms: N_9  and  C_10
REMARK    6  A    between atoms: C_10  and  C_11
REMARK    7  A    between atoms: C_16  and  C_17
REMARK    8  A    between atoms: C_16  and  N_68
REMARK    9  A    between atoms: C_20  and  O_23
REMARK   10  A    between atoms: O_23  and  C_24
REMARK   11  A    between atoms: C_25  and  C_26
REMARK   12  A    between atoms: C_25  and  N_68
REMARK   13  A    between atoms: C_30  and  O_38
REMARK   14  A    between atoms: O_38  and  C_39
REMARK                            x       y       z     vdW  Elec       q    Type
REMARK                         _______ _______ _______ _____ _____    ______ ____
ROOT
ATOM      1  N   UNL     1      -0.589  -0.409  -0.545  0.00  0.00    +0.392 N 
ATOM      2  H   UNL     1      -0.154  -0.868  -1.354  0.00  0.00    -0.080 HD
ENDROOT
BRANCH   1   3
ATOM      3  C   UNL     1      -0.124  -1.074   0.691  0.00  0.00    +0.003 C 
BRANCH   3   4
ATOM      4  C   UNL     1       0.165  -2.519   0.378  0.00  0.00    +0.139 A 
ATOM      5  N   UNL     1      -0.513  -3.296  -0.432  0.00  0.00    -0.115 NA
ATOM      6  N   UNL     1       0.048  -4.455  -0.434  0.00  0.00    -0.023 NA
ATOM      7  N   UNL     1       1.061  -4.442   0.360  0.00  0.00    -0.044 NA
ATOM      8  N   UNL     1       1.167  -3.265   0.879  0.00  0.00    -0.223 N 
BRANCH   8   9
ATOM      9  C   UNL     1       2.185  -2.825   1.836  0.00  0.00    +0.221 C 
BRANCH   9  10
ATOM     10  C   UNL     1       1.696  -3.074   3.240  0.00  0.00    +0.126 A 
ATOM     11  C   UNL     1       1.886  -4.201   3.950  0.00  0.00    +0.046 A 
ATOM     12  C   UNL     1       1.268  -4.002   5.206  0.00  0.00    +0.041 A 
ATOM     13  C   UNL     1       0.730  -2.769   5.185  0.00  0.00    +0.195 A 
ATOM     14  O   UNL     1       0.993  -2.212   3.992  0.00  0.00    -0.466 OA
ENDBRANCH   9  10
ENDBRANCH   8   9
ENDBRANCH   3   4
BRANCH   3  16
ATOM     15  C   UNL     1      -1.403   0.468   2.184  0.00  0.00    +0.002 C 
ATOM     16  C   UNL     1      -1.200  -0.993   1.776  0.00  0.00    -0.011 C 
ENDBRANCH   3  16
ENDBRANCH   1   3
BRANCH   1  17
ATOM     17  C   UNL     1      -0.193   1.015  -0.531  0.00  0.00    -0.042 C 
BRANCH  17  18
ATOM     18  C   UNL     1       1.288   1.109  -0.791  0.00  0.00    -0.064 A 
ATOM     19  C   UNL     1       2.174   1.144   0.270  0.00  0.00    +0.005 A 
ATOM     20  C   UNL     1       3.533   1.224   0.033  0.00  0.00    +0.046 A 
ATOM     21  C   UNL     1       4.007   1.281  -1.269  0.00  0.00    +0.120 A 
ATOM     22  C   UNL     1       3.116   1.252  -2.332  0.00  0.00    +0.046 A 
ATOM     23  C   UNL     1       1.758   1.166  -2.090  0.00  0.00    +0.005 A 
BRANCH  21  24
ATOM     24  O   UNL     1       5.343   1.365  -1.504  0.00  0.00    -0.495 OA
ATOM     25  C   UNL     1       6.202   1.391  -0.362  0.00  0.00    +0.277 C 
ENDBRANCH  21  24
ENDBRANCH  17  18
ENDBRANCH   1  17
BRANCH   1  26
ATOM     26  C   UNL     1      -2.058  -0.524  -0.659  0.00  0.00    -0.036 C 
BRANCH  26  27
ATOM     27  C   UNL     1      -2.401  -1.933  -1.070  0.00  0.00    +0.001 A 
ATOM     28  C   UNL     1      -2.934  -2.790  -0.164  0.00  0.00    +0.017 A 
ATOM     29  C   UNL     1      -3.261  -4.150  -0.596  0.00  0.00    +0.002 A 
ATOM     30  C   UNL     1      -3.817  -5.076   0.293  0.00  0.00    +0.055 A 
ATOM     31  C   UNL     1      -4.108  -6.352  -0.145  0.00  0.00    +0.121 A 
ATOM     32  C   UNL     1      -3.852  -6.717  -1.465  0.00  0.00    +0.047 A 
ATOM     33  C   UNL     1      -3.305  -5.815  -2.350  0.00  0.00    +0.030 A 
ATOM     34  C   UNL     1      -3.004  -4.524  -1.928  0.00  0.00    +0.049 A 
ATOM     35  N   UNL     1      -2.456  -3.605  -2.800  0.00  0.00    -0.322 N 
ATOM     36  H   UNL     1      -2.279  -3.863  -3.718  0.00  0.00    +0.169 HD
ATOM     37  C   UNL     1      -2.163  -2.357  -2.395  0.00  0.00    +0.251 A 
ATOM     38  O   UNL     1      -1.680  -1.571  -3.192  0.00  0.00    -0.268 OA
BRANCH  31  39
ATOM     39  O   UNL     1      -4.648  -7.256   0.715  0.00  0.00    -0.495 OA
ATOM     40  C   UNL     1      -4.926  -8.558   0.196  0.00  0.00    +0.277 C 
ENDBRANCH  31  39
ENDBRANCH  26  27
ENDBRANCH   1  26
TORSDOF 11
