REMARK  Name = ZINC39722638
REMARK  7 active torsions:
REMARK  status: ('A' for Active; 'I' for Inactive)
REMARK    1  A    between atoms: C_1  and  C_2
REMARK    2  A    between atoms: C_2  and  C_3
REMARK    3  A    between atoms: C_3  and  N_4
REMARK    4  A    between atoms: C_5  and  S_17
REMARK    5  A    between atoms: S_17  and  C_18
REMARK    6  A    between atoms: C_18  and  C_19
REMARK    7  A    between atoms: C_27  and  C_31
REMARK                            x       y       z     vdW  Elec       q    Type
REMARK                         _______ _______ _______ _____ _____    ______ ____
ROOT
ATOM      1  S   UNL     1      -3.117  -3.091  -1.754  0.00  0.00    -0.111 S 
ENDROOT
BRANCH   1   3
ATOM      2  N   UNL     1      -1.413  -1.998   0.005  0.00  0.00    -0.270 N 
ATOM      3  C   UNL     1      -1.410  -2.710  -1.274  0.00  0.00    +0.222 C 
ATOM      4  N   UNL     1      -0.651  -3.960  -1.159  0.00  0.00    -0.317 N 
ATOM      5  C   UNL     1      -0.835  -4.754  -0.032  0.00  0.00    +0.043 A 
ATOM      6  C   UNL     1      -0.669  -6.127  -0.072  0.00  0.00    +0.043 A 
ATOM      7  C   UNL     1      -0.847  -6.873   1.079  0.00  0.00    +0.043 A 
ATOM      8  C   UNL     1      -1.189  -6.254   2.273  0.00  0.00    +0.021 A 
ATOM      9  C   UNL     1      -1.364  -4.888   2.328  0.00  0.00    +0.016 A 
ATOM     10  C   UNL     1      -1.196  -4.126   1.174  0.00  0.00    +0.058 A 
ATOM     11  C   UNL     1      -1.393  -2.667   1.175  0.00  0.00    +0.250 C 
ATOM     12  O   UNL     1      -1.541  -2.070   2.225  0.00  0.00    -0.270 OA
ATOM     13 CL   UNL     1      -0.640  -8.596   1.030  0.00  0.00    -0.083 Cl
ATOM     14  H   UNL     1      -0.032  -4.229  -1.856  0.00  0.00    +0.149 HD
BRANCH   2  15
ATOM     15  C   UNL     1      -1.433  -0.534   0.013  0.00  0.00    +0.110 C 
BRANCH  15  17
ATOM     16  C   UNL     1      -0.019   1.526   0.010  0.00  0.00    +0.005 C 
ATOM     17  C   UNL     1       0.002  -0.004   0.002  0.00  0.00    +0.016 C 
ENDBRANCH  15  17
ENDBRANCH   2  15
ENDBRANCH   1   3
BRANCH   1  18
ATOM     18  C   UNL     1      -3.735  -4.124  -0.397  0.00  0.00    +0.146 C 
BRANCH  18  19
ATOM     19  C   UNL     1      -5.163  -4.515  -0.673  0.00  0.00    +0.120 A 
ATOM     20  N   UNL     1      -5.807  -5.291   0.238  0.00  0.00    -0.310 N 
ATOM     21  H   UNL     1      -5.343  -5.575   1.040  0.00  0.00    +0.170 HD
ATOM     22  C   UNL     1      -7.091  -5.669   0.036  0.00  0.00    +0.259 A 
ATOM     23  O   UNL     1      -7.679  -6.363   0.844  0.00  0.00    -0.267 OA
ATOM     24  C   UNL     1      -7.748  -5.208  -1.199  0.00  0.00    +0.065 A 
ATOM     25  C   UNL     1      -9.067  -5.543  -1.498  0.00  0.00    +0.016 A 
ATOM     26  C   UNL     1      -9.638  -5.094  -2.655  0.00  0.00    +0.016 A 
ATOM     27  C   UNL     1      -8.908  -4.296  -3.546  0.00  0.00    +0.065 A 
ATOM     28  C   UNL     1      -7.590  -3.951  -3.267  0.00  0.00    +0.043 A 
ATOM     29  C   UNL     1      -6.998  -4.405  -2.087  0.00  0.00    +0.079 A 
ATOM     30  N   UNL     1      -5.718  -4.090  -1.768  0.00  0.00    -0.233 NA
BRANCH  27  31
ATOM     31  C   UNL     1      -9.543  -3.820  -4.793  0.00  0.00    +0.387 C 
ATOM     32  O   UNL     1     -10.701  -4.121  -5.043  0.00  0.00    -0.241 OA
ATOM     33  O   UNL     1      -8.910  -3.124  -5.574  0.00  0.00    -0.241 OA
ENDBRANCH  27  31
ENDBRANCH  18  19
ENDBRANCH   1  18
TORSDOF 6
