REMARK  Name = ZINC12884159
REMARK  6 active torsions:
REMARK  status: ('A' for Active; 'I' for Inactive)
REMARK    1  A    between atoms: C_1  and  C_2
REMARK    2  A    between atoms: C_2  and  C_4
REMARK    3  A    between atoms: C_2  and  N_10
REMARK    4  A    between atoms: C_16  and  N_19
REMARK    5  A    between atoms: N_19  and  S_20
REMARK    6  A    between atoms: S_20  and  C_23
REMARK                            x       y       z     vdW  Elec       q    Type
REMARK                         _______ _______ _______ _____ _____    ______ ____
ROOT
ATOM      1  N   UNL     1      -0.016   1.343   0.014  0.00  0.00    -0.293 N 
ATOM      2  C   UNL     1       0.002  -0.004   0.002  0.00  0.00    +0.303 C 
ATOM      3  O   UNL     1       1.058  -0.597  -0.107  0.00  0.00    -0.253 OA
ATOM      4  N   UNL     1      -1.150  -0.694   0.111  0.00  0.00    -0.286 N 
ATOM      5  C   UNL     1      -2.442   0.005   0.135  0.00  0.00    +0.111 C 
ATOM      6  C   UNL     1      -3.344  -0.598  -0.953  0.00  0.00    +0.039 C 
ATOM      7  C   UNL     1      -3.445  -2.111  -0.743  0.00  0.00    +0.080 C 
ATOM      8  C   UNL     1      -2.055  -2.738  -0.869  0.00  0.00    +0.039 C 
ATOM      9  C   UNL     1      -1.138  -2.160   0.214  0.00  0.00    +0.111 C 
ATOM     10  H   UNL     1      -0.862   1.817   0.024  0.00  0.00    +0.151 HD
ENDROOT
BRANCH   1  12
ATOM     11  C   UNL     1       1.729   2.258  -1.436  0.00  0.00    +0.033 C 
ATOM     12  C   UNL     1       1.243   2.093   0.005  0.00  0.00    +0.102 C 
BRANCH  12  13
ATOM     13  C   UNL     1       1.023   3.451   0.620  0.00  0.00    -0.027 A 
ATOM     14  C   UNL     1      -0.133   4.157   0.343  0.00  0.00    +0.005 A 
ATOM     15  C   UNL     1      -0.336   5.401   0.910  0.00  0.00    +0.000 A 
ATOM     16  C   UNL     1       0.620   5.943   1.748  0.00  0.00    +0.000 A 
ATOM     17  C   UNL     1       1.778   5.240   2.022  0.00  0.00    +0.000 A 
ATOM     18  C   UNL     1       1.980   3.994   1.458  0.00  0.00    +0.005 A 
ENDBRANCH  12  13
ENDBRANCH   1  12
BRANCH   7  19
ATOM     19  N   UNL     1      -4.333  -2.686  -1.756  0.00  0.00    -0.186 NA
ATOM     20  H   UNL     1      -3.983  -2.924  -2.629  0.00  0.00    +0.148 HD
BRANCH  19  21
ATOM     21  S   UNL     1      -5.935  -2.928  -1.412  0.00  0.00    +0.065 S 
ATOM     22  O   UNL     1      -6.526  -3.465  -2.587  0.00  0.00    -0.153 OA
ATOM     23  O   UNL     1      -5.984  -3.599  -0.160  0.00  0.00    -0.153 OA
BRANCH  21  24
ATOM     24  C   UNL     1      -6.660  -1.342  -1.163  0.00  0.00    +0.142 A 
ATOM     25  C   UNL     1      -7.240  -0.517  -2.068  0.00  0.00    +0.036 A 
ATOM     26  C   UNL     1      -7.749   0.695  -1.640  0.00  0.00    +0.010 A 
ATOM     27  C   UNL     1      -7.652   1.023  -0.329  0.00  0.00    +0.047 A 
ATOM     28  S   UNL     1      -6.828  -0.408   0.349  0.00  0.00    -0.077 S 
ENDBRANCH  21  24
ENDBRANCH  19  21
ENDBRANCH   7  19
TORSDOF 5
