REMARK  Name = ZINC00984959
REMARK  4 active torsions:
REMARK  status: ('A' for Active; 'I' for Inactive)
REMARK    1  A    between atoms: C_1  and  O_2
REMARK    2  A    between atoms: O_2  and  C_3
REMARK    3  A    between atoms: C_10  and  C_21
REMARK    4  A    between atoms: N_12  and  C_13
REMARK                            x       y       z     vdW  Elec       q    Type
REMARK                         _______ _______ _______ _____ _____    ______ ____
ROOT
ATOM      1  C   UNL     1      -0.458  -1.921  -0.106  0.00  0.00    +0.121 A 
ATOM      2  C   UNL     1      -1.366  -0.867  -0.140  0.00  0.00    +0.049 A 
ATOM      3  C   UNL     1      -2.724  -1.109  -0.114  0.00  0.00    +0.050 A 
ATOM      4  C   UNL     1      -3.196  -2.412  -0.055  0.00  0.00    +0.138 A 
ATOM      5  C   UNL     1      -2.283  -3.483  -0.026  0.00  0.00    +0.022 A 
ATOM      6  C   UNL     1      -0.907  -3.226  -0.055  0.00  0.00    +0.057 A 
ATOM      7  C   UNL     1      -2.787  -4.857   0.026  0.00  0.00    +0.030 A 
ATOM      8  C   UNL     1      -4.138  -5.051  -0.230  0.00  0.00    +0.097 A 
ATOM      9  C   UNL     1      -4.944  -3.851  -0.530  0.00  0.00    +0.212 A 
ATOM     10  N   UNL     1      -6.033  -3.932  -1.264  0.00  0.00    -0.325 N 
ATOM     11  O   UNL     1      -4.529  -2.662  -0.025  0.00  0.00    -0.439 OA
ATOM     12  H   UNL     1      -6.269  -4.770  -1.692  0.00  0.00    +0.169 HD
ENDROOT
BRANCH  10  13
ATOM     13  C   UNL     1      -6.832  -2.834  -1.426  0.00  0.00    +0.043 A 
ATOM     14  C   UNL     1      -7.159  -2.036  -0.326  0.00  0.00    +0.026 A 
ATOM     15  C   UNL     1      -7.965  -0.930  -0.496  0.00  0.00    +0.003 A 
ATOM     16  C   UNL     1      -8.451  -0.609  -1.751  0.00  0.00    +0.015 A 
ATOM     17  C   UNL     1      -8.132  -1.395  -2.846  0.00  0.00    +0.020 A 
ATOM     18  C   UNL     1      -7.321  -2.502  -2.691  0.00  0.00    +0.041 A 
ATOM     19 BR   UNL     1      -8.802  -0.948  -4.556  0.00  0.00    -0.050 Br
ENDBRANCH  10  13
BRANCH   8  20
ATOM     20  C   UNL     1      -4.740  -6.394  -0.203  0.00  0.00    +0.247 C 
ATOM     21  O   UNL     1      -5.945  -6.523  -0.311  0.00  0.00    -0.270 OA
ATOM     22  N   UNL     1      -3.957  -7.481  -0.060  0.00  0.00    -0.325 N 
ATOM     23  H   UNL     1      -3.005  -7.376   0.098  0.00  0.00    +0.145 HD
ATOM     24  H   UNL     1      -4.344  -8.369  -0.114  0.00  0.00    +0.145 HD
ENDBRANCH   8  20
BRANCH   1  26
ATOM     25  C   UNL     1       1.274  -0.293  -0.184  0.00  0.00    +0.277 C 
ATOM     26  O   UNL     1       0.877  -1.665  -0.131  0.00  0.00    -0.495 OA
ENDBRANCH   1  26
TORSDOF 3
