REMARK  Name = ZINC67423672
REMARK  5 active torsions:
REMARK  status: ('A' for Active; 'I' for Inactive)
REMARK    1  A    between atoms: C_4  and  C_7
REMARK    2  A    between atoms: C_7  and  C_14
REMARK    3  A    between atoms: C_14  and  N_15
REMARK    4  A    between atoms: N_18  and  N_19
REMARK    5  A    between atoms: C_20  and  C_22
REMARK                            x       y       z     vdW  Elec       q    Type
REMARK                         _______ _______ _______ _____ _____    ______ ____
ROOT
ATOM      1  N   UNL     1       4.683   1.202   1.141  0.00  0.00    -0.297 N 
ATOM      2  C   UNL     1       5.466   1.819   2.049  0.00  0.00    +0.316 C 
ATOM      3  O   UNL     1       6.057   1.165   2.886  0.00  0.00    -0.251 OA
ATOM      4  N   UNL     1       5.592   3.161   2.030  0.00  0.00    -0.218 N 
ATOM      5  H   UNL     1       4.211   1.724   0.474  0.00  0.00    +0.150 HD
ATOM      6  H   UNL     1       6.155   3.604   2.683  0.00  0.00    +0.174 HD
ENDROOT
BRANCH   4   7
ATOM      7  N   UNL     1       4.910   3.914   1.066  0.00  0.00    -0.225 N 
ATOM      8  C   UNL     1       5.036   5.256   1.046  0.00  0.00    +0.315 C 
ATOM      9  O   UNL     1       5.740   5.811   1.864  0.00  0.00    -0.264 OA
ATOM     10  H   UNL     1       4.347   3.471   0.412  0.00  0.00    +0.173 HD
BRANCH   8  11
ATOM     11  C   UNL     1       4.309   6.060   0.018  0.00  0.00    +0.303 C 
ATOM     12  O   UNL     1       3.604   5.505  -0.800  0.00  0.00    -0.265 OA
ATOM     13  N   UNL     1       4.435   7.402  -0.002  0.00  0.00    -0.294 N 
ATOM     14  C   UNL     1       5.256   8.199   0.921  0.00  0.00    +0.108 C 
ATOM     15  C   UNL     1       5.071   9.682   0.536  0.00  0.00    +0.020 C 
ATOM     16  C   UNL     1       3.716   9.678  -0.221  0.00  0.00    +0.020 C 
ATOM     17  C   UNL     1       3.777   8.313  -0.956  0.00  0.00    +0.108 C 
ENDBRANCH   8  11
ENDBRANCH   4   7
BRANCH   1  18
ATOM     18  C   UNL     1       4.546  -0.256   1.163  0.00  0.00    +0.117 C 
BRANCH  18  19
ATOM     19  C   UNL     1       3.727  -0.709  -0.048  0.00  0.00    +0.011 C 
ATOM     20  C   UNL     1       4.300  -0.043  -1.313  0.00  0.00    +0.013 C 
ATOM     21  C   UNL     1       5.572  -0.741  -1.832  0.00  0.00    +0.001 C 
ATOM     22  C   UNL     1       6.508  -1.132  -0.721  0.00  0.00    +0.000 C 
ATOM     23  C   UNL     1       6.214  -2.593  -0.323  0.00  0.00    +0.000 C 
ATOM     24  C   UNL     1       5.055  -2.708   0.550  0.00  0.00    +0.001 C 
ATOM     25  C   UNL     1       3.760  -2.211  -0.123  0.00  0.00    +0.013 C 
BRANCH  19  29
ATOM     26  C   UNL     1      -0.318   0.563   0.472  0.00  0.00    +0.000 A 
ATOM     27  C   UNL     1       0.232  -0.362   1.339  0.00  0.00    +0.000 A 
ATOM     28  C   UNL     1       1.541  -0.774   1.170  0.00  0.00    +0.004 A 
ATOM     29  C   UNL     1       2.300  -0.261   0.135  0.00  0.00    -0.040 A 
ATOM     30  C   UNL     1       1.749   0.664  -0.732  0.00  0.00    +0.004 A 
ATOM     31  C   UNL     1       0.441   1.077  -0.563  0.00  0.00    +0.000 A 
ENDBRANCH  19  29
ENDBRANCH  18  19
ENDBRANCH   1  18
TORSDOF 5
