REMARK  Name = ZINC08704936
REMARK  9 active torsions:
REMARK  status: ('A' for Active; 'I' for Inactive)
REMARK    1  A    between atoms: C_1  and  C_2
REMARK    2  A    between atoms: C_3  and  C_27
REMARK    3  A    between atoms: C_4  and  C_24
REMARK    4  A    between atoms: C_5  and  S_9
REMARK    5  A    between atoms: C_7  and  C_8
REMARK    6  A    between atoms: S_9  and  C_10
REMARK    7  A    between atoms: C_10  and  C_11
REMARK    8  A    between atoms: C_12  and  C_23
REMARK    9  A    between atoms: C_13  and  C_16
REMARK                            x       y       z     vdW  Elec       q    Type
REMARK                         _______ _______ _______ _____ _____    ______ ____
ROOT
ATOM      1  S   UNL     1      -0.627   1.754   2.864  0.00  0.00    -0.099 S 
ENDROOT
BRANCH   1   6
ATOM      2  C   UNL     1      -2.692   2.847  -2.665  0.00  0.00    +0.046 C 
ATOM      3  C   UNL     1      -2.132   2.555  -1.296  0.00  0.00    -0.026 A 
ATOM      4  C   UNL     1      -0.873   1.996  -1.163  0.00  0.00    -0.031 A 
ATOM      5  C   UNL     1      -0.395   1.737   0.126  0.00  0.00    +0.071 A 
ATOM      6  C   UNL     1      -1.205   2.063   1.228  0.00  0.00    +0.110 A 
ATOM      7  N   UNL     1      -2.402   2.600   1.042  0.00  0.00    -0.245 NA
ATOM      8  C   UNL     1      -2.872   2.848  -0.164  0.00  0.00    +0.043 A 
ATOM      9  C   UNL     1      -4.240   3.461  -0.313  0.00  0.00    +0.066 C 
ATOM     10  C   UNL     1      -0.041   1.671  -2.376  0.00  0.00    +0.045 C 
BRANCH   5  11
ATOM     11  C   UNL     1       0.938   1.138   0.326  0.00  0.00    +0.244 C 
ATOM     12  O   UNL     1       1.060  -0.070   0.378  0.00  0.00    -0.270 OA
ATOM     13  N   UNL     1       2.021   1.931   0.445  0.00  0.00    -0.325 N 
ATOM     14  H   UNL     1       2.899   1.537   0.572  0.00  0.00    +0.145 HD
ATOM     15  H   UNL     1       1.924   2.895   0.403  0.00  0.00    +0.145 HD
ENDBRANCH   5  11
ENDBRANCH   1   6
BRANCH   1  16
ATOM     16  C   UNL     1      -2.044   2.354   3.816  0.00  0.00    +0.135 C 
BRANCH  16  17
ATOM     17  C   UNL     1      -1.768   2.185   5.288  0.00  0.00    +0.097 A 
ATOM     18  C   UNL     1      -1.155   3.123   6.144  0.00  0.00    +0.020 A 
ATOM     19  C   UNL     1      -1.139   2.497   7.361  0.00  0.00    +0.170 A 
ATOM     20  O   UNL     1      -1.711   1.294   7.169  0.00  0.00    -0.354 OA
ATOM     21  N   UNL     1      -2.055   1.146   6.020  0.00  0.00    -0.082 NA
ATOM     22  C   UNL     1      -0.636   4.495   5.799  0.00  0.00    +0.050 C 
BRANCH  19  23
ATOM     23  C   UNL     1      -0.604   3.034   8.629  0.00  0.00    +0.020 A 
ATOM     24  C   UNL     1       0.219   2.242   9.433  0.00  0.00    +0.014 A 
ATOM     25  C   UNL     1       0.720   2.750  10.613  0.00  0.00    +0.039 A 
ATOM     26  C   UNL     1       0.400   4.040  11.007  0.00  0.00    +0.123 A 
ATOM     27  C   UNL     1      -0.420   4.828  10.215  0.00  0.00    +0.039 A 
ATOM     28  C   UNL     1      -0.923   4.332   9.030  0.00  0.00    +0.014 A 
ATOM     29  F   UNL     1       0.889   4.530  12.167  0.00  0.00    -0.205 F 
ENDBRANCH  19  23
ENDBRANCH  16  17
ENDBRANCH   1  16
TORSDOF 5
