REMARK  Name = ZINC36555460
REMARK  14 active torsions:
REMARK  status: ('A' for Active; 'I' for Inactive)
REMARK    1  A    between atoms: C_1  and  C_2
REMARK    2  A    between atoms: C_2  and  C_3
REMARK    3  A    between atoms: C_3  and  C_4
REMARK    4  A    between atoms: C_4  and  N_5
REMARK    5  A    between atoms: C_6  and  C_8
REMARK    6  A    between atoms: C_8  and  C_10
REMARK    7  A    between atoms: C_8  and  N_17
REMARK    8  A    between atoms: C_13  and  C_16
REMARK    9  A    between atoms: N_17  and  C_18
REMARK   10  A    between atoms: C_18  and  C_19
REMARK   11  A    between atoms: C_22  and  C_24
REMARK   12  A    between atoms: C_25  and  C_27
REMARK   13  A    between atoms: C_27  and  C_35
REMARK   14  A    between atoms: C_28  and  C_29
REMARK                            x       y       z     vdW  Elec       q    Type
REMARK                         _______ _______ _______ _____ _____    ______ ____
ROOT
ATOM      1  N   UNL     1       2.446  -6.516   4.187  0.00  0.00    -0.275 N 
ATOM      2  C   UNL     1       3.764  -6.736   4.008  0.00  0.00    +0.248 C 
ATOM      3  O   UNL     1       4.461  -5.876   3.504  0.00  0.00    -0.270 OA
ENDROOT
BRANCH   2   4
ATOM      4  C   UNL     1       4.359  -8.016   4.423  0.00  0.00    +0.045 C 
ATOM      5  C   UNL     1       4.624  -8.249   5.736  0.00  0.00    +0.021 C 
BRANCH   5   6
ATOM      6  C   UNL     1       4.525  -7.154   6.711  0.00  0.00    -0.024 A 
ATOM      7  C   UNL     1       3.921  -7.372   7.954  0.00  0.00    +0.008 A 
ATOM      8  C   UNL     1       3.832  -6.340   8.863  0.00  0.00    +0.001 A 
ATOM      9  C   UNL     1       4.339  -5.090   8.549  0.00  0.00    +0.000 A 
ATOM     10  C   UNL     1       4.937  -4.867   7.321  0.00  0.00    +0.001 A 
ATOM     11  C   UNL     1       5.039  -5.890   6.403  0.00  0.00    +0.008 A 
ENDBRANCH   5   6
BRANCH   4  12
ATOM     12  C   UNL     1       4.669  -9.051   3.410  0.00  0.00    -0.013 A 
ATOM     13  C   UNL     1       5.616  -8.799   2.417  0.00  0.00    +0.008 A 
ATOM     14  C   UNL     1       5.901  -9.767   1.477  0.00  0.00    +0.001 A 
ATOM     15  C   UNL     1       5.248 -10.986   1.516  0.00  0.00    +0.000 A 
ATOM     16  C   UNL     1       4.307 -11.243   2.497  0.00  0.00    +0.001 A 
ATOM     17  C   UNL     1       4.019 -10.285   3.447  0.00  0.00    +0.008 A 
ENDBRANCH   4  12
ENDBRANCH   2   4
BRANCH   1  18
ATOM     18  C   UNL     1       1.838  -5.275   3.701  0.00  0.00    +0.193 C 
BRANCH  18  19
ATOM     19  C   UNL     1       1.240  -4.520   4.860  0.00  0.00    -0.018 A 
ATOM     20  C   UNL     1       0.033  -4.924   5.399  0.00  0.00    +0.006 A 
ATOM     21  C   UNL     1      -0.516  -4.233   6.462  0.00  0.00    +0.004 A 
ATOM     22  C   UNL     1       0.143  -3.137   6.988  0.00  0.00    -0.050 A 
ATOM     23  C   UNL     1       1.351  -2.734   6.450  0.00  0.00    +0.004 A 
ATOM     24  C   UNL     1       1.902  -3.428   5.389  0.00  0.00    +0.006 A 
ATOM     25  C   UNL     1      -0.455  -2.382   8.147  0.00  0.00    +0.044 C 
ENDBRANCH  18  19
BRANCH  18  27
ATOM     26  N   UNL     1      -0.198  -4.694   2.422  0.00  0.00    -0.313 N 
ATOM     27  C   UNL     1       0.757  -5.602   2.703  0.00  0.00    +0.238 C 
ATOM     28  O   UNL     1       0.746  -6.683   2.153  0.00  0.00    -0.273 OA
ATOM     29  H   UNL     1      -0.190  -3.829   2.862  0.00  0.00    +0.149 HD
BRANCH  26  30
ATOM     30  C   UNL     1      -1.250  -5.012   1.453  0.00  0.00    +0.104 C 
BRANCH  30  31
ATOM     31  C   UNL     1      -2.198  -3.819   1.319  0.00  0.00    +0.018 C 
BRANCH  31  33
ATOM     32  C   UNL     1      -4.245  -2.958   0.173  0.00  0.00    +0.004 C 
ATOM     33  C   UNL     1      -3.296  -4.151   0.307  0.00  0.00    -0.002 C 
ENDBRANCH  31  33
ENDBRANCH  30  31
ENDBRANCH  26  30
ENDBRANCH  18  27
ENDBRANCH   1  18
BRANCH   1  34
ATOM     34  C   UNL     1       1.622  -7.518   4.867  0.00  0.00    +0.183 C 
BRANCH  34  35
ATOM     35  C   UNL     1       0.887  -8.343   3.843  0.00  0.00    +0.122 A 
ATOM     36  C   UNL     1       1.454  -9.151   2.929  0.00  0.00    +0.046 A 
ATOM     37  C   UNL     1       0.402  -9.725   2.179  0.00  0.00    +0.045 A 
ATOM     38  C   UNL     1      -0.746  -9.234   2.680  0.00  0.00    +0.102 A 
ATOM     39  O   UNL     1      -0.446  -8.402   3.691  0.00  0.00    -0.463 OA
ATOM     40  C   UNL     1      -2.133  -9.565   2.193  0.00  0.00    +0.086 C 
ENDBRANCH  34  35
ENDBRANCH   1  34
TORSDOF 11
