REMARK  Name = ZINC39991013
REMARK  5 active torsions:
REMARK  status: ('A' for Active; 'I' for Inactive)
REMARK    1  A    between atoms: C_7  and  C_10
REMARK    2  A    between atoms: C_13  and  S_16
REMARK    3  A    between atoms: S_16  and  C_17
REMARK    4  A    between atoms: C_17  and  C_18
REMARK    5  A    between atoms: C_24  and  C_26
REMARK                            x       y       z     vdW  Elec       q    Type
REMARK                         _______ _______ _______ _____ _____    ______ ____
ROOT
ATOM      1  C   UNL     1      -0.019  -5.097   2.832  0.00  0.00    +0.170 C 
ENDROOT
BRANCH   1   2
ATOM      2  C   UNL     1      -0.048  -5.838   4.144  0.00  0.00    +0.226 C 
ATOM      3  O   UNL     1      -0.158  -7.046   4.155  0.00  0.00    -0.275 OA
ATOM      4  N   UNL     1       0.048  -5.160   5.304  0.00  0.00    -0.294 N 
ATOM      5  C   UNL     1       0.179  -3.697   5.436  0.00  0.00    +0.108 C 
ATOM      6  C   UNL     1      -0.364  -3.376   6.851  0.00  0.00    +0.021 C 
ATOM      7  C   UNL     1       0.143  -4.597   7.663  0.00  0.00    +0.029 C 
ATOM      8  C   UNL     1       0.032  -5.755   6.648  0.00  0.00    +0.106 C 
BRANCH   8   9
ATOM      9  C   UNL     1       1.205  -6.687   6.809  0.00  0.00    -0.023 A 
ATOM     10  C   UNL     1       2.439  -6.338   6.294  0.00  0.00    +0.009 A 
ATOM     11  C   UNL     1       3.520  -7.189   6.438  0.00  0.00    +0.050 A 
ATOM     12  C   UNL     1       3.362  -8.393   7.102  0.00  0.00    +0.162 A 
ATOM     13  C   UNL     1       2.123  -8.744   7.620  0.00  0.00    +0.162 A 
ATOM     14  C   UNL     1       1.044  -7.888   7.478  0.00  0.00    +0.055 A 
ATOM     15  O   UNL     1       1.978  -9.933   8.274  0.00  0.00    -0.488 OA
ATOM     16  C   UNL     1       2.091 -11.107   7.467  0.00  0.00    +0.232 C 
ATOM     17  C   UNL     1       3.548 -11.507   7.297  0.00  0.00    +0.082 C 
ATOM     18  C   UNL     1       4.346 -10.468   6.524  0.00  0.00    +0.232 C 
ATOM     19  O   UNL     1       4.420  -9.241   7.253  0.00  0.00    -0.488 OA
ENDBRANCH   8   9
ENDBRANCH   1   2
BRANCH   1  20
ATOM     20  S   UNL     1      -0.167  -6.280   1.465  0.00  0.00    -0.087 S 
BRANCH  20  24
ATOM     21  C   UNL     1       0.676  -3.129  -0.021  0.00  0.00    +0.238 C 
ATOM     22  N   UNL     1      -0.625  -3.009  -0.013  0.00  0.00    -0.145 NA
ATOM     23  N   UNL     1      -1.227  -4.276  -0.013  0.00  0.00    -0.219 N 
ATOM     24  C   UNL     1      -0.115  -5.241  -0.021  0.00  0.00    +0.339 C 
ATOM     25  O   UNL     1       1.066  -4.427  -0.031  0.00  0.00    -0.443 OA
ATOM     26  H   UNL     1      -2.177  -4.474  -0.008  0.00  0.00    +0.173 HD
BRANCH  21  33
ATOM     27  C   UNL     1      -0.016   1.354   0.009  0.00  0.00    +0.001 A 
ATOM     28  C   UNL     1       1.163   2.101   0.002  0.00  0.00    +0.002 A 
ATOM     29  C   UNL     1       2.384   1.511  -0.013  0.00  0.00    +0.026 A 
ATOM     30  C   UNL     1       2.483   0.096  -0.021  0.00  0.00    +0.043 A 
ATOM     31  N   UNL     1       3.531  -0.705  -0.036  0.00  0.00    -0.380 N 
ATOM     32  C   UNL     1       3.075  -2.099  -0.039  0.00  0.00    +0.154 C 
ATOM     33  C   UNL     1       1.563  -2.044  -0.024  0.00  0.00    +0.043 C 
ATOM     34  C   UNL     1       1.237  -0.687  -0.013  0.00  0.00    +0.008 A 
ATOM     35  C   UNL     1       0.002  -0.004   0.002  0.00  0.00    +0.010 A 
ATOM     36  H   UNL     1       4.457  -0.418  -0.044  0.00  0.00    +0.160 HD
ENDBRANCH  21  33
ENDBRANCH  20  24
ENDBRANCH   1  20
TORSDOF 5
