REMARK  Name = ZINC65265960
REMARK  6 active torsions:
REMARK  status: ('A' for Active; 'I' for Inactive)
REMARK    1  A    between atoms: C_1  and  C_2
REMARK    2  A    between atoms: C_5  and  C_7
REMARK    3  A    between atoms: N_24  and  C_25
REMARK    4  A    between atoms: C_25  and  C_26
REMARK    5  A    between atoms: C_25  and  C_27
REMARK    6  A    between atoms: C_25  and  C_28
REMARK                            x       y       z     vdW  Elec       q    Type
REMARK                         _______ _______ _______ _____ _____    ______ ____
ROOT
ATOM      1  C   UNL     1       0.010  -6.160   0.089  0.00  0.00    +0.253 C 
ATOM      2  O   UNL     1      -0.313  -7.316   0.295  0.00  0.00    -0.269 OA
ATOM      3  N   UNL     1       1.313  -5.836  -0.027  0.00  0.00    -0.295 N 
ATOM      4  C   UNL     1       1.843  -4.480  -0.269  0.00  0.00    +0.110 C 
ATOM      5  C   UNL     1       3.294  -4.514   0.278  0.00  0.00    +0.050 C 
ATOM      6  C   UNL     1       3.724  -5.947  -0.084  0.00  0.00    +0.091 C 
ATOM      7  C   UNL     1       2.444  -6.774   0.072  0.00  0.00    +0.137 C 
ATOM      8  C   UNL     1       4.818  -6.439   0.803  0.00  0.00    +0.095 C 
ATOM      9  N   UNL     1       6.104  -6.205   0.383  0.00  0.00    -0.303 N 
ATOM     10  C   UNL     1       6.729  -7.147  -0.428  0.00  0.00    +0.037 A 
ATOM     11  C   UNL     1       8.036  -7.534  -0.164  0.00  0.00    +0.023 A 
ATOM     12  C   UNL     1       8.663  -8.458  -0.975  0.00  0.00    +0.002 A 
ATOM     13  C   UNL     1       7.980  -8.993  -2.052  0.00  0.00    +0.000 A 
ATOM     14  C   UNL     1       6.681  -8.612  -2.312  0.00  0.00    +0.007 A 
ATOM     15  C   UNL     1       6.030  -7.688  -1.500  0.00  0.00    -0.012 A 
ATOM     16  C   UNL     1       4.598  -7.368  -1.846  0.00  0.00    +0.119 C 
ATOM     17  N   UNL     1       4.218  -5.998  -1.479  0.00  0.00    -0.299 NA
ATOM     18  N   UNL     1       4.567  -7.055   1.912  0.00  0.00    -0.370 N 
ATOM     19  H   UNL     1       3.530  -5.630  -2.119  0.00  0.00    +0.123 HD
ATOM     20  H   UNL     1       3.683  -7.420   2.075  0.00  0.00    +0.161 HD
ATOM     21  H   UNL     1       6.569  -5.395   0.646  0.00  0.00    +0.153 HD
ENDROOT
BRANCH   1  26
ATOM     22  C   UNL     1      -3.013  -1.542  -0.523  0.00  0.00    +0.051 C 
ATOM     23  C   UNL     1      -2.439  -2.921  -0.324  0.00  0.00    -0.013 A 
ATOM     24  C   UNL     1      -3.109  -4.079  -0.101  0.00  0.00    +0.011 A 
ATOM     25  C   UNL     1      -2.397  -5.243   0.055  0.00  0.00    +0.021 A 
ATOM     26  C   UNL     1      -1.018  -5.122  -0.031  0.00  0.00    +0.074 A 
ATOM     27  S   UNL     1      -0.822  -3.377  -0.335  0.00  0.00    -0.089 S 
ENDBRANCH   1  26
BRANCH  18  28
ATOM     28  C   UNL     1       5.619  -7.202   2.922  0.00  0.00    +0.031 C 
ATOM     29  C   UNL     1       6.197  -5.827   3.260  0.00  0.00    +0.033 C 
ATOM     30  C   UNL     1       5.028  -7.832   4.185  0.00  0.00    +0.033 C 
ATOM     31  C   UNL     1       6.729  -8.102   2.375  0.00  0.00    +0.033 C 
ENDBRANCH  18  28
TORSDOF 2
