REMARK  Name = ZINC20812949
REMARK  6 active torsions:
REMARK  status: ('A' for Active; 'I' for Inactive)
REMARK    1  A    between atoms: C_1  and  C_2
REMARK    2  A    between atoms: C_2  and  N_3
REMARK    3  A    between atoms: C_6  and  C_7
REMARK    4  A    between atoms: C_17  and  C_25
REMARK    5  A    between atoms: C_19  and  C_23
REMARK    6  A    between atoms: C_20  and  N_22
REMARK                            x       y       z     vdW  Elec       q    Type
REMARK                         _______ _______ _______ _____ _____    ______ ____
ROOT
ATOM      1  N   UNL     1       2.175   3.501  -1.432  0.00  0.00    -0.294 NA
ATOM      2  C   UNL     1       1.140   3.246  -0.413  0.00  0.00    +0.123 C 
ATOM      3  C   UNL     1       1.137   1.754  -0.150  0.00  0.00    +0.010 C 
ATOM      4  C   UNL     1      -0.013   1.076   0.008  0.00  0.00    +0.016 C 
ATOM      5  C   UNL     1       2.446   1.074  -0.068  0.00  0.00    +0.136 C 
ATOM      6  C   UNL     1       3.552   1.724  -0.439  0.00  0.00    -0.001 C 
ATOM      7  C   UNL     1       3.501   3.151  -0.920  0.00  0.00    +0.120 C 
ATOM      8  C   UNL     1       4.896   1.038  -0.376  0.00  0.00    +0.095 C 
ATOM      9  C   UNL     1       4.827  -0.164   0.534  0.00  0.00    +0.098 C 
ATOM     10  C   UNL     1       3.631  -0.718   0.856  0.00  0.00    +0.199 C 
ATOM     11  O   UNL     1       2.483  -0.205   0.381  0.00  0.00    -0.441 OA
ENDROOT
BRANCH   4  12
ATOM     12  C   UNL     1      -1.292   1.802   0.088  0.00  0.00    -0.022 A 
ATOM     13  C   UNL     1      -1.343   3.071   0.673  0.00  0.00    +0.008 A 
ATOM     14  C   UNL     1      -2.542   3.749   0.741  0.00  0.00    +0.003 A 
ATOM     15  C   UNL     1      -3.696   3.172   0.241  0.00  0.00    +0.038 A 
ATOM     16  C   UNL     1      -3.656   1.912  -0.335  0.00  0.00    +0.124 A 
ATOM     17  C   UNL     1      -2.460   1.224  -0.414  0.00  0.00    +0.046 A 
ATOM     18  F   UNL     1      -4.787   1.356  -0.820  0.00  0.00    -0.205 F 
ENDBRANCH   4  12
BRANCH   8  19
ATOM     19  C   UNL     1       5.302   0.610  -1.763  0.00  0.00    -0.032 A 
ATOM     20  C   UNL     1       6.469   1.098  -2.322  0.00  0.00    +0.005 A 
ATOM     21  C   UNL     1       6.843   0.706  -3.594  0.00  0.00    +0.003 A 
ATOM     22  C   UNL     1       6.051  -0.173  -4.308  0.00  0.00    +0.038 A 
ATOM     23  C   UNL     1       4.883  -0.662  -3.748  0.00  0.00    +0.124 A 
ATOM     24  C   UNL     1       4.512  -0.274  -2.472  0.00  0.00    +0.043 A 
ATOM     25  F   UNL     1       4.108  -1.522  -4.445  0.00  0.00    -0.205 F 
ENDBRANCH   8  19
BRANCH  10  26
ATOM     26  N   UNL     1       3.593  -1.816   1.678  0.00  0.00    -0.328 N 
ATOM     27  H   UNL     1       2.628  -2.271   1.944  0.00  0.00    +0.145 HD
ATOM     28  H   UNL     1       4.529  -2.242   2.071  0.00  0.00    +0.145 HD
ENDBRANCH  10  26
BRANCH   1  30
ATOM     29  C   UNL     1       2.530   5.819  -0.726  0.00  0.00    +0.020 C 
ATOM     30  C   UNL     1       2.137   4.898  -1.883  0.00  0.00    +0.082 C 
ENDBRANCH   1  30
BRANCH   9  31
ATOM     31  C   UNL     1       6.034  -0.731   1.054  0.00  0.00    +0.101 C 
ATOM     32  N   UNL     1       6.992  -1.181   1.466  0.00  0.00    -0.191 NA
ENDBRANCH   9  31
TORSDOF 5
