REMARK  Name = ZINC22059638
REMARK  6 active torsions:
REMARK  status: ('A' for Active; 'I' for Inactive)
REMARK    1  A    between atoms: C_1  and  C_2
REMARK    2  A    between atoms: C_2  and  C_3
REMARK    3  A    between atoms: C_3  and  C_25
REMARK    4  A    between atoms: N_6  and  C_10
REMARK    5  A    between atoms: C_10  and  C_11
REMARK    6  A    between atoms: C_22  and  C_24
REMARK                            x       y       z     vdW  Elec       q    Type
REMARK                         _______ _______ _______ _____ _____    ______ ____
ROOT
ATOM      1  C   UNL     1       3.989  -3.088   2.769  0.00  0.00    +0.138 C 
ATOM      2  C   UNL     1       2.603  -2.568   3.096  0.00  0.00    +0.251 C 
ATOM      3  O   UNL     1       1.576  -3.210   3.156  0.00  0.00    -0.272 OA
ATOM      4  N   UNL     1       2.750  -1.245   3.305  0.00  0.00    -0.215 N 
ATOM      5  C   UNL     1       4.024  -0.861   3.164  0.00  0.00    +0.310 C 
ATOM      6  O   UNL     1       4.404   0.284   3.307  0.00  0.00    -0.252 OA
ATOM      7  N   UNL     1       4.836  -1.885   2.845  0.00  0.00    -0.281 N 
ATOM      8  H   UNL     1       5.917  -1.960   2.654  0.00  0.00    +0.152 HD
ENDROOT
BRANCH   1   9
ATOM      9  C   UNL     1       4.026  -3.675   1.381  0.00  0.00    -0.015 A 
ATOM     10  C   UNL     1       3.855  -5.035   1.202  0.00  0.00    +0.007 A 
ATOM     11  C   UNL     1       3.883  -5.573  -0.071  0.00  0.00    +0.020 A 
ATOM     12  C   UNL     1       4.093  -4.752  -1.165  0.00  0.00    +0.041 A 
ATOM     13  C   UNL     1       4.270  -3.392  -0.984  0.00  0.00    +0.020 A 
ATOM     14  C   UNL     1       4.236  -2.854   0.289  0.00  0.00    +0.007 A 
ATOM     15 CL   UNL     1       4.135  -5.428  -2.763  0.00  0.00    -0.084 Cl
ENDBRANCH   1   9
BRANCH   1  17
ATOM     16  C   UNL     1       4.335  -3.521   5.205  0.00  0.00    +0.007 C 
ATOM     17  C   UNL     1       4.432  -4.125   3.802  0.00  0.00    +0.037 C 
ENDBRANCH   1  17
BRANCH   4  18
ATOM     18  C   UNL     1       1.651  -0.340   3.650  0.00  0.00    +0.214 C 
BRANCH  18  19
ATOM     19  C   UNL     1       1.046   0.220   2.388  0.00  0.00    +0.238 C 
ATOM     20  O   UNL     1       1.392  -0.209   1.308  0.00  0.00    -0.273 OA
ATOM     21  N   UNL     1       0.119   1.196   2.460  0.00  0.00    -0.267 N 
ATOM     22  C   UNL     1      -0.323   1.846   1.300  0.00  0.00    +0.040 A 
ATOM     23  C   UNL     1       0.392   1.683   0.118  0.00  0.00    +0.024 A 
ATOM     24  C   UNL     1      -0.029   2.312  -1.036  0.00  0.00    +0.002 A 
ATOM     25  C   UNL     1      -1.163   3.103  -1.016  0.00  0.00    +0.000 A 
ATOM     26  C   UNL     1      -1.874   3.267   0.156  0.00  0.00    +0.005 A 
ATOM     27  C   UNL     1      -1.457   2.642   1.320  0.00  0.00    -0.026 A 
ATOM     28  C   UNL     1      -2.250   2.850   2.583  0.00  0.00    +0.039 C 
ATOM     29  C   UNL     1      -1.963   1.732   3.586  0.00  0.00    +0.027 C 
ATOM     30  C   UNL     1      -0.444   1.596   3.756  0.00  0.00    +0.079 C 
ATOM     31  C   UNL     1      -0.135   0.529   4.808  0.00  0.00    +0.028 C 
ENDBRANCH  18  19
ENDBRANCH   4  18
TORSDOF 4
