REMARK  Name = ZINC38701974
REMARK  12 active torsions:
REMARK  status: ('A' for Active; 'I' for Inactive)
REMARK    1  A    between atoms: C_1  and  C_2
REMARK    2  A    between atoms: C_2  and  C_3
REMARK    3  A    between atoms: C_3  and  O_4
REMARK    4  A    between atoms: O_4  and  C_5
REMARK    5  A    between atoms: C_8  and  C_14
REMARK    6  A    between atoms: C_10  and  O_11
REMARK    7  A    between atoms: O_11  and  C_12
REMARK    8  A    between atoms: C_12  and  C_13
REMARK    9  A    between atoms: C_17  and  C_33
REMARK   10  A    between atoms: N_24  and  C_25
REMARK   11  A    between atoms: C_35  and  C_40
REMARK   12  A    between atoms: C_38  and  O_39
REMARK                            x       y       z     vdW  Elec       q    Type
REMARK                         _______ _______ _______ _____ _____    ______ ____
ROOT
ATOM      1  C   UNL     1       3.410  -4.628   5.609  0.00  0.00    +0.142 C 
ATOM      2  C   UNL     1       2.541  -4.428   6.819  0.00  0.00    +0.035 A 
ATOM      3  C   UNL     1       1.303  -4.651   7.433  0.00  0.00    +0.102 A 
ATOM      4  N   UNL     1       1.346  -4.088   8.624  0.00  0.00    -0.173 NA
ATOM      5  N   UNL     1       2.487  -3.531   8.824  0.00  0.00    -0.272 N 
ATOM      6  H   UNL     1       2.743  -3.058   9.631  0.00  0.00    +0.189 HD
ATOM      7  C   UNL     1       3.288  -3.706   7.731  0.00  0.00    +0.126 A 
ATOM      8  C   UNL     1       4.606  -3.437   7.145  0.00  0.00    +0.266 C 
ATOM      9  O   UNL     1       5.498  -2.821   7.696  0.00  0.00    -0.268 OA
ATOM     10  N   UNL     1       4.688  -3.969   5.911  0.00  0.00    -0.280 N 
ENDROOT
BRANCH  10  11
ATOM     11  C   UNL     1       5.851  -3.904   5.022  0.00  0.00    +0.100 C 
ATOM     12  C   UNL     1       7.068  -4.542   5.711  0.00  0.00    +0.047 C 
ATOM     13  C   UNL     1       8.358  -4.197   4.929  0.00  0.00    +0.168 C 
ATOM     14  S   UNL     1       7.939  -2.584   4.150  0.00  0.00    -0.029 S 
ATOM     15  O   UNL     1       8.719  -1.562   4.756  0.00  0.00    -0.174 OA
ATOM     16  O   UNL     1       7.959  -2.734   2.737  0.00  0.00    -0.174 OA
ATOM     17  C   UNL     1       6.193  -2.418   4.713  0.00  0.00    +0.188 C 
ENDBRANCH  10  11
BRANCH   3  18
ATOM     18  C   UNL     1       0.154  -5.386   6.849  0.00  0.00    +0.044 A 
ATOM     19  C   UNL     1       0.353  -6.616   6.227  0.00  0.00    +0.017 A 
ATOM     20  C   UNL     1      -0.719  -7.296   5.686  0.00  0.00    -0.050 A 
ATOM     21  C   UNL     1      -1.993  -6.760   5.760  0.00  0.00    +0.007 A 
ATOM     22  C   UNL     1      -2.202  -5.541   6.374  0.00  0.00    +0.046 A 
ATOM     23  C   UNL     1      -1.135  -4.850   6.927  0.00  0.00    +0.126 A 
ATOM     24  C   UNL     1      -0.502  -8.627   5.013  0.00  0.00    +0.044 C 
BRANCH  23  25
ATOM     25  O   UNL     1      -1.340  -3.654   7.538  0.00  0.00    -0.506 OA
ATOM     26  H   UNL     1      -1.349  -2.900   6.933  0.00  0.00    +0.292 HD
ENDBRANCH  23  25
ENDBRANCH   3  18
BRANCH   1  30
ATOM     27  C   UNL     1       1.600  -2.817   2.183  0.00  0.00    +0.162 A 
ATOM     28  C   UNL     1       2.134  -2.026   3.188  0.00  0.00    +0.050 A 
ATOM     29  C   UNL     1       2.718  -2.614   4.294  0.00  0.00    +0.009 A 
ATOM     30  C   UNL     1       2.772  -3.992   4.401  0.00  0.00    -0.019 A 
ATOM     31  C   UNL     1       2.242  -4.787   3.401  0.00  0.00    +0.055 A 
ATOM     32  C   UNL     1       1.650  -4.204   2.293  0.00  0.00    +0.162 A 
BRANCH  27  33
ATOM     33  O   UNL     1       1.025  -2.240   1.094  0.00  0.00    -0.488 OA
BRANCH  33  34
ATOM     34  C   UNL     1       1.010  -0.812   1.049  0.00  0.00    +0.229 C 
BRANCH  34  36
ATOM     35  C   UNL     1       0.311   1.179  -0.289  0.00  0.00    +0.007 C 
ATOM     36  C   UNL     1       0.328  -0.350  -0.240  0.00  0.00    +0.038 C 
ENDBRANCH  34  36
ENDBRANCH  33  34
ENDBRANCH  27  33
BRANCH  32  37
ATOM     37  O   UNL     1       1.123  -4.984   1.312  0.00  0.00    -0.489 OA
BRANCH  37  38
ATOM     38  C   UNL     1       1.210  -6.399   1.492  0.00  0.00    +0.226 C 
ATOM     39  C   UNL     1       0.569  -7.106   0.296  0.00  0.00    +0.048 C 
ENDBRANCH  37  38
ENDBRANCH  32  37
ENDBRANCH   1  30
TORSDOF 9
