REMARK  Name = ZINC09781703
REMARK  7 active torsions:
REMARK  status: ('A' for Active; 'I' for Inactive)
REMARK    1  A    between atoms: C_1  and  C_2
REMARK    2  A    between atoms: C_5  and  C_34
REMARK    3  A    between atoms: N_8  and  S_10
REMARK    4  A    between atoms: S_10  and  C_13
REMARK    5  A    between atoms: C_16  and  C_19
REMARK    6  A    between atoms: N_21  and  C_22
REMARK    7  A    between atoms: C_23  and  C_32
REMARK                            x       y       z     vdW  Elec       q    Type
REMARK                         _______ _______ _______ _____ _____    ______ ____
ROOT
ATOM      1  C   UNL     1       0.002  -0.004   0.002  0.00  0.00    +0.106 A 
ATOM      2  C   UNL     1       1.116  -0.680   0.468  0.00  0.00    +0.029 A 
ATOM      3  C   UNL     1       1.139  -2.060   0.469  0.00  0.00    +0.015 A 
ATOM      4  C   UNL     1       0.040  -2.773  -0.013  0.00  0.00    +0.037 A 
ATOM      5  C   UNL     1      -1.078  -2.084  -0.487  0.00  0.00    +0.015 A 
ATOM      6  C   UNL     1      -1.091  -0.705  -0.477  0.00  0.00    +0.029 A 
ENDROOT
BRANCH   4   7
ATOM      7  C   UNL     1       0.060  -4.251  -0.022  0.00  0.00    +0.249 C 
ATOM      8  O   UNL     1      -0.898  -4.869  -0.442  0.00  0.00    -0.270 OA
ATOM      9  N   UNL     1       1.141  -4.913   0.436  0.00  0.00    -0.275 N 
ATOM     10  H   UNL     1       1.905  -4.419   0.772  0.00  0.00    +0.156 HD
BRANCH   9  11
ATOM     11  C   UNL     1       1.160  -6.299   0.428  0.00  0.00    +0.090 A 
ATOM     12  C   UNL     1       2.170  -7.149   0.848  0.00  0.00    +0.084 A 
ATOM     13  C   UNL     1       1.938  -8.583   0.742  0.00  0.00    -0.018 A 
ATOM     14  C   UNL     1       0.743  -8.929   0.217  0.00  0.00    -0.004 A 
ATOM     15  S   UNL     1      -0.071  -7.390  -0.116  0.00  0.00    -0.077 S 
ATOM     16  C   UNL     1       0.222 -10.307  -0.043  0.00  0.00    +0.043 C 
ATOM     17  C   UNL     1       0.425 -11.171   1.209  0.00  0.00    +0.005 C 
ATOM     18  C   UNL     1       1.798 -11.831   1.122  0.00  0.00    +0.001 C 
ATOM     19  C   UNL     1       2.780 -10.908   0.404  0.00  0.00    +0.005 C 
ATOM     20  C   UNL     1       2.967  -9.614   1.189  0.00  0.00    +0.037 C 
BRANCH  12  21
ATOM     21  C   UNL     1       3.400  -6.635   1.373  0.00  0.00    +0.102 C 
ATOM     22  N   UNL     1       4.375  -6.227   1.789  0.00  0.00    -0.191 NA
ENDBRANCH  12  21
ENDBRANCH   9  11
ENDBRANCH   4   7
BRANCH   1  23
ATOM     23  S   UNL     1      -0.022   1.758   0.012  0.00  0.00    +0.061 S 
ATOM     24  O   UNL     1       1.334   2.182   0.001  0.00  0.00    -0.153 OA
ATOM     25  O   UNL     1      -0.953   2.157  -0.985  0.00  0.00    -0.153 OA
BRANCH  23  31
ATOM     26  C   UNL     1      -2.418   0.110   2.496  0.00  0.00    +0.009 C 
ATOM     27  C   UNL     1      -2.589   1.597   2.813  0.00  0.00    +0.002 C 
ATOM     28  C   UNL     1      -1.766   1.953   4.053  0.00  0.00    +0.009 C 
ATOM     29  C   UNL     1      -0.293   1.623   3.803  0.00  0.00    +0.002 C 
ATOM     30  C   UNL     1       0.221   2.458   2.626  0.00  0.00    +0.112 C 
ATOM     31  N   UNL     1      -0.654   2.231   1.467  0.00  0.00    -0.176 NA
ATOM     32  C   UNL     1      -2.101   2.438   1.623  0.00  0.00    +0.112 C 
ATOM     33  C   UNL     1       0.523   1.948   5.055  0.00  0.00    +0.009 C 
ENDBRANCH  23  31
ENDBRANCH   1  23
TORSDOF 5
