REMARK  Name = ZINC36531124
REMARK  12 active torsions:
REMARK  status: ('A' for Active; 'I' for Inactive)
REMARK    1  A    between atoms: C_1  and  C_2
REMARK    2  A    between atoms: C_5  and  S_8
REMARK    3  A    between atoms: S_8  and  C_11
REMARK    4  A    between atoms: C_11  and  N_12
REMARK    5  A    between atoms: C_13  and  C_15
REMARK    6  A    between atoms: C_15  and  C_17
REMARK    7  A    between atoms: C_15  and  N_26
REMARK    8  A    between atoms: C_20  and  N_23
REMARK    9  A    between atoms: N_26  and  C_27
REMARK   10  A    between atoms: C_28  and  C_30
REMARK   11  A    between atoms: C_31  and  O_37
REMARK   12  A    between atoms: C_35  and  O_36
REMARK                            x       y       z     vdW  Elec       q    Type
REMARK                         _______ _______ _______ _____ _____    ______ ____
ROOT
ATOM      1  C   UNL     1       3.215  -4.926   3.538  0.00  0.00    +0.192 C 
ENDROOT
BRANCH   1   2
ATOM      2  C   UNL     1       2.461  -3.764   4.133  0.00  0.00    -0.018 A 
ATOM      3  C   UNL     1       1.119  -3.592   3.847  0.00  0.00    +0.008 A 
ATOM      4  C   UNL     1       0.427  -2.527   4.392  0.00  0.00    +0.033 A 
ATOM      5  C   UNL     1       1.077  -1.635   5.224  0.00  0.00    +0.126 A 
ATOM      6  C   UNL     1       2.418  -1.807   5.511  0.00  0.00    +0.033 A 
ATOM      7  C   UNL     1       3.109  -2.875   4.969  0.00  0.00    +0.008 A 
BRANCH   5   8
ATOM      8  N   UNL     1       0.336  -0.493   5.808  0.00  0.00    +0.056 N 
ATOM      9  O   UNL     1      -0.837  -0.342   5.556  0.00  0.00    -0.126 OA
ATOM     10  O   UNL     1       0.904   0.287   6.535  0.00  0.00    -0.126 OA
ENDBRANCH   5   8
ENDBRANCH   1   2
BRANCH   1  12
ATOM     11  N   UNL     1       3.234  -3.974   1.255  0.00  0.00    -0.294 N 
ATOM     12  C   UNL     1       2.926  -5.009   2.062  0.00  0.00    +0.239 C 
ATOM     13  O   UNL     1       2.417  -6.008   1.599  0.00  0.00    -0.273 OA
ATOM     14  H   UNL     1       3.641  -3.175   1.625  0.00  0.00    +0.150 HD
BRANCH  11  15
ATOM     15  C   UNL     1       2.953  -4.055  -0.180  0.00  0.00    +0.278 C 
BRANCH  15  16
ATOM     16  S   UNL     1       1.347  -3.286  -0.527  0.00  0.00    +0.013 S 
ATOM     17  O   UNL     1       0.371  -3.753   0.395  0.00  0.00    -0.168 OA
ATOM     18  O   UNL     1       1.089  -3.300  -1.924  0.00  0.00    -0.168 OA
BRANCH  16  23
ATOM     19  C   UNL     1       2.088   2.544   0.842  0.00  0.00    +0.044 C 
ATOM     20  C   UNL     1       1.903   1.088   0.500  0.00  0.00    -0.050 A 
ATOM     21  C   UNL     1       2.167   0.639  -0.781  0.00  0.00    +0.005 A 
ATOM     22  C   UNL     1       1.997  -0.696  -1.094  0.00  0.00    +0.027 A 
ATOM     23  C   UNL     1       1.564  -1.583  -0.127  0.00  0.00    +0.090 A 
ATOM     24  C   UNL     1       1.302  -1.135   1.154  0.00  0.00    +0.027 A 
ATOM     25  C   UNL     1       1.476   0.200   1.469  0.00  0.00    +0.005 A 
ENDBRANCH  16  23
ENDBRANCH  15  16
ENDBRANCH  11  15
ENDBRANCH   1  12
BRANCH   1  26
ATOM     26  N   UNL     1       2.792  -6.168   4.189  0.00  0.00    -0.285 N 
ATOM     27  C   UNL     1       1.418  -6.650   4.025  0.00  0.00    +0.133 C 
ATOM     28  C   UNL     1       3.666  -6.867   4.940  0.00  0.00    +0.254 C 
ATOM     29  O   UNL     1       4.806  -6.467   5.077  0.00  0.00    -0.270 OA
BRANCH  28  30
ATOM     30  C   UNL     1       3.241  -8.115   5.595  0.00  0.00    +0.119 A 
ATOM     31  C   UNL     1       3.380  -9.343   4.932  0.00  0.00    +0.133 A 
ATOM     32  C   UNL     1       2.977 -10.512   5.557  0.00  0.00    +0.046 A 
ATOM     33  C   UNL     1       2.439 -10.471   6.830  0.00  0.00    +0.007 A 
ATOM     34  C   UNL     1       2.297  -9.266   7.492  0.00  0.00    +0.046 A 
ATOM     35  C   UNL     1       2.699  -8.086   6.888  0.00  0.00    +0.133 A 
BRANCH  35  36
ATOM     36  O   UNL     1       2.564  -6.905   7.542  0.00  0.00    -0.506 OA
ATOM     37  H   UNL     1       1.715  -6.466   7.391  0.00  0.00    +0.292 HD
ENDBRANCH  35  36
BRANCH  31  38
ATOM     38  O   UNL     1       3.908  -9.387   3.682  0.00  0.00    -0.506 OA
ATOM     39  H   UNL     1       4.868  -9.493   3.664  0.00  0.00    +0.292 HD
ENDBRANCH  31  38
ENDBRANCH  28  30
ENDBRANCH   1  26
TORSDOF 10
