REMARK  Name = ZINC32900665
REMARK  7 active torsions:
REMARK  status: ('A' for Active; 'I' for Inactive)
REMARK    1  A    between atoms: C_1  and  N_2
REMARK    2  A    between atoms: N_2  and  C_3
REMARK    3  A    between atoms: N_2  and  C_26
REMARK    4  A    between atoms: C_3  and  C_4
REMARK    5  A    between atoms: C_9  and  N_10
REMARK    6  A    between atoms: C_11  and  C_13
REMARK    7  A    between atoms: C_13  and  C_14
REMARK                            x       y       z     vdW  Elec       q    Type
REMARK                         _______ _______ _______ _____ _____    ______ ____
ROOT
ATOM      1  N   UNL     1      -0.004  -0.003   0.030  0.00  0.00    -0.285 N 
ATOM      2  C   UNL     1       0.056   1.205   0.624  0.00  0.00    +0.221 C 
ATOM      3  O   UNL     1      -0.928   1.666   1.163  0.00  0.00    -0.275 OA
ATOM      4  H   UNL     1       0.865  -0.388  -0.523  0.00  0.00    +0.155 HD
ENDROOT
BRANCH   1  10
ATOM      5  C   UNL     1      -1.095  -2.152   0.184  0.00  0.00    -0.043 A 
ATOM      6  C   UNL     1      -2.251  -2.904   0.275  0.00  0.00    +0.003 A 
ATOM      7  C   UNL     1      -3.484  -2.279   0.286  0.00  0.00    +0.000 A 
ATOM      8  C   UNL     1      -3.565  -0.900   0.212  0.00  0.00    +0.002 A 
ATOM      9  C   UNL     1      -2.414  -0.143   0.127  0.00  0.00    +0.023 A 
ATOM     10  C   UNL     1      -1.173  -0.767   0.116  0.00  0.00    +0.035 A 
BRANCH   5  11
ATOM     11  C   UNL     1       0.249  -2.834   0.166  0.00  0.00    -0.041 C 
BRANCH  11  13
ATOM     12  C   UNL     1       1.216  -1.522   1.957  0.00  0.00    -0.095 C 
ATOM     13  N   UNL     1       0.801  -2.865   1.527  0.00  0.00    +0.382 N 
ATOM     14  H   UNL     1       0.006  -3.207   2.206  0.00  0.00    -0.081 HD
BRANCH  13  15
ATOM     15  C   UNL     1       1.916  -3.816   1.621  0.00  0.00    -0.069 C 
ATOM     16  C   UNL     1       1.423  -5.218   1.260  0.00  0.00    -0.015 C 
ATOM     17  C   UNL     1       2.584  -6.209   1.358  0.00  0.00    -0.002 C 
ATOM     18  C   UNL     1       3.132  -6.213   2.787  0.00  0.00    -0.000 C 
ATOM     19  C   UNL     1       3.626  -4.810   3.148  0.00  0.00    -0.002 C 
ATOM     20  C   UNL     1       2.464  -3.820   3.050  0.00  0.00    -0.015 C 
ENDBRANCH  13  15
ENDBRANCH  11  13
ENDBRANCH   5  11
ENDBRANCH   1  10
BRANCH   2  21
ATOM     21  C   UNL     1       1.345   1.986   0.615  0.00  0.00    +0.150 C 
BRANCH  21  22
ATOM     22  C   UNL     1       1.143   3.312   1.352  0.00  0.00    +0.268 C 
ATOM     23  C   UNL     1       2.462   4.037   1.449  0.00  0.00    +0.259 C 
ATOM     24  O   UNL     1       3.166   3.892   2.426  0.00  0.00    -0.271 OA
ATOM     25  N   UNL     1       2.854   4.850   0.446  0.00  0.00    -0.280 N 
ATOM     26  C   UNL     1       1.975   5.097  -0.618  0.00  0.00    +0.076 A 
ATOM     27  C   UNL     1       2.415   5.745  -1.761  0.00  0.00    +0.027 A 
ATOM     28  C   UNL     1       1.537   5.974  -2.804  0.00  0.00    +0.002 A 
ATOM     29  C   UNL     1       0.220   5.564  -2.706  0.00  0.00    +0.004 A 
ATOM     30  C   UNL     1      -0.230   4.931  -1.561  0.00  0.00    +0.047 A 
ATOM     31  C   UNL     1       0.643   4.704  -0.510  0.00  0.00    +0.143 A 
ATOM     32  O   UNL     1       0.204   4.117   0.635  0.00  0.00    -0.477 OA
ATOM     33  H   UNL     1       3.854   5.308   0.468  0.00  0.00    +0.155 HD
ENDBRANCH  21  22
ENDBRANCH   2  21
TORSDOF 6
