REMARK  Name = ZINC35465202
REMARK  7 active torsions:
REMARK  status: ('A' for Active; 'I' for Inactive)
REMARK    1  A    between atoms: C_1  and  C_2
REMARK    2  A    between atoms: C_2  and  C_3
REMARK    3  A    between atoms: C_10  and  C_33
REMARK    4  A    between atoms: C_21  and  C_32
REMARK    5  A    between atoms: C_23  and  O_31
REMARK    6  A    between atoms: C_25  and  O_30
REMARK    7  A    between atoms: C_27  and  O_29
REMARK                            x       y       z     vdW  Elec       q    Type
REMARK                         _______ _______ _______ _____ _____    ______ ____
ROOT
ATOM      1  C   UNL     1       0.738  -0.508   1.235  0.00  0.00    +0.061 C 
ATOM      2  C   UNL     1       2.199  -0.089   1.191  0.00  0.00    +0.137 C 
ATOM      3  O   UNL     1       2.664   0.904   0.703  0.00  0.00    -0.297 OA
ATOM      4  C   UNL     1       2.941  -1.212   1.905  0.00  0.00    +0.079 C 
ATOM      5  C   UNL     1       2.204  -2.481   1.375  0.00  0.00    +0.006 C 
ATOM      6  C   UNL     1       0.733  -2.030   1.377  0.00  0.00    -0.019 C 
ATOM      7  C   UNL     1      -0.146  -2.776   0.407  0.00  0.00    +0.008 C 
ATOM      8  C   UNL     1       0.472  -2.986  -0.971  0.00  0.00    +0.005 C 
ATOM      9  C   UNL     1       1.822  -3.686  -0.793  0.00  0.00    -0.001 C 
ATOM     10  C   UNL     1       2.744  -2.739  -0.033  0.00  0.00    -0.003 C 
ATOM     11  C   UNL     1       4.141  -3.355   0.079  0.00  0.00    +0.004 C 
ATOM     12  C   UNL     1       4.737  -3.550  -1.315  0.00  0.00    +0.007 C 
ATOM     13  C   UNL     1       3.686  -3.219  -2.373  0.00  0.00    +0.026 C 
ATOM     14  C   UNL     1       2.424  -4.044  -2.161  0.00  0.00    -0.021 C 
ATOM     15  C   UNL     1       1.401  -3.757  -3.256  0.00  0.00    +0.041 C 
ATOM     16  C   UNL     1       1.981  -3.899  -4.657  0.00  0.00    +0.146 C 
ATOM     17  C   UNL     1       3.230  -3.041  -4.827  0.00  0.00    +0.172 C 
ATOM     18  C   UNL     1       4.274  -3.388  -3.768  0.00  0.00    +0.149 C 
ATOM     19  C   UNL     1       2.741  -5.544  -2.134  0.00  0.00    +0.012 C 
ATOM     20  C   UNL     1       0.181  -2.341   2.790  0.00  0.00    +0.012 C 
ENDROOT
BRANCH   1  22
ATOM     21  C   UNL     1      -0.019   1.526   0.010  0.00  0.00    +0.004 C 
ATOM     22  C   UNL     1       0.002  -0.004   0.002  0.00  0.00    +0.008 C 
ENDBRANCH   1  22
BRANCH  18  23
ATOM     23  O   UNL     1       4.784  -4.700  -3.975  0.00  0.00    -0.389 OA
ATOM     24  H   UNL     1       5.165  -4.840  -4.853  0.00  0.00    +0.210 HD
ENDBRANCH  18  23
BRANCH  17  25
ATOM     25  O   UNL     1       3.784  -3.255  -6.128  0.00  0.00    -0.387 OA
ATOM     26  H   UNL     1       3.184  -3.031  -6.853  0.00  0.00    +0.210 HD
ENDBRANCH  17  25
BRANCH  16  27
ATOM     27  O   UNL     1       2.259  -5.260  -4.974  0.00  0.00    -0.389 OA
ATOM     28  H   UNL     1       2.629  -5.391  -5.857  0.00  0.00    +0.210 HD
ENDBRANCH  16  27
TORSDOF 4
