REMARK  Name = ZINC08914333
REMARK  4 active torsions:
REMARK  status: ('A' for Active; 'I' for Inactive)
REMARK    1  A    between atoms: C_4  and  C_7
REMARK    2  A    between atoms: C_7  and  C_9
REMARK    3  A    between atoms: C_11  and  C_33
REMARK    4  A    between atoms: C_33  and  C_35
REMARK                            x       y       z     vdW  Elec       q    Type
REMARK                         _______ _______ _______ _____ _____    ______ ____
ROOT
ATOM      1  C   UNL     1       3.984  -0.186   1.818  0.00  0.00    +0.108 C 
ATOM      2  C   UNL     1       3.741   1.321   2.092  0.00  0.00    +0.140 C 
ATOM      3  C   UNL     1       2.888   3.178   0.540  0.00  0.00    +0.054 C 
ATOM      4  C   UNL     1       1.717   3.443  -0.076  0.00  0.00    +0.022 C 
ATOM      5  C   UNL     1       0.764   2.341  -0.323  0.00  0.00    -0.019 A 
ATOM      6  C   UNL     1      -0.574   2.620  -0.606  0.00  0.00    +0.008 A 
ATOM      7  C   UNL     1      -1.455   1.585  -0.841  0.00  0.00    +0.001 A 
ATOM      8  C   UNL     1      -1.018   0.272  -0.804  0.00  0.00    +0.000 A 
ATOM      9  C   UNL     1       0.307  -0.014  -0.517  0.00  0.00    +0.006 A 
ATOM     10  C   UNL     1       1.195   1.009  -0.279  0.00  0.00    -0.020 A 
ATOM     11  C   UNL     1       2.640   0.730   0.040  0.00  0.00    +0.107 C 
ATOM     12  C   UNL     1       2.803  -0.530   0.886  0.00  0.00    +0.107 C 
ATOM     13  C   UNL     1       3.064  -1.748   0.073  0.00  0.00    -0.008 A 
ATOM     14  C   UNL     1       4.054  -2.060  -0.834  0.00  0.00    +0.006 A 
ATOM     15  C   UNL     1       3.996  -3.316  -1.428  0.00  0.00    +0.000 A 
ATOM     16  C   UNL     1       2.990  -4.210  -1.122  0.00  0.00    +0.002 A 
ATOM     17  C   UNL     1       1.991  -3.905  -0.211  0.00  0.00    +0.023 A 
ATOM     18  C   UNL     1       2.038  -2.649   0.393  0.00  0.00    +0.038 A 
ATOM     19  N   UNL     1       1.182  -2.091   1.328  0.00  0.00    -0.284 N 
ATOM     20  C   UNL     1       1.560  -0.841   1.678  0.00  0.00    +0.231 C 
ATOM     21  O   UNL     1       1.008  -0.113   2.474  0.00  0.00    -0.274 OA
ATOM     22  H   UNL     1       0.404  -2.543   1.689  0.00  0.00    +0.155 HD
ATOM     23  N   UNL     1       3.406   1.758   0.704  0.00  0.00    -0.384 NA
ATOM     24  H   UNL     1       4.306   1.767   0.210  0.00  0.00    +0.127 HD
ENDROOT
BRANCH   1  25
ATOM     25  C   UNL     1       3.914  -0.985   3.094  0.00  0.00    +0.170 C 
ATOM     26  O   UNL     1       2.841  -1.362   3.515  0.00  0.00    -0.292 OA
BRANCH  25  30
ATOM     27  C   UNL     1       7.469  -1.913   5.213  0.00  0.00    +0.000 A 
ATOM     28  C   UNL     1       6.239  -2.247   5.752  0.00  0.00    +0.001 A 
ATOM     29  C   UNL     1       5.079  -1.948   5.070  0.00  0.00    +0.011 A 
ATOM     30  C   UNL     1       5.147  -1.307   3.829  0.00  0.00    +0.018 A 
ATOM     31  C   UNL     1       6.394  -0.977   3.288  0.00  0.00    +0.011 A 
ATOM     32  C   UNL     1       7.545  -1.277   3.986  0.00  0.00    +0.001 A 
ENDBRANCH  25  30
ENDBRANCH   1  25
BRANCH   2  33
ATOM     33  C   UNL     1       5.052   2.021   2.346  0.00  0.00    +0.183 C 
ATOM     34  O   UNL     1       5.988   1.845   1.595  0.00  0.00    -0.290 OA
BRANCH  33  35
ATOM     35  C   UNL     1       5.196   2.916   3.505  0.00  0.00    +0.019 A 
ATOM     36  C   UNL     1       4.085   3.225   4.297  0.00  0.00    +0.011 A 
ATOM     37  C   UNL     1       4.229   4.061   5.384  0.00  0.00    +0.001 A 
ATOM     38  C   UNL     1       5.467   4.602   5.686  0.00  0.00    +0.000 A 
ATOM     39  C   UNL     1       6.570   4.304   4.905  0.00  0.00    +0.001 A 
ATOM     40  C   UNL     1       6.443   3.466   3.818  0.00  0.00    +0.011 A 
ENDBRANCH  33  35
ENDBRANCH   2  33
TORSDOF 4
