REMARK  Name = ZINC16039263
REMARK  4 active torsions:
REMARK  status: ('A' for Active; 'I' for Inactive)
REMARK    1  A    between atoms: C_4  and  C_7
REMARK    2  A    between atoms: C_7  and  C_9
REMARK    3  A    between atoms: C_11  and  C_34
REMARK    4  A    between atoms: C_34  and  C_36
REMARK                            x       y       z     vdW  Elec       q    Type
REMARK                         _______ _______ _______ _____ _____    ______ ____
ROOT
ATOM      1  C   UNL     1      -3.968   3.188   0.045  0.00  0.00    +0.157 C 
ATOM      2  C   UNL     1      -4.201   2.700   1.504  0.00  0.00    +0.113 C 
ATOM      3  C   UNL     1      -5.086   3.791   2.142  0.00  0.00    +0.108 C 
ATOM      4  C   UNL     1      -6.381   3.236   2.626  0.00  0.00    -0.008 A 
ATOM      5  C   UNL     1      -7.411   2.593   1.973  0.00  0.00    +0.006 A 
ATOM      6  C   UNL     1      -8.500   2.198   2.742  0.00  0.00    +0.000 A 
ATOM      7  C   UNL     1      -8.546   2.437   4.101  0.00  0.00    +0.002 A 
ATOM      8  C   UNL     1      -7.514   3.080   4.766  0.00  0.00    +0.023 A 
ATOM      9  C   UNL     1      -6.416   3.484   4.006  0.00  0.00    +0.038 A 
ATOM     10  N   UNL     1      -5.263   4.138   4.406  0.00  0.00    -0.284 N 
ATOM     11  C   UNL     1      -4.422   4.359   3.372  0.00  0.00    +0.231 C 
ATOM     12  O   UNL     1      -3.342   4.908   3.423  0.00  0.00    -0.274 OA
ATOM     13  C   UNL     1      -5.258   4.842   1.057  0.00  0.00    +0.117 C 
ATOM     14  N   UNL     1      -5.115   4.069  -0.207  0.00  0.00    -0.311 N 
ATOM     15  C   UNL     1      -5.060   4.938  -1.271  0.00  0.00    +0.038 A 
ATOM     16  C   UNL     1      -4.170   4.811  -2.319  0.00  0.00    +0.024 A 
ATOM     17  C   UNL     1      -4.179   5.736  -3.347  0.00  0.00    +0.002 A 
ATOM     18  C   UNL     1      -5.075   6.791  -3.336  0.00  0.00    +0.001 A 
ATOM     19  C   UNL     1      -5.975   6.933  -2.297  0.00  0.00    +0.010 A 
ATOM     20  C   UNL     1      -5.978   6.011  -1.259  0.00  0.00    -0.004 A 
ATOM     21  C   UNL     1      -6.933   6.116  -0.130  0.00  0.00    +0.007 C 
ATOM     22  C   UNL     1      -6.585   5.537   1.034  0.00  0.00    -0.003 C 
ATOM     23  H   UNL     1      -5.081   4.406   5.320  0.00  0.00    +0.155 HD
ENDROOT
BRANCH   1  24
ATOM     24  C   UNL     1      -2.675   3.956  -0.057  0.00  0.00    +0.184 C 
ATOM     25  O   UNL     1      -2.682   5.167   0.018  0.00  0.00    -0.290 OA
BRANCH  24  29
ATOM     26  C   UNL     1       0.984   1.885  -0.613  0.00  0.00    +0.000 A 
ATOM     27  C   UNL     1      -0.201   1.176  -0.519  0.00  0.00    +0.001 A 
ATOM     28  C   UNL     1      -1.395   1.843  -0.344  0.00  0.00    +0.011 A 
ATOM     29  C   UNL     1      -1.406   3.238  -0.250  0.00  0.00    +0.019 A 
ATOM     30  C   UNL     1      -0.204   3.947  -0.345  0.00  0.00    +0.011 A 
ATOM     31  C   UNL     1       0.981   3.267  -0.526  0.00  0.00    +0.001 A 
ENDBRANCH  24  29
ENDBRANCH   1  24
BRANCH   2  32
ATOM     32  C   UNL     1      -4.917   1.374   1.507  0.00  0.00    +0.205 C 
ATOM     33  O   UNL     1      -5.584   1.043   0.548  0.00  0.00    -0.288 OA
BRANCH  32  34
ATOM     34  C   UNL     1      -4.812   0.517   2.625  0.00  0.00    +0.170 A 
ATOM     35  C   UNL     1      -5.411  -0.719   2.762  0.00  0.00    +0.053 A 
ATOM     36  C   UNL     1      -5.034  -1.208   4.020  0.00  0.00    +0.042 A 
ATOM     37  C   UNL     1      -4.238  -0.275   4.590  0.00  0.00    +0.196 A 
ATOM     38  O   UNL     1      -4.103   0.757   3.748  0.00  0.00    -0.460 OA
ENDBRANCH  32  34
ENDBRANCH   2  32
TORSDOF 4
