REMARK  Name = ZINC36187387
REMARK  7 active torsions:
REMARK  status: ('A' for Active; 'I' for Inactive)
REMARK    1  A    between atoms: C_6  and  C_7
REMARK    2  A    between atoms: C_7  and  O_9
REMARK    3  A    between atoms: O_9  and  C_10
REMARK    4  A    between atoms: C_10  and  C_11
REMARK    5  A    between atoms: N_13  and  C_14
REMARK    6  A    between atoms: C_17  and  N_24
REMARK    7  A    between atoms: C_19  and  C_20
REMARK                            x       y       z     vdW  Elec       q    Type
REMARK                         _______ _______ _______ _____ _____    ______ ____
ROOT
ATOM      1  C   UNL     1      -3.629  -0.895   0.048  0.00  0.00    +0.328 C 
ENDROOT
BRANCH   1   2
ATOM      2  C   UNL     1      -4.836   0.008   0.053  0.00  0.00    +0.255 C 
ATOM      3  O   UNL     1      -4.693   1.212   0.051  0.00  0.00    -0.272 OA
ATOM      4  N   UNL     1      -6.075  -0.524   0.059  0.00  0.00    -0.282 N 
ATOM      5  H   UNL     1      -6.191  -1.483  -0.021  0.00  0.00    +0.155 HD
BRANCH   4   6
ATOM      6  C   UNL     1      -7.193   0.309   0.180  0.00  0.00    +0.045 A 
ATOM      7  C   UNL     1      -7.073   1.550   0.791  0.00  0.00    +0.026 A 
ATOM      8  C   UNL     1      -8.178   2.370   0.909  0.00  0.00    +0.034 A 
ATOM      9  C   UNL     1      -9.403   1.956   0.419  0.00  0.00    +0.127 A 
ATOM     10  C   UNL     1      -9.526   0.721  -0.190  0.00  0.00    +0.047 A 
ATOM     11  C   UNL     1      -8.423  -0.101  -0.317  0.00  0.00    +0.078 A 
BRANCH  11  12
ATOM     12  C   UNL     1      -8.556  -1.444  -0.987  0.00  0.00    +0.419 C 
ATOM     13  F   UNL     1      -9.880  -1.630  -1.399  0.00  0.00    -0.166 F 
ATOM     14  F   UNL     1      -7.709  -1.496  -2.099  0.00  0.00    -0.166 F 
ATOM     15  F   UNL     1      -8.203  -2.453  -0.084  0.00  0.00    -0.166 F 
ENDBRANCH  11  12
BRANCH   9  16
ATOM     16  N   UNL     1     -10.586   2.837   0.547  0.00  0.00    +0.056 N 
ATOM     17  O   UNL     1     -10.480   3.917   1.080  0.00  0.00    -0.126 OA
ATOM     18  O   UNL     1     -11.657   2.476   0.119  0.00  0.00    -0.126 OA
ENDBRANCH   9  16
ENDBRANCH   4   6
ENDBRANCH   1   2
BRANCH   1  19
ATOM     19  O   UNL     1      -2.441  -0.101   0.042  0.00  0.00    -0.452 OA
BRANCH  19  20
ATOM     20  C   UNL     1      -1.266  -0.760   0.037  0.00  0.00    +0.340 C 
ATOM     21  O   UNL     1      -1.250  -1.974   0.038  0.00  0.00    -0.245 OA
BRANCH  20  27
ATOM     22  C   UNL     1      -0.016   1.397   0.030  0.00  0.00    +0.017 A 
ATOM     23  C   UNL     1       1.147   2.107   0.025  0.00  0.00    +0.027 A 
ATOM     24  C   UNL     1       2.374   1.446   0.020  0.00  0.00    +0.047 A 
ATOM     25  C   UNL     1       2.407   0.036   0.021  0.00  0.00    +0.004 A 
ATOM     26  C   UNL     1       1.217  -0.686   0.027  0.00  0.00    +0.025 A 
ATOM     27  C   UNL     1       0.002  -0.005   0.031  0.00  0.00    +0.060 A 
ATOM     28  C   UNL     1       3.821  -0.329   0.014  0.00  0.00    -0.019 A 
ATOM     29  C   UNL     1       4.530   0.815   0.010  0.00  0.00    +0.020 A 
ATOM     30  N   UNL     1       3.677   1.883   0.014  0.00  0.00    -0.358 N 
ATOM     31  H   UNL     1       3.952   2.814   0.013  0.00  0.00    +0.166 HD
ATOM     32  C   UNL     1       6.041   0.864   0.004  0.00  0.00    +0.053 C 
ATOM     33  C   UNL     1       6.574  -0.510   0.425  0.00  0.00    +0.006 C 
ATOM     34  C   UNL     1       5.893  -1.600  -0.408  0.00  0.00    +0.005 C 
ATOM     35  C   UNL     1       4.421  -1.711   0.010  0.00  0.00    +0.037 C 
ENDBRANCH  20  27
ENDBRANCH  19  20
ENDBRANCH   1  19
TORSDOF 7
