REMARK  Name = ZINC13494541
REMARK  15 active torsions:
REMARK  status: ('A' for Active; 'I' for Inactive)
REMARK    1  A    between atoms: C_1  and  C_2
REMARK    2  A    between atoms: C_2  and  C_3
REMARK    3  A    between atoms: C_3  and  C_5
REMARK    4  A    between atoms: C_3  and  N_71
REMARK    5  A    between atoms: N_9  and  C_10
REMARK    6  A    between atoms: C_10  and  C_11
REMARK    7  A    between atoms: C_10  and  C_12
REMARK    8  A    between atoms: C_10  and  C_13
REMARK    9  A    between atoms: C_14  and  C_15
REMARK   10  A    between atoms: C_14  and  N_71
REMARK   11  A    between atoms: C_15  and  C_16
REMARK   12  A    between atoms: C_22  and  C_23
REMARK   13  A    between atoms: C_22  and  N_71
REMARK   14  A    between atoms: C_27  and  C_36
REMARK   15  A    between atoms: C_29  and  C_35
REMARK                            x       y       z     vdW  Elec       q    Type
REMARK                         _______ _______ _______ _____ _____    ______ ____
ROOT
ATOM      1  N   UNL     1      -1.278   7.395  -0.997  0.00  0.00    +0.389 N 
ATOM      2  H   UNL     1      -2.245   7.288  -1.324  0.00  0.00    -0.080 HD
ENDROOT
BRANCH   1   3
ATOM      3  C   UNL     1      -0.408   6.480  -1.766  0.00  0.00    +0.003 C 
BRANCH   3   4
ATOM      4  C   UNL     1      -1.040   6.235  -3.112  0.00  0.00    +0.139 A 
ATOM      5  N   UNL     1      -1.729   7.096  -3.821  0.00  0.00    -0.115 NA
ATOM      6  N   UNL     1      -2.100   6.510  -4.907  0.00  0.00    -0.023 NA
ATOM      7  N   UNL     1      -1.665   5.298  -4.909  0.00  0.00    -0.043 NA
ATOM      8  N   UNL     1      -1.003   5.092  -3.821  0.00  0.00    -0.226 N 
BRANCH   8   9
ATOM      9  C   UNL     1      -0.338   3.846  -3.430  0.00  0.00    +0.059 C 
ATOM     10  C   UNL     1      -1.073   3.228  -2.240  0.00  0.00    +0.036 C 
ATOM     11  C   UNL     1      -0.357   2.868  -4.606  0.00  0.00    +0.036 C 
ATOM     12  C   UNL     1       1.111   4.143  -3.037  0.00  0.00    +0.036 C 
ENDBRANCH   8   9
ENDBRANCH   3   4
BRANCH   3  14
ATOM     13  C   UNL     1       1.687   7.194  -0.606  0.00  0.00    +0.002 C 
ATOM     14  C   UNL     1       0.978   7.099  -1.959  0.00  0.00    -0.011 C 
ENDBRANCH   3  14
ENDBRANCH   1   3
BRANCH   1  15
ATOM     15  C   UNL     1      -0.851   8.794  -1.209  0.00  0.00    -0.073 C 
BRANCH  15  16
ATOM     16  C   UNL     1      -1.211   9.208  -2.637  0.00  0.00    +0.016 C 
BRANCH  16  17
ATOM     17  C   UNL     1      -0.948  10.681  -2.815  0.00  0.00    -0.049 A 
ATOM     18  C   UNL     1      -1.947  11.598  -2.550  0.00  0.00    +0.003 A 
ATOM     19  C   UNL     1      -1.704  12.950  -2.708  0.00  0.00    +0.000 A 
ATOM     20  C   UNL     1      -0.465  13.383  -3.142  0.00  0.00    +0.000 A 
ATOM     21  C   UNL     1       0.533  12.465  -3.412  0.00  0.00    +0.000 A 
ATOM     22  C   UNL     1       0.291  11.114  -3.249  0.00  0.00    +0.003 A 
ENDBRANCH  16  17
ENDBRANCH  15  16
ENDBRANCH   1  15
BRANCH   1  23
ATOM     23  C   UNL     1      -1.217   7.060   0.441  0.00  0.00    -0.037 C 
BRANCH  23  24
ATOM     24  C   UNL     1      -1.933   5.753   0.666  0.00  0.00    +0.001 A 
ATOM     25  C   UNL     1      -1.219   4.610   0.817  0.00  0.00    +0.017 A 
ATOM     26  C   UNL     1      -1.945   3.357   1.034  0.00  0.00    -0.001 A 
ATOM     27  C   UNL     1      -1.264   2.146   1.197  0.00  0.00    +0.013 A 
ATOM     28  C   UNL     1      -1.970   0.994   1.398  0.00  0.00    -0.050 A 
ATOM     29  C   UNL     1      -3.358   1.014   1.441  0.00  0.00    +0.008 A 
ATOM     30  C   UNL     1      -4.049   2.194   1.277  0.00  0.00    -0.026 A 
ATOM     31  C   UNL     1      -3.351   3.381   1.077  0.00  0.00    +0.052 A 
ATOM     32  N   UNL     1      -4.017   4.577   0.916  0.00  0.00    -0.322 N 
ATOM     33  H   UNL     1      -4.987   4.593   0.947  0.00  0.00    +0.169 HD
ATOM     34  C   UNL     1      -3.343   5.723   0.718  0.00  0.00    +0.251 A 
ATOM     35  O   UNL     1      -3.964   6.763   0.579  0.00  0.00    -0.268 OA
ATOM     36  C   UNL     1      -5.556   2.201   1.320  0.00  0.00    +0.046 C 
ATOM     37  C   UNL     1      -1.236  -0.311   1.575  0.00  0.00    +0.044 C 
ENDBRANCH  23  24
ENDBRANCH   1  23
TORSDOF 9
