REMARK  Name = ZINC42395524
REMARK  7 active torsions:
REMARK  status: ('A' for Active; 'I' for Inactive)
REMARK    1  A    between atoms: C_1  and  N_2
REMARK    2  A    between atoms: N_2  and  C_3
REMARK    3  A    between atoms: N_2  and  C_4
REMARK    4  A    between atoms: C_4  and  C_5
REMARK    5  A    between atoms: N_8  and  C_11
REMARK    6  A    between atoms: C_16  and  C_17
REMARK    7  A    between atoms: C_17  and  N_18
REMARK                            x       y       z     vdW  Elec       q    Type
REMARK                         _______ _______ _______ _____ _____    ______ ____
ROOT
ATOM      1  C   UNL     1       4.816   2.385  -3.204  0.00  0.00    +0.032 A 
ATOM      2  C   UNL     1       4.154   2.854  -4.331  0.00  0.00    +0.038 A 
ATOM      3  C   UNL     1       4.750   3.807  -5.134  0.00  0.00    +0.020 A 
ATOM      4  C   UNL     1       6.006   4.294  -4.816  0.00  0.00    +0.015 A 
ATOM      5  C   UNL     1       6.668   3.829  -3.695  0.00  0.00    +0.004 A 
ATOM      6  C   UNL     1       6.074   2.880  -2.885  0.00  0.00    -0.044 A 
ATOM      7 BR   UNL     1       3.850   4.447  -6.669  0.00  0.00    -0.050 Br
ENDROOT
BRANCH   1  11
ATOM      8  C   UNL     1       2.194  -0.315  -1.445  0.00  0.00    -0.025 C 
ATOM      9  C   UNL     1       2.068   1.198  -1.253  0.00  0.00    +0.020 C 
ATOM     10  C   UNL     1       3.467   1.819  -1.189  0.00  0.00    +0.105 C 
ATOM     11  N   UNL     1       4.216   1.422  -2.389  0.00  0.00    -0.330 N 
ATOM     12  C   UNL     1       4.321  -0.006  -2.717  0.00  0.00    +0.105 C 
ATOM     13  C   UNL     1       2.912  -0.606  -2.764  0.00  0.00    +0.020 C 
BRANCH   8  14
ATOM     14  C   UNL     1       0.798  -0.942  -1.475  0.00  0.00    -0.076 C 
BRANCH  14  16
ATOM     15  C   UNL     1       1.534  -2.904  -0.307  0.00  0.00    -0.097 C 
ATOM     16  N   UNL     1       0.921  -2.405  -1.545  0.00  0.00    +0.376 N 
ATOM     17  C   UNL     1      -0.412  -3.000  -1.705  0.00  0.00    -0.097 C 
ATOM     18  H   UNL     1       1.499  -2.657  -2.332  0.00  0.00    -0.083 HD
ENDBRANCH  14  16
ENDBRANCH   8  14
ENDBRANCH   1  11
BRANCH   6  19
ATOM     19  C   UNL     1       6.794   2.379  -1.659  0.00  0.00    -0.049 C 
BRANCH  19  20
ATOM     20  N   UNL     1       7.410   1.077  -1.951  0.00  0.00    +0.381 N 
ATOM     21  H   UNL     1       6.705   0.441  -2.294  0.00  0.00    -0.090 HD
ATOM     22  H   UNL     1       8.127   1.194  -2.651  0.00  0.00    -0.090 HD
ATOM     23  H   UNL     1       7.820   0.703  -1.109  0.00  0.00    -0.090 HD
ENDBRANCH  19  20
ENDBRANCH   6  19
TORSDOF 5
