REMARK  Name = ZINC24704628
REMARK  4 active torsions:
REMARK  status: ('A' for Active; 'I' for Inactive)
REMARK    1  A    between atoms: N_13  and  C_17
REMARK    2  A    between atoms: C_17  and  C_18
REMARK    3  A    between atoms: N_20  and  N_21
REMARK    4  A    between atoms: C_22  and  C_24
REMARK                            x       y       z     vdW  Elec       q    Type
REMARK                         _______ _______ _______ _____ _____    ______ ____
ROOT
ATOM      1  C   UNL     1      -3.320  10.372  -4.788  0.00  0.00    +0.215 C 
ENDROOT
BRANCH   1  14
ATOM      2  C   UNL     1      -5.612   6.756 -10.213  0.00  0.00    +0.000 A 
ATOM      3  C   UNL     1      -4.438   6.897  -9.496  0.00  0.00    +0.000 A 
ATOM      4  C   UNL     1      -4.159   8.092  -8.867  0.00  0.00    +0.006 A 
ATOM      5  C   UNL     1      -5.048   9.157  -8.947  0.00  0.00    -0.012 A 
ATOM      6  C   UNL     1      -6.216   9.017  -9.663  0.00  0.00    -0.042 A 
ATOM      7  C   UNL     1      -6.496   7.812 -10.294  0.00  0.00    +0.004 A 
ATOM      8  C   UNL     1      -7.220  10.131  -9.797  0.00  0.00    +0.035 C 
ATOM      9  C   UNL     1      -7.003  11.186  -8.714  0.00  0.00    +0.008 C 
ATOM     10  C   UNL     1      -5.527  11.603  -8.731  0.00  0.00    +0.040 C 
ATOM     11  C   UNL     1      -4.689  10.431  -8.236  0.00  0.00    +0.138 C 
ATOM     12  C   UNL     1      -4.854  10.261  -6.742  0.00  0.00    +0.251 C 
ATOM     13  O   UNL     1      -5.877  10.009  -6.142  0.00  0.00    -0.272 OA
ATOM     14  N   UNL     1      -3.626  10.447  -6.219  0.00  0.00    -0.215 N 
ATOM     15  C   UNL     1      -2.720  10.714  -7.168  0.00  0.00    +0.310 C 
ATOM     16  O   UNL     1      -1.545  10.924  -6.941  0.00  0.00    -0.252 OA
ATOM     17  N   UNL     1      -3.257  10.720  -8.402  0.00  0.00    -0.281 N 
ATOM     18  H   UNL     1      -2.843  10.889  -9.408  0.00  0.00    +0.152 HD
ENDBRANCH   1  14
BRANCH   1  19
ATOM     19  C   UNL     1      -2.950   8.957  -4.426  0.00  0.00    +0.247 C 
ATOM     20  O   UNL     1      -2.942   8.095  -5.280  0.00  0.00    -0.273 OA
ATOM     21  N   UNL     1      -2.628   8.648  -3.155  0.00  0.00    -0.233 N 
ATOM     22  H   UNL     1      -2.636   9.429  -2.380  0.00  0.00    +0.173 HD
BRANCH  21  23
ATOM     23  N   UNL     1      -2.284   7.332  -2.819  0.00  0.00    -0.230 N 
ATOM     24  C   UNL     1      -1.962   7.023  -1.547  0.00  0.00    +0.267 C 
ATOM     25  O   UNL     1      -1.970   7.888  -0.690  0.00  0.00    -0.268 OA
ATOM     26  H   UNL     1      -2.277   6.551  -3.593  0.00  0.00    +0.173 HD
BRANCH  24  27
ATOM     27  C   UNL     1      -1.602   5.646  -1.196  0.00  0.00    +0.076 A 
ATOM     28  C   UNL     1      -1.245   5.125   0.034  0.00  0.00    +0.024 A 
ATOM     29  C   UNL     1      -0.947   3.775   0.111  0.00  0.00    -0.036 A 
ATOM     30  C   UNL     1      -1.031   3.059  -1.050  0.00  0.00    -0.006 A 
ATOM     31  S   UNL     1      -1.512   4.204  -2.243  0.00  0.00    -0.088 S 
ATOM     32  C   UNL     1      -0.761   1.597  -1.231  0.00  0.00    +0.043 C 
ATOM     33  C   UNL     1      -0.013   1.086   0.008  0.00  0.00    +0.005 C 
ATOM     34  C   UNL     1      -0.735   1.583   1.263  0.00  0.00    +0.005 C 
ATOM     35  C   UNL     1      -0.541   3.091   1.414  0.00  0.00    +0.036 C 
ENDBRANCH  24  27
ENDBRANCH  21  23
ENDBRANCH   1  19
TORSDOF 4
