REMARK  Name = ZINC00390375
REMARK  2 active torsions:
REMARK  status: ('A' for Active; 'I' for Inactive)
REMARK    1  A    between atoms: C_4  and  C_7
REMARK    2  A    between atoms: C_17  and  C_19
REMARK                            x       y       z     vdW  Elec       q    Type
REMARK                         _______ _______ _______ _____ _____    ______ ____
ROOT
ATOM      1  C   UNL     1       3.478  -0.983   0.346  0.00  0.00    +0.007 A 
ATOM      2  C   UNL     1       2.226  -1.490   0.065  0.00  0.00    +0.123 A 
ATOM      3  N   UNL     1       1.324  -0.464   0.026  0.00  0.00    -0.221 N 
ATOM      4  C   UNL     1       2.050   0.660   0.168  0.00  0.00    +0.140 A 
ATOM      5  C   UNL     1       3.353   0.400   0.452  0.00  0.00    +0.004 A 
ATOM      6  C   UNL     1       4.244   1.569   0.773  0.00  0.00    +0.039 C 
ATOM      7  C   UNL     1       4.374   2.469  -0.446  0.00  0.00    +0.006 C 
ATOM      8  C   UNL     1       3.050   2.908  -1.089  0.00  0.00    +0.022 C 
ATOM      9  C   UNL     1       1.863   3.117  -0.139  0.00  0.00    +0.125 C 
ATOM     10  N   UNL     1       1.266   1.781   0.059  0.00  0.00    -0.309 N 
ATOM     11  C   UNL     1      -0.016   1.317   0.009  0.00  0.00    +0.163 A 
ATOM     12  N   UNL     1       0.003  -0.003  -0.056  0.00  0.00    -0.147 NA
ENDROOT
BRANCH   1  16
ATOM     13  C   UNL     1       7.059  -3.229   0.805  0.00  0.00    +0.000 A 
ATOM     14  C   UNL     1       5.920  -3.600   1.497  0.00  0.00    +0.001 A 
ATOM     15  C   UNL     1       4.755  -2.874   1.352  0.00  0.00    +0.008 A 
ATOM     16  C   UNL     1       4.728  -1.766   0.507  0.00  0.00    -0.016 A 
ATOM     17  C   UNL     1       5.877  -1.401  -0.192  0.00  0.00    +0.008 A 
ATOM     18  C   UNL     1       7.038  -2.130  -0.035  0.00  0.00    +0.001 A 
ENDBRANCH   1  16
BRANCH  11  19
ATOM     19  C   UNL     1      -1.234   2.158   0.020  0.00  0.00    +0.019 A 
ATOM     20  C   UNL     1      -2.455   1.627  -0.395  0.00  0.00    +0.011 A 
ATOM     21  C   UNL     1      -3.588   2.414  -0.378  0.00  0.00    +0.001 A 
ATOM     22  C   UNL     1      -3.512   3.731   0.039  0.00  0.00    +0.000 A 
ATOM     23  C   UNL     1      -2.302   4.265   0.447  0.00  0.00    +0.001 A 
ATOM     24  C   UNL     1      -1.164   3.486   0.439  0.00  0.00    +0.011 A 
ENDBRANCH  11  19
TORSDOF 2
