REMARK  Name = ZINC09057827
REMARK  3 active torsions:
REMARK  status: ('A' for Active; 'I' for Inactive)
REMARK    1  A    between atoms: C_10  and  C_19
REMARK    2  A    between atoms: C_13  and  C_15
REMARK    3  A    between atoms: C_29  and  C_32
REMARK                            x       y       z     vdW  Elec       q    Type
REMARK                         _______ _______ _______ _____ _____    ______ ____
ROOT
ATOM      1  C   UNL     1       6.158   2.912  -2.136  0.00  0.00    +0.002 A 
ATOM      2  C   UNL     1       6.324   2.358  -3.393  0.00  0.00    +0.002 A 
ATOM      3  C   UNL     1       5.453   1.385  -3.851  0.00  0.00    +0.025 A 
ATOM      4  C   UNL     1       4.409   0.971  -3.040  0.00  0.00    +0.059 A 
ATOM      5  C   UNL     1       4.267   1.499  -1.766  0.00  0.00    +0.053 A 
ATOM      6  C   UNL     1       5.129   2.484  -1.316  0.00  0.00    +0.025 A 
ATOM      7  N   UNL     1       3.241   0.993  -0.978  0.00  0.00    -0.316 N 
ATOM      8  C   UNL     1       1.918   1.129  -1.248  0.00  0.00    +0.017 C 
ATOM      9  C   UNL     1       1.350   0.909  -2.445  0.00  0.00    +0.037 C 
ATOM     10  C   UNL     1       2.072   0.492  -3.705  0.00  0.00    +0.147 C 
ATOM     11  N   UNL     1       3.443   0.074  -3.499  0.00  0.00    -0.251 N 
ATOM     12  C   UNL     1       3.792  -1.202  -3.755  0.00  0.00    +0.325 C 
ATOM     13  O   UNL     1       2.961  -1.990  -4.154  0.00  0.00    -0.265 OA
ATOM     14  C   UNL     1      -0.048   1.050  -2.607  0.00  0.00    +0.163 C 
ATOM     15  O   UNL     1      -0.532   0.865  -3.707  0.00  0.00    -0.292 OA
ATOM     16  C   UNL     1      -0.956   1.421  -1.473  0.00  0.00    +0.088 C 
ATOM     17  C   UNL     1      -0.320   0.945  -0.161  0.00  0.00    +0.032 C 
ATOM     18  C   UNL     1       1.071   1.570  -0.065  0.00  0.00    +0.059 C 
ATOM     19  H   UNL     1       3.488   0.506  -0.176  0.00  0.00    +0.152 HD
ENDROOT
BRANCH  10  20
ATOM     20  C   UNL     1       2.066   1.655  -4.663  0.00  0.00    -0.022 A 
ATOM     21  C   UNL     1       2.746   2.816  -4.344  0.00  0.00    +0.008 A 
ATOM     22  C   UNL     1       2.745   3.881  -5.224  0.00  0.00    +0.038 A 
ATOM     23  C   UNL     1       2.054   3.791  -6.420  0.00  0.00    +0.123 A 
ATOM     24  C   UNL     1       1.368   2.630  -6.735  0.00  0.00    +0.038 A 
ATOM     25  C   UNL     1       1.375   1.563  -5.856  0.00  0.00    +0.008 A 
ATOM     26  F   UNL     1       2.048   4.834  -7.279  0.00  0.00    -0.205 F 
ENDBRANCH  10  20
BRANCH  17  27
ATOM     27  C   UNL     1      -1.162   1.390   1.007  0.00  0.00    -0.043 A 
ATOM     28  C   UNL     1      -1.399   2.736   1.215  0.00  0.00    +0.005 A 
ATOM     29  C   UNL     1      -2.176   3.144   2.283  0.00  0.00    +0.020 A 
ATOM     30  C   UNL     1      -2.707   2.206   3.150  0.00  0.00    +0.041 A 
ATOM     31  C   UNL     1      -2.464   0.860   2.945  0.00  0.00    +0.020 A 
ATOM     32  C   UNL     1      -1.692   0.452   1.873  0.00  0.00    +0.005 A 
ATOM     33 CL   UNL     1      -3.677   2.718   4.495  0.00  0.00    -0.084 Cl
ENDBRANCH  17  27
BRANCH  12  34
ATOM     34  C   UNL     1       5.215  -1.651  -3.546  0.00  0.00    +0.470 C 
ATOM     35  F   UNL     1       5.331  -3.005  -3.876  0.00  0.00    -0.162 F 
ATOM     36  F   UNL     1       6.066  -0.897  -4.361  0.00  0.00    -0.162 F 
ATOM     37  F   UNL     1       5.570  -1.466  -2.205  0.00  0.00    -0.162 F 
ENDBRANCH  12  34
TORSDOF 3
