REMARK  Name = ZINC02373431
REMARK  4 active torsions:
REMARK  status: ('A' for Active; 'I' for Inactive)
REMARK    1  A    between atoms: C_1  and  O_2
REMARK    2  A    between atoms: O_2  and  C_3
REMARK    3  A    between atoms: C_7  and  C_9
REMARK    4  A    between atoms: C_27  and  C_28
REMARK                            x       y       z     vdW  Elec       q    Type
REMARK                         _______ _______ _______ _____ _____    ______ ____
ROOT
ATOM      1  C   UNL     1      -0.727   6.367   0.535  0.00  0.00    +0.151 C 
ATOM      2  C   UNL     1      -0.917   7.195  -0.714  0.00  0.00    -0.016 C 
ATOM      3  C   UNL     1       0.009   8.120  -1.020  0.00  0.00    +0.076 C 
ATOM      4  C   UNL     1      -0.176   8.954  -2.234  0.00  0.00    +0.004 A 
ATOM      5  C   UNL     1       0.879   9.690  -2.761  0.00  0.00    +0.010 A 
ATOM      6  C   UNL     1       0.685  10.451  -3.896  0.00  0.00    +0.001 A 
ATOM      7  C   UNL     1      -0.559  10.488  -4.502  0.00  0.00    +0.000 A 
ATOM      8  C   UNL     1      -1.617   9.775  -3.968  0.00  0.00    +0.004 A 
ATOM      9  C   UNL     1      -1.435   9.018  -2.830  0.00  0.00    -0.038 A 
ATOM     10  C   UNL     1      -2.591   8.277  -2.211  0.00  0.00    +0.040 C 
ATOM     11  C   UNL     1      -2.107   6.963  -1.603  0.00  0.00    +0.040 C 
ATOM     12  N   UNL     1       1.106   8.282  -0.234  0.00  0.00    -0.223 NA
ATOM     13  C   UNL     1       1.339   7.602   0.846  0.00  0.00    +0.178 A 
ATOM     14  N   UNL     1       0.500   6.619   1.340  0.00  0.00    -0.275 N 
ATOM     15  C   UNL     1       0.856   5.995   2.468  0.00  0.00    +0.268 A 
ATOM     16  O   UNL     1       0.146   5.127   2.941  0.00  0.00    -0.266 OA
ATOM     17  C   UNL     1       2.071   6.357   3.111  0.00  0.00    +0.081 A 
ATOM     18  C   UNL     1       2.625   5.862   4.251  0.00  0.00    +0.030 C 
ATOM     19  S   UNL     1       2.677   7.637   2.022  0.00  0.00    -0.046 S 
ENDROOT
BRANCH  18  20
ATOM     20  C   UNL     1       3.879   6.419   4.758  0.00  0.00    +0.001 A 
ATOM     21  C   UNL     1       4.756   7.215   4.075  0.00  0.00    +0.091 A 
ATOM     22  N   UNL     1       5.803   7.536   4.878  0.00  0.00    -0.360 N 
ATOM     23  H   UNL     1       6.551   8.094   4.615  0.00  0.00    +0.165 HD
ATOM     24  C   UNL     1       5.654   6.951   6.119  0.00  0.00    +0.047 A 
ATOM     25  C   UNL     1       4.451   6.228   6.104  0.00  0.00    +0.007 A 
ATOM     26  C   UNL     1       4.042   5.529   7.237  0.00  0.00    +0.010 A 
ATOM     27  C   UNL     1       4.825   5.550   8.371  0.00  0.00    +0.001 A 
ATOM     28  C   UNL     1       6.014   6.264   8.387  0.00  0.00    +0.002 A 
ATOM     29  C   UNL     1       6.430   6.960   7.273  0.00  0.00    +0.026 A 
ENDBRANCH  18  20
BRANCH   1  34
ATOM     30  C   UNL     1      -1.906   2.859  -0.228  0.00  0.00    +0.120 A 
ATOM     31  C   UNL     1      -0.720   2.248  -0.609  0.00  0.00    +0.045 A 
ATOM     32  C   UNL     1       0.456   2.973  -0.623  0.00  0.00    +0.004 A 
ATOM     33  C   UNL     1       0.452   4.305  -0.253  0.00  0.00    +0.006 A 
ATOM     34  C   UNL     1      -0.727   4.915   0.132  0.00  0.00    -0.017 A 
ATOM     35  C   UNL     1      -1.906   4.194   0.148  0.00  0.00    +0.051 A 
BRANCH  30  37
ATOM     36  C   UNL     1      -2.989   0.778  -0.613  0.00  0.00    +0.277 C 
ATOM     37  O   UNL     1      -3.065   2.149  -0.219  0.00  0.00    -0.495 OA
ENDBRANCH  30  37
ENDBRANCH   1  34
TORSDOF 3
