REMARK  Name = ZINC09192490
REMARK  9 active torsions:
REMARK  status: ('A' for Active; 'I' for Inactive)
REMARK    1  A    between atoms: C_1  and  C_2
REMARK    2  A    between atoms: C_2  and  C_35
REMARK    3  A    between atoms: C_9  and  C_20
REMARK    4  A    between atoms: C_9  and  N_24
REMARK    5  A    between atoms: N_12  and  C_13
REMARK    6  A    between atoms: C_13  and  C_14
REMARK    7  A    between atoms: C_25  and  C_27
REMARK    8  A    between atoms: C_27  and  C_28
REMARK    9  A    between atoms: C_28  and  C_29
REMARK                            x       y       z     vdW  Elec       q    Type
REMARK                         _______ _______ _______ _____ _____    ______ ____
ROOT
ATOM      1  C   UNL     1      -0.901   0.692  -0.384  0.00  0.00    +0.011 C 
ATOM      2  C   UNL     1      -1.359   1.291   0.947  0.00  0.00    -0.023 C 
ATOM      3  C   UNL     1      -2.785   0.820   1.253  0.00  0.00    +0.058 C 
ATOM      4  C   UNL     1      -3.244   1.502   2.525  0.00  0.00    +0.023 C 
ATOM      5  C   UNL     1      -2.744   2.710   2.903  0.00  0.00    +0.053 C 
ATOM      6  C   UNL     1      -1.787   3.419   2.163  0.00  0.00    +0.164 C 
ATOM      7  O   UNL     1      -1.351   4.483   2.557  0.00  0.00    -0.292 OA
ATOM      8  C   UNL     1      -1.315   2.817   0.857  0.00  0.00    +0.086 C 
ATOM      9  C   UNL     1      -3.411   3.068   4.202  0.00  0.00    +0.237 C 
ATOM     10  C   UNL     1      -4.336   1.891   4.454  0.00  0.00    +0.257 C 
ATOM     11  O   UNL     1      -5.083   1.741   5.397  0.00  0.00    -0.272 OA
ATOM     12  N   UNL     1      -4.159   1.045   3.420  0.00  0.00    -0.272 N 
ATOM     13  C   UNL     1      -0.421   0.823   2.062  0.00  0.00    +0.011 C 
ENDROOT
BRANCH   9  14
ATOM     14  C   UNL     1      -4.209   4.365   4.060  0.00  0.00    +0.424 C 
ATOM     15  F   UNL     1      -5.103   4.248   2.990  0.00  0.00    -0.167 F 
ATOM     16  F   UNL     1      -4.923   4.606   5.239  0.00  0.00    -0.167 F 
ATOM     17  F   UNL     1      -3.332   5.429   3.820  0.00  0.00    -0.167 F 
ENDBRANCH   9  14
BRANCH   9  18
ATOM     18  N   UNL     1      -2.421   3.187   5.276  0.00  0.00    -0.291 N 
ATOM     19  C   UNL     1      -1.737   2.100   5.685  0.00  0.00    +0.214 C 
ATOM     20  O   UNL     1      -1.868   1.046   5.101  0.00  0.00    -0.276 OA
ATOM     21  H   UNL     1      -2.236   4.163   5.748  0.00  0.00    +0.150 HD
BRANCH  19  22
ATOM     22  C   UNL     1      -0.808   2.196   6.868  0.00  0.00    +0.096 C 
BRANCH  22  23
ATOM     23  C   UNL     1      -0.161   0.833   7.120  0.00  0.00    +0.013 C 
BRANCH  23  24
ATOM     24  C   UNL     1       0.781   0.930   8.321  0.00  0.00    -0.011 C 
ATOM     25  C   UNL     1       1.939   1.872   7.986  0.00  0.00    +0.003 C 
ATOM     26  C   UNL     1       2.882   1.969   9.187  0.00  0.00    +0.000 C 
ATOM     27  C   UNL     1       3.433   0.580   9.517  0.00  0.00    +0.000 C 
ATOM     28  C   UNL     1       2.275  -0.361   9.852  0.00  0.00    +0.000 C 
ATOM     29  C   UNL     1       1.332  -0.459   8.651  0.00  0.00    +0.003 C 
ENDBRANCH  23  24
ENDBRANCH  22  23
ENDBRANCH  19  22
ENDBRANCH   9  18
BRANCH  12  30
ATOM     30  C   UNL     1      -4.873  -0.226   3.276  0.00  0.00    +0.117 C 
BRANCH  30  31
ATOM     31  C   UNL     1      -6.170   0.004   2.497  0.00  0.00    +0.007 C 
ATOM     32  C   UNL     1      -7.102   0.902   3.312  0.00  0.00    +0.005 C 
ATOM     33  C   UNL     1      -8.399   1.131   2.533  0.00  0.00    +0.000 C 
ATOM     34  C   UNL     1      -9.083  -0.212   2.274  0.00  0.00    +0.000 C 
ATOM     35  C   UNL     1      -8.150  -1.111   1.459  0.00  0.00    +0.000 C 
ATOM     36  C   UNL     1      -6.854  -1.340   2.238  0.00  0.00    +0.005 C 
ENDBRANCH  30  31
ENDBRANCH  12  30
TORSDOF 7
