REMARK  Name = ZINC16543274
REMARK  6 active torsions:
REMARK  status: ('A' for Active; 'I' for Inactive)
REMARK    1  A    between atoms: C_1  and  C_2
REMARK    2  A    between atoms: C_2  and  C_4
REMARK    3  A    between atoms: C_2  and  S_16
REMARK    4  A    between atoms: N_6  and  C_7
REMARK    5  A    between atoms: S_16  and  C_17
REMARK    6  A    between atoms: N_22  and  C_23
REMARK                            x       y       z     vdW  Elec       q    Type
REMARK                         _______ _______ _______ _____ _____    ______ ____
ROOT
ATOM      1  C   UNL     1       4.357  -1.097  -1.219  0.00  0.00    +0.029 C 
ATOM      2  C   UNL     1       3.742  -0.969   0.176  0.00  0.00    +0.136 C 
ENDROOT
BRANCH   2   3
ATOM      3  C   UNL     1       2.426  -0.241   0.080  0.00  0.00    +0.230 C 
ATOM      4  O   UNL     1       1.386  -0.865   0.090  0.00  0.00    -0.274 OA
ATOM      5  N   UNL     1       2.404   1.103  -0.017  0.00  0.00    -0.282 N 
ATOM      6  H   UNL     1       3.235   1.596  -0.106  0.00  0.00    +0.155 HD
BRANCH   5   7
ATOM      7  C   UNL     1       1.182   1.788   0.011  0.00  0.00    +0.072 A 
ATOM      8  C   UNL     1       0.079   1.216   0.630  0.00  0.00    +0.029 A 
ATOM      9  C   UNL     1      -1.127   1.889   0.652  0.00  0.00    +0.043 A 
ATOM     10  C   UNL     1      -1.236   3.139   0.068  0.00  0.00    +0.161 A 
ATOM     11  C   UNL     1      -0.137   3.715  -0.552  0.00  0.00    +0.195 A 
ATOM     12  C   UNL     1       1.073   3.041  -0.581  0.00  0.00    +0.182 A 
ATOM     13  F   UNL     1       2.145   3.600  -1.183  0.00  0.00    -0.200 F 
ATOM     14  F   UNL     1      -0.245   4.932  -1.127  0.00  0.00    -0.199 F 
ATOM     15  F   UNL     1      -2.415   3.797   0.096  0.00  0.00    -0.202 F 
ENDBRANCH   5   7
ENDBRANCH   2   3
BRANCH   2  16
ATOM     16  S   UNL     1       3.470  -2.622   0.872  0.00  0.00    -0.084 S 
BRANCH  16  17
ATOM     17  C   UNL     1       5.094  -3.279   1.057  0.00  0.00    +0.161 A 
ATOM     18  N   UNL     1       6.257  -2.730   0.762  0.00  0.00    -0.133 NA
ATOM     19  N   UNL     1       7.421  -3.426   0.993  0.00  0.00    -0.125 NA
ATOM     20  C   UNL     1       7.368  -4.643   1.498  0.00  0.00    +0.187 A 
ATOM     21  S   UNL     1       5.607  -4.871   1.686  0.00  0.00    -0.024 S 
ATOM     22  N   UNL     1       8.407  -5.517   1.802  0.00  0.00    -0.292 N 
ATOM     23  H   UNL     1       8.210  -6.418   2.103  0.00  0.00    +0.154 HD
BRANCH  22  24
ATOM     24  C   UNL     1       9.733  -5.096   1.675  0.00  0.00    +0.034 A 
ATOM     25  C   UNL     1      10.046  -3.745   1.761  0.00  0.00    +0.023 A 
ATOM     26  C   UNL     1      11.358  -3.332   1.636  0.00  0.00    +0.003 A 
ATOM     27  C   UNL     1      12.360  -4.262   1.426  0.00  0.00    +0.015 A 
ATOM     28  C   UNL     1      12.052  -5.608   1.340  0.00  0.00    +0.020 A 
ATOM     29  C   UNL     1      10.742  -6.028   1.469  0.00  0.00    +0.038 A 
ATOM     30 BR   UNL     1      13.427  -6.875   1.052  0.00  0.00    -0.050 Br
ENDBRANCH  22  24
ENDBRANCH  16  17
ENDBRANCH   2  16
TORSDOF 5
