REMARK  Name = ZINC09777304
REMARK  14 active torsions:
REMARK  status: ('A' for Active; 'I' for Inactive)
REMARK    1  A    between atoms: C_1  and  C_2
REMARK    2  A    between atoms: C_2  and  N_3
REMARK    3  A    between atoms: N_3  and  C_4
REMARK    4  A    between atoms: N_3  and  C_6
REMARK    5  A    between atoms: C_4  and  C_5
REMARK    6  A    between atoms: C_6  and  C_7
REMARK    7  A    between atoms: C_7  and  N_8
REMARK    8  A    between atoms: C_9  and  C_35
REMARK    9  A    between atoms: C_17  and  C_23
REMARK   10  A    between atoms: N_25  and  C_26
REMARK   11  A    between atoms: C_29  and  C_32
REMARK   12  A    between atoms: C_32  and  C_33
REMARK   13  A    between atoms: C_32  and  C_34
REMARK   14  A    between atoms: N_37  and  C_38
REMARK                            x       y       z     vdW  Elec       q    Type
REMARK                         _______ _______ _______ _____ _____    ______ ____
ROOT
ATOM      1  N   UNL     1      -2.016  -3.077  -2.381  0.00  0.00    -0.288 N 
ATOM      2  C   UNL     1      -2.003  -3.877  -3.646  0.00  0.00    +0.198 C 
ATOM      3  C   UNL     1      -2.650  -5.155  -3.211  0.00  0.00    +0.127 C 
ATOM      4  C   UNL     1      -4.138  -5.004  -2.954  0.00  0.00    +0.009 C 
ATOM      5  C   UNL     1      -4.564  -6.204  -2.590  0.00  0.00    +0.004 C 
ATOM      6  C   UNL     1      -3.306  -7.082  -2.566  0.00  0.00    +0.155 C 
ATOM      7  O   UNL     1      -2.510  -6.479  -3.670  0.00  0.00    -0.358 OA
ATOM      8  C   UNL     1      -2.564  -6.563  -1.274  0.00  0.00    +0.123 C 
ATOM      9  C   UNL     1      -1.910  -5.294  -1.820  0.00  0.00    +0.128 C 
ATOM     10  C   UNL     1      -2.061  -3.924  -1.300  0.00  0.00    +0.223 C 
ATOM     11  O   UNL     1      -2.202  -3.605  -0.139  0.00  0.00    -0.275 OA
ENDROOT
BRANCH   8  12
ATOM     12  C   UNL     1      -3.546  -6.256  -0.173  0.00  0.00    +0.224 C 
ATOM     13  O   UNL     1      -3.636  -5.128   0.264  0.00  0.00    -0.275 OA
ATOM     14  N   UNL     1      -4.325  -7.236   0.328  0.00  0.00    -0.285 N 
ATOM     15  H   UNL     1      -4.208  -8.150   0.025  0.00  0.00    +0.155 HD
BRANCH  14  16
ATOM     16  C   UNL     1      -5.302  -6.934   1.282  0.00  0.00    +0.033 A 
ATOM     17  C   UNL     1      -6.510  -7.619   1.283  0.00  0.00    +0.023 A 
ATOM     18  C   UNL     1      -7.473  -7.319   2.227  0.00  0.00    +0.006 A 
ATOM     19  C   UNL     1      -7.235  -6.337   3.171  0.00  0.00    -0.045 A 
ATOM     20  C   UNL     1      -6.033  -5.653   3.173  0.00  0.00    +0.006 A 
ATOM     21  C   UNL     1      -5.064  -5.953   2.236  0.00  0.00    +0.023 A 
BRANCH  19  22
ATOM     22  C   UNL     1      -8.287  -6.012   4.199  0.00  0.00    +0.013 C 
ATOM     23  C   UNL     1      -7.724  -6.257   5.600  0.00  0.00    +0.012 C 
ATOM     24  C   UNL     1      -8.696  -4.544   4.064  0.00  0.00    +0.012 C 
ENDBRANCH  19  22
ENDBRANCH  14  16
ENDBRANCH   8  12
BRANCH   2  25
ATOM     25  C   UNL     1      -0.591  -4.120  -4.115  0.00  0.00    +0.237 C 
ATOM     26  O   UNL     1       0.335  -3.991  -3.342  0.00  0.00    -0.274 OA
ATOM     27  N   UNL     1      -0.358  -4.480  -5.392  0.00  0.00    -0.311 N 
ATOM     28  H   UNL     1      -1.098  -4.583  -6.010  0.00  0.00    +0.149 HD
BRANCH  27  29
ATOM     29  C   UNL     1       1.015  -4.716  -5.848  0.00  0.00    +0.073 C 
ATOM     30  C   UNL     1       1.651  -3.387  -6.260  0.00  0.00    +0.022 C 
ATOM     31  C   UNL     1       3.084  -3.634  -6.736  0.00  0.00    +0.002 C 
ATOM     32  C   UNL     1       3.067  -4.585  -7.934  0.00  0.00    +0.000 C 
ATOM     33  C   UNL     1       2.431  -5.914  -7.522  0.00  0.00    +0.002 C 
ATOM     34  C   UNL     1       0.998  -5.667  -7.046  0.00  0.00    +0.022 C 
ENDBRANCH  27  29
ENDBRANCH   2  25
BRANCH   1  35
ATOM     35  C   UNL     1      -1.980  -1.614  -2.307  0.00  0.00    +0.090 C 
BRANCH  35  36
ATOM     36  C   UNL     1      -0.526  -1.142  -2.249  0.00  0.00    -0.060 C 
BRANCH  36  37
ATOM     37  N   UNL     1      -0.491   0.325  -2.175  0.00  0.00    +0.380 N 
ATOM     38  H   UNL     1      -1.010   0.713  -2.948  0.00  0.00    -0.082 HD
BRANCH  37  40
ATOM     39  C   UNL     1      -1.164   2.294  -0.883  0.00  0.00    -0.017 C 
ATOM     40  C   UNL     1      -1.093   0.765  -0.909  0.00  0.00    -0.082 C 
ENDBRANCH  37  40
BRANCH  37  41
ATOM     41  C   UNL     1       0.903   0.784  -2.240  0.00  0.00    -0.082 C 
ATOM     42  C   UNL     1       1.491   0.438  -3.609  0.00  0.00    -0.017 C 
ENDBRANCH  37  41
ENDBRANCH  36  37
ENDBRANCH  35  36
ENDBRANCH   1  35
TORSDOF 10
