REMARK  Name = ZINC64176502
REMARK  7 active torsions:
REMARK  status: ('A' for Active; 'I' for Inactive)
REMARK    1  A    between atoms: C_7  and  C_10
REMARK    2  A    between atoms: C_10  and  C_12
REMARK    3  A    between atoms: C_10  and  C_28
REMARK    4  A    between atoms: C_12  and  N_13
REMARK    5  A    between atoms: C_14  and  C_16
REMARK    6  A    between atoms: C_16  and  C_17
REMARK    7  A    between atoms: C_17  and  N_18
REMARK                            x       y       z     vdW  Elec       q    Type
REMARK                         _______ _______ _______ _____ _____    ______ ____
ROOT
ATOM      1  C   UNL     1       0.947  -4.042   1.218  0.00  0.00    +0.117 C 
ENDROOT
BRANCH   1   2
ATOM      2  N   UNL     1      -0.044  -5.118   1.282  0.00  0.00    -0.314 N 
ATOM      3  C   UNL     1      -0.013  -6.003   2.298  0.00  0.00    +0.215 C 
ATOM      4  O   UNL     1       0.836  -5.909   3.159  0.00  0.00    -0.276 OA
ATOM      5  H   UNL     1      -0.723  -5.194   0.593  0.00  0.00    +0.149 HD
BRANCH   3   6
ATOM      6  C   UNL     1      -1.034  -7.111   2.364  0.00  0.00    +0.115 C 
BRANCH   6   7
ATOM      7  C   UNL     1      -0.777  -7.967   3.606  0.00  0.00    +0.119 C 
BRANCH   7   8
ATOM      8  N   UNL     1      -1.769  -9.043   3.670  0.00  0.00    -0.281 N 
ATOM      9  C   UNL     1      -3.019  -8.791   4.380  0.00  0.00    +0.213 C 
ATOM     10  N   UNL     1      -4.140  -9.522   3.764  0.00  0.00    -0.322 N 
ATOM     11  C   UNL     1      -3.873 -10.785   3.293  0.00  0.00    +0.079 A 
ATOM     12  C   UNL     1      -2.582 -11.194   2.924  0.00  0.00    +0.065 A 
ATOM     13  C   UNL     1      -2.489 -12.553   2.442  0.00  0.00    +0.022 A 
ATOM     14  C   UNL     1      -3.637 -13.256   2.411  0.00  0.00    +0.048 A 
ATOM     15  S   UNL     1      -4.846 -12.100   3.027  0.00  0.00    -0.081 S 
ATOM     16  C   UNL     1      -1.482 -10.215   3.066  0.00  0.00    +0.250 C 
ATOM     17  O   UNL     1      -0.362 -10.459   2.656  0.00  0.00    -0.270 OA
ATOM     18  H   UNL     1      -5.025  -9.130   3.695  0.00  0.00    +0.148 HD
ENDBRANCH   7   8
ENDBRANCH   6   7
ENDBRANCH   3   6
ENDBRANCH   1   2
BRANCH   1  19
ATOM     19  C   UNL     1       0.691  -3.186  -0.024  0.00  0.00    +0.071 C 
BRANCH  19  26
ATOM     20  C   UNL     1      -0.016   1.348   0.009  0.00  0.00    +0.001 A 
ATOM     21  C   UNL     1       1.166   2.101   0.002  0.00  0.00    +0.002 A 
ATOM     22  C   UNL     1       2.391   1.535  -0.013  0.00  0.00    +0.026 A 
ATOM     23  C   UNL     1       2.529   0.120  -0.022  0.00  0.00    +0.043 A 
ATOM     24  N   UNL     1       3.587  -0.654  -0.037  0.00  0.00    -0.380 N 
ATOM     25  C   UNL     1       3.143  -2.053  -0.041  0.00  0.00    +0.145 C 
ATOM     26  C   UNL     1       1.631  -2.008  -0.025  0.00  0.00    -0.032 C 
ATOM     27  C   UNL     1       1.295  -0.698  -0.014  0.00  0.00    -0.000 A 
ATOM     28  C   UNL     1       0.002  -0.004   0.002  0.00  0.00    +0.010 A 
ATOM     29  H   UNL     1       4.509  -0.353  -0.045  0.00  0.00    +0.160 HD
ENDBRANCH  19  26
BRANCH  19  30
ATOM     30  C   UNL     1       0.920  -4.014  -1.262  0.00  0.00    -0.002 A 
ATOM     31  C   UNL     1       0.053  -4.316  -2.259  0.00  0.00    +0.012 A 
ATOM     32  C   UNL     1       0.488  -5.102  -3.310  0.00  0.00    +0.008 A 
ATOM     33  C   UNL     1       1.769  -5.546  -3.312  0.00  0.00    +0.045 A 
ATOM     34  S   UNL     1       2.406  -4.845  -1.799  0.00  0.00    -0.101 S 
ENDBRANCH  19  30
ENDBRANCH   1  19
TORSDOF 7
