REMARK  Name = ZINC66944826
REMARK  4 active torsions:
REMARK  status: ('A' for Active; 'I' for Inactive)
REMARK    1  A    between atoms: C_6  and  C_7
REMARK    2  A    between atoms: C_7  and  C_8
REMARK    3  A    between atoms: C_14  and  C_16
REMARK    4  A    between atoms: C_16  and  N_17
REMARK                            x       y       z     vdW  Elec       q    Type
REMARK                         _______ _______ _______ _____ _____    ______ ____
ROOT
ATOM      1  C   UNL     1      -1.649  -1.185  -1.332  0.00  0.00    +0.220 C 
ATOM      2  O   UNL     1      -0.890  -0.849  -2.216  0.00  0.00    -0.275 OA
ATOM      3  N   UNL     1      -2.853  -1.708  -1.639  0.00  0.00    -0.300 N 
ATOM      4  C   UNL     1      -3.827  -2.248  -0.674  0.00  0.00    +0.108 C 
ATOM      5  C   UNL     1      -5.198  -2.131  -1.386  0.00  0.00    +0.021 C 
ATOM      6  C   UNL     1      -4.816  -2.460  -2.853  0.00  0.00    +0.022 C 
ATOM      7  C   UNL     1      -3.414  -1.828  -2.993  0.00  0.00    +0.060 C 
ENDROOT
BRANCH   1   8
ATOM      8  C   UNL     1      -1.247  -1.019   0.111  0.00  0.00    +0.131 C 
BRANCH   8  14
ATOM      9  C   UNL     1       0.289   0.955   0.219  0.00  0.00    +0.004 A 
ATOM     10  C   UNL     1       1.555   1.504   0.284  0.00  0.00    +0.004 A 
ATOM     11  C   UNL     1       2.670   0.683   0.309  0.00  0.00    -0.044 A 
ATOM     12  C   UNL     1       2.514  -0.690   0.271  0.00  0.00    -0.044 A 
ATOM     13  C   UNL     1       1.245  -1.238   0.206  0.00  0.00    +0.008 A 
ATOM     14  C   UNL     1       0.134  -0.417   0.181  0.00  0.00    -0.038 A 
ATOM     15  C   UNL     1       3.871  -1.360   0.309  0.00  0.00    +0.036 C 
ATOM     16  C   UNL     1       4.879  -0.252  -0.064  0.00  0.00    +0.009 C 
ATOM     17  C   UNL     1       4.142   1.030   0.377  0.00  0.00    +0.036 C 
ENDBRANCH   8  14
ENDBRANCH   1   8
BRANCH   7  18
ATOM     18  C   UNL     1      -2.523  -2.731  -3.848  0.00  0.00    -0.056 C 
BRANCH  18  19
ATOM     19  N   UNL     1      -3.022  -2.745  -5.229  0.00  0.00    +0.381 N 
ATOM     20  C   UNL     1      -2.811  -1.419  -5.864  0.00  0.00    -0.079 C 
ATOM     21  C   UNL     1      -2.838  -1.742  -7.379  0.00  0.00    -0.020 C 
ATOM     22  C   UNL     1      -2.119  -3.108  -7.454  0.00  0.00    -0.020 C 
ATOM     23  C   UNL     1      -2.247  -3.708  -6.042  0.00  0.00    -0.079 C 
ATOM     24  H   UNL     1      -4.001  -2.987  -5.244  0.00  0.00    -0.082 HD
ENDBRANCH  18  19
ENDBRANCH   7  18
TORSDOF 4
