REMARK  Name = ZINC17079115
REMARK  8 active torsions:
REMARK  status: ('A' for Active; 'I' for Inactive)
REMARK    1  A    between atoms: C_1  and  C_2
REMARK    2  A    between atoms: C_5  and  N_9
REMARK    3  A    between atoms: C_6  and  C_8
REMARK    4  A    between atoms: N_12  and  N_13
REMARK    5  A    between atoms: C_14  and  C_16
REMARK    6  A    between atoms: C_16  and  C_17
REMARK    7  A    between atoms: C_17  and  C_18
REMARK    8  A    between atoms: C_17  and  C_24
REMARK                            x       y       z     vdW  Elec       q    Type
REMARK                         _______ _______ _______ _____ _____    ______ ____
ROOT
ATOM      1  N   UNL     1       0.926   3.079  -1.058  0.00  0.00    -0.233 N 
ATOM      2  C   UNL     1       1.864   3.961  -0.661  0.00  0.00    +0.230 C 
ATOM      3  O   UNL     1       3.024   3.619  -0.583  0.00  0.00    -0.274 OA
ATOM      4  H   UNL     1      -0.003   3.353  -1.121  0.00  0.00    +0.173 HD
ENDROOT
BRANCH   1   8
ATOM      5  N   UNL     1      -0.935   1.265  -1.870  0.00  0.00    -0.268 N 
ATOM      6  C   UNL     1       0.354   0.883  -1.778  0.00  0.00    +0.320 C 
ATOM      7  O   UNL     1       0.671  -0.257  -2.058  0.00  0.00    -0.251 OA
ATOM      8  N   UNL     1       1.292   1.765  -1.381  0.00  0.00    -0.218 N 
ATOM      9  H   UNL     1      -1.204   2.143  -1.558  0.00  0.00    +0.156 HD
ATOM     10  H   UNL     1       2.220   1.491  -1.318  0.00  0.00    +0.174 HD
BRANCH   5  15
ATOM     11  C   UNL     1      -4.789  -2.261  -4.084  0.00  0.00    +0.044 C 
ATOM     12  C   UNL     1      -3.765  -1.325  -3.496  0.00  0.00    -0.050 A 
ATOM     13  C   UNL     1      -2.422  -1.516  -3.762  0.00  0.00    +0.005 A 
ATOM     14  C   UNL     1      -1.481  -0.659  -3.224  0.00  0.00    +0.024 A 
ATOM     15  C   UNL     1      -1.886   0.395  -2.416  0.00  0.00    +0.038 A 
ATOM     16  C   UNL     1      -3.235   0.581  -2.146  0.00  0.00    -0.029 A 
ATOM     17  C   UNL     1      -4.171  -0.276  -2.691  0.00  0.00    +0.008 A 
ATOM     18  C   UNL     1      -3.678   1.720  -1.265  0.00  0.00    +0.045 C 
ENDBRANCH   5  15
ENDBRANCH   1   8
BRANCH   2  19
ATOM     19  C   UNL     1       1.470   5.374  -0.314  0.00  0.00    +0.110 C 
BRANCH  19  20
ATOM     20  C   UNL     1       2.713   6.162   0.102  0.00  0.00    +0.058 C 
BRANCH  20  21
ATOM     21  C   UNL     1       2.341   7.604   0.331  0.00  0.00    -0.040 A 
ATOM     22  C   UNL     1       3.054   8.610  -0.295  0.00  0.00    +0.004 A 
ATOM     23  C   UNL     1       2.709   9.933  -0.089  0.00  0.00    +0.000 A 
ATOM     24  C   UNL     1       1.658  10.250   0.750  0.00  0.00    +0.000 A 
ATOM     25  C   UNL     1       0.948   9.245   1.381  0.00  0.00    +0.000 A 
ATOM     26  C   UNL     1       1.290   7.922   1.171  0.00  0.00    +0.004 A 
ENDBRANCH  20  21
BRANCH  20  27
ATOM     27  C   UNL     1       3.274   5.581   1.375  0.00  0.00    -0.040 A 
ATOM     28  C   UNL     1       2.453   5.397   2.471  0.00  0.00    +0.004 A 
ATOM     29  C   UNL     1       2.966   4.859   3.637  0.00  0.00    +0.000 A 
ATOM     30  C   UNL     1       4.303   4.514   3.709  0.00  0.00    +0.000 A 
ATOM     31  C   UNL     1       5.125   4.703   2.614  0.00  0.00    +0.000 A 
ATOM     32  C   UNL     1       4.611   5.236   1.447  0.00  0.00    +0.004 A 
ENDBRANCH  20  27
ENDBRANCH  19  20
ENDBRANCH   2  19
TORSDOF 6
