REMARK  Name = ZINC40388697
REMARK  5 active torsions:
REMARK  status: ('A' for Active; 'I' for Inactive)
REMARK    1  A    between atoms: C_1  and  C_2
REMARK    2  A    between atoms: C_7  and  N_8
REMARK    3  A    between atoms: C_9  and  C_11
REMARK    4  A    between atoms: C_27  and  C_34
REMARK    5  A    between atoms: C_30  and  C_33
REMARK                            x       y       z     vdW  Elec       q    Type
REMARK                         _______ _______ _______ _____ _____    ______ ____
ROOT
ATOM      1  C   UNL     1      -0.053   0.212   4.792  0.00  0.00    +0.122 C 
ATOM      2  C   UNL     1      -1.360   1.007   4.823  0.00  0.00    +0.114 C 
ATOM      3  C   UNL     1      -1.562   1.596   6.195  0.00  0.00    +0.219 C 
ATOM      4  O   UNL     1      -2.050   2.700   6.307  0.00  0.00    -0.275 OA
ATOM      5  N   UNL     1      -1.207   0.910   7.295  0.00  0.00    -0.270 N 
ATOM      6  C   UNL     1      -0.552  -0.305   7.195  0.00  0.00    +0.138 A 
ATOM      7  C   UNL     1       0.015  -0.692   5.993  0.00  0.00    +0.069 A 
ATOM      8  C   UNL     1       0.652  -1.933   5.910  0.00  0.00    +0.258 A 
ATOM      9  O   UNL     1       1.153  -2.308   4.862  0.00  0.00    -0.267 OA
ATOM     10  N   UNL     1       0.704  -2.710   7.014  0.00  0.00    -0.295 N 
ATOM     11  H   UNL     1       1.127  -3.582   6.974  0.00  0.00    +0.172 HD
ATOM     12  C   UNL     1       0.160  -2.271   8.181  0.00  0.00    +0.200 A 
ATOM     13  N   UNL     1      -0.442  -1.103   8.263  0.00  0.00    -0.200 NA
ATOM     14  N   UNL     1       0.243  -3.060   9.297  0.00  0.00    -0.301 N 
ATOM     15  C   UNL     1       0.813  -4.412   9.217  0.00  0.00    +0.111 C 
ATOM     16  C   UNL     1       1.927  -4.540  10.260  0.00  0.00    +0.004 C 
ATOM     17  C   UNL     1       1.374  -4.172  11.639  0.00  0.00    +0.009 C 
ATOM     18  C   UNL     1       0.890  -2.720  11.625  0.00  0.00    +0.004 C 
ATOM     19  C   UNL     1      -0.230  -2.569  10.599  0.00  0.00    +0.111 C 
ATOM     20  C   UNL     1       0.369  -2.343  13.013  0.00  0.00    +0.009 C 
ATOM     21  C   UNL     1       2.441  -5.981  10.284  0.00  0.00    +0.009 C 
ATOM     22  H   UNL     1      -1.412   1.272   8.171  0.00  0.00    +0.156 HD
ENDROOT
BRANCH   1  24
ATOM     23  N   UNL     1       1.050  -0.505   2.697  0.00  0.00    -0.285 N 
ATOM     24  C   UNL     1       0.000  -0.618   3.535  0.00  0.00    +0.225 C 
ATOM     25  O   UNL     1      -0.902  -1.387   3.278  0.00  0.00    -0.275 OA
ATOM     26  H   UNL     1       1.801   0.061   2.934  0.00  0.00    +0.155 HD
BRANCH  23  33
ATOM     27  C   UNL     1       2.265   0.729   0.440  0.00  0.00    +0.045 C 
ATOM     28  C   UNL     1       1.638  -0.639   0.359  0.00  0.00    -0.029 A 
ATOM     29  C   UNL     1       1.648  -1.334  -0.835  0.00  0.00    +0.006 A 
ATOM     30  C   UNL     1       1.073  -2.590  -0.911  0.00  0.00    +0.020 A 
ATOM     31  C   UNL     1       0.487  -3.154   0.209  0.00  0.00    +0.043 A 
ATOM     32  C   UNL     1       0.474  -2.463   1.406  0.00  0.00    +0.043 A 
ATOM     33  C   UNL     1       1.056  -1.205   1.486  0.00  0.00    +0.038 A 
ATOM     34 CL   UNL     1      -0.233  -4.730   0.109  0.00  0.00    -0.083 Cl
ENDBRANCH  23  33
ENDBRANCH   1  24
TORSDOF 2
