REMARK  Name = ZINC39684442
REMARK  8 active torsions:
REMARK  status: ('A' for Active; 'I' for Inactive)
REMARK    1  A    between atoms: C_1  and  C_2
REMARK    2  A    between atoms: C_2  and  C_4
REMARK    3  A    between atoms: C_2  and  N_8
REMARK    4  A    between atoms: C_4  and  C_5
REMARK    5  A    between atoms: C_4  and  C_6
REMARK    6  A    between atoms: C_4  and  C_7
REMARK    7  A    between atoms: C_9  and  C_11
REMARK    8  A    between atoms: C_22  and  C_24
REMARK                            x       y       z     vdW  Elec       q    Type
REMARK                         _______ _______ _______ _____ _____    ______ ____
ROOT
ATOM      1  C   UNL     1       2.783  -1.099   2.395  0.00  0.00    +0.100 C 
ATOM      2  C   UNL     1       2.274  -2.504   2.788  0.00  0.00    +0.121 C 
ATOM      3  N   UNL     1       3.225  -3.440   2.144  0.00  0.00    -0.300 N 
ATOM      4  C   UNL     1       4.548  -2.793   2.309  0.00  0.00    +0.115 C 
ATOM      5  C   UNL     1       4.277  -1.292   2.085  0.00  0.00    -0.004 C 
ATOM      6  C   UNL     1       5.126  -0.454   3.034  0.00  0.00    -0.010 C 
ATOM      7  C   UNL     1       6.604  -0.617   2.669  0.00  0.00    -0.082 C 
ATOM      8  N   UNL     1       6.818  -0.189   1.282  0.00  0.00    +0.379 N 
ATOM      9  C   UNL     1       6.069  -1.060   0.368  0.00  0.00    -0.082 C 
ATOM     10  C   UNL     1       4.569  -0.915   0.635  0.00  0.00    -0.010 C 
ATOM     11  C   UNL     1       2.949  -4.615   1.544  0.00  0.00    +0.219 C 
ATOM     12  O   UNL     1       3.844  -5.274   1.059  0.00  0.00    -0.275 OA
ATOM     13  H   UNL     1       6.500   0.763   1.173  0.00  0.00    -0.086 HD
ATOM     14  H   UNL     1       7.801  -0.239   1.063  0.00  0.00    -0.086 HD
ENDROOT
BRANCH   1  16
ATOM     15  N   UNL     1       1.886   0.724   0.984  0.00  0.00    -0.312 N 
ATOM     16  C   UNL     1       2.054  -0.600   1.174  0.00  0.00    +0.218 C 
ATOM     17  O   UNL     1       1.619  -1.389   0.362  0.00  0.00    -0.275 OA
ATOM     18  H   UNL     1       2.234   1.355   1.632  0.00  0.00    +0.149 HD
BRANCH  15  20
ATOM     19  C   UNL     1       2.156   1.314  -1.375  0.00  0.00    +0.028 C 
ATOM     20  C   UNL     1       1.177   1.209  -0.203  0.00  0.00    +0.075 C 
BRANCH  20  21
ATOM     21  C   UNL     1       0.580   2.588   0.087  0.00  0.00    -0.020 C 
ATOM     22  C   UNL     1      -0.160   3.094  -1.152  0.00  0.00    +0.012 C 
ATOM     23  C   UNL     1      -0.399   2.483   1.258  0.00  0.00    +0.012 C 
ATOM     24  C   UNL     1       1.702   3.564   0.446  0.00  0.00    +0.012 C 
ENDBRANCH  20  21
ENDBRANCH  15  20
ENDBRANCH   1  16
BRANCH  11  25
ATOM     25  C   UNL     1       1.527  -5.111   1.475  0.00  0.00    +0.075 C 
ATOM     26  C   UNL     1       1.061  -5.825   2.755  0.00  0.00    +0.013 C 
ATOM     27  C   UNL     1       0.347  -6.832   1.838  0.00  0.00    +0.001 C 
ATOM     28  C   UNL     1       1.380  -6.464   0.760  0.00  0.00    +0.013 C 
ENDBRANCH  11  25
TORSDOF 4
