REMARK  Name = ZINC12421948
REMARK  8 active torsions:
REMARK  status: ('A' for Active; 'I' for Inactive)
REMARK    1  A    between atoms: N_6  and  C_11
REMARK    2  A    between atoms: C_11  and  C_12
REMARK    3  A    between atoms: C_12  and  C_14
REMARK    4  A    between atoms: C_12  and  O_18
REMARK    5  A    between atoms: C_14  and  N_44
REMARK    6  A    between atoms: C_15  and  C_16
REMARK    7  A    between atoms: C_15  and  N_44
REMARK    8  A    between atoms: C_16  and  O_17
REMARK                            x       y       z     vdW  Elec       q    Type
REMARK                         _______ _______ _______ _____ _____    ______ ____
ROOT
ATOM      1  C   UNL     1      -1.911   5.082  -4.142  0.00  0.00    +0.002 A 
ATOM      2  C   UNL     1      -1.583   3.929  -3.471  0.00  0.00    +0.010 A 
ATOM      3  C   UNL     1      -1.348   4.042  -2.098  0.00  0.00    +0.005 A 
ATOM      4  C   UNL     1      -0.989   3.076  -1.080  0.00  0.00    -0.019 A 
ATOM      5  C   UNL     1      -0.891   3.747   0.088  0.00  0.00    +0.023 A 
ATOM      6  N   UNL     1      -1.162   5.075  -0.116  0.00  0.00    -0.340 N 
ATOM      7  C   UNL     1      -1.445   5.292  -1.433  0.00  0.00    +0.068 A 
ATOM      8  C   UNL     1      -1.780   6.446  -2.140  0.00  0.00    +0.065 A 
ATOM      9  C   UNL     1      -2.008   6.305  -3.499  0.00  0.00    +0.022 A 
ATOM     10 CL   UNL     1      -1.905   7.988  -1.353  0.00  0.00    -0.081 Cl
ATOM     11  C   UNL     1      -0.536   3.094   1.403  0.00  0.00    +0.054 C 
ATOM     12  C   UNL     1      -0.731   1.580   1.267  0.00  0.00    +0.006 C 
ATOM     13  C   UNL     1      -0.013   1.086   0.008  0.00  0.00    +0.005 C 
ATOM     14  C   UNL     1      -0.755   1.594  -1.233  0.00  0.00    +0.037 C 
ENDROOT
BRANCH   6  15
ATOM     15  C   UNL     1      -1.149   6.106   0.924  0.00  0.00    +0.151 C 
BRANCH  15  16
ATOM     16  C   UNL     1       0.254   6.710   1.026  0.00  0.00    +0.117 C 
BRANCH  16  17
ATOM     17  O   UNL     1       1.171   5.710   1.474  0.00  0.00    -0.392 OA
ATOM     18  H   UNL     1       0.957   5.339   2.341  0.00  0.00    +0.210 HD
ENDBRANCH  16  17
BRANCH  16  19
ATOM     19  C   UNL     1       0.238   7.871   2.023  0.00  0.00    -0.049 C 
BRANCH  19  20
ATOM     20  N   UNL     1       1.561   8.523   2.026  0.00  0.00    +0.382 N 
ATOM     21  H   UNL     1       1.767   8.875   1.084  0.00  0.00    -0.086 HD
ATOM     22  H   UNL     1       2.276   7.838   2.300  0.00  0.00    -0.086 HD
BRANCH  20  23
ATOM     23  C   UNL     1       1.575   9.648   2.980  0.00  0.00    -0.054 C 
BRANCH  23  24
ATOM     24  C   UNL     1       2.957  10.304   2.961  0.00  0.00    +0.137 C 
BRANCH  24  25
ATOM     25  O   UNL     1       3.190  10.888   1.678  0.00  0.00    -0.397 OA
ATOM     26  H   UNL     1       4.050  11.323   1.594  0.00  0.00    +0.209 HD
ENDBRANCH  24  25
ENDBRANCH  23  24
ENDBRANCH  20  23
ENDBRANCH  19  20
ENDBRANCH  16  19
ENDBRANCH  15  16
ENDBRANCH   6  15
TORSDOF 8
