REMARK  Name = ZINC00836670
REMARK  7 active torsions:
REMARK  status: ('A' for Active; 'I' for Inactive)
REMARK    1  A    between atoms: C_3  and  C_6
REMARK    2  A    between atoms: N_8  and  C_9
REMARK    3  A    between atoms: C_9  and  C_11
REMARK    4  A    between atoms: C_9  and  N_15
REMARK    5  A    between atoms: N_15  and  C_16
REMARK    6  A    between atoms: C_16  and  N_18
REMARK    7  A    between atoms: N_18  and  C_19
REMARK                            x       y       z     vdW  Elec       q    Type
REMARK                         _______ _______ _______ _____ _____    ______ ____
ROOT
ATOM      1  C   UNL     1       6.438  -0.755   0.157  0.00  0.00    +0.211 C 
ENDROOT
BRANCH   1   4
ATOM      2  C   UNL     1       4.722   0.851   0.800  0.00  0.00    +0.281 C 
ATOM      3  O   UNL     1       5.560   1.730   0.729  0.00  0.00    -0.267 OA
ATOM      4  N   UNL     1       5.061  -0.426   0.534  0.00  0.00    -0.287 N 
ATOM      5  H   UNL     1       4.393  -1.127   0.591  0.00  0.00    +0.151 HD
BRANCH   2   8
ATOM      6  C   UNL     1       1.506   2.277   1.775  0.00  0.00    +0.042 A 
ATOM      7  C   UNL     1       2.868   2.426   1.472  0.00  0.00    +0.054 A 
ATOM      8  C   UNL     1       3.344   1.180   1.177  0.00  0.00    +0.189 A 
ATOM      9  O   UNL     1       2.323   0.306   1.293  0.00  0.00    -0.458 OA
ATOM     10  C   UNL     1       1.213   0.963   1.653  0.00  0.00    +0.196 A 
ENDBRANCH   2   8
ENDBRANCH   1   4
BRANCH   1  11
ATOM     11  C   UNL     1       6.894  -1.996   0.927  0.00  0.00    +0.225 C 
ATOM     12 CL   UNL     1       5.814  -3.383   0.526  0.00  0.00    -0.080 Cl
ATOM     13 CL   UNL     1       8.589  -2.401   0.463  0.00  0.00    -0.080 Cl
ATOM     14 CL   UNL     1       6.818  -1.667   2.698  0.00  0.00    -0.080 Cl
ENDBRANCH   1  11
BRANCH   1  15
ATOM     15  N   UNL     1       6.500  -1.022  -1.282  0.00  0.00    -0.305 N 
ATOM     16  H   UNL     1       6.158  -1.858  -1.635  0.00  0.00    +0.150 HD
BRANCH  15  17
ATOM     17  C   UNL     1       7.033  -0.107  -2.115  0.00  0.00    +0.136 C 
ATOM     18  S   UNL     1       7.638   1.369  -1.492  0.00  0.00    -0.019 S 
BRANCH  17  19
ATOM     19  N   UNL     1       7.090  -0.353  -3.439  0.00  0.00    -0.296 N 
ATOM     20  H   UNL     1       6.822  -1.219  -3.783  0.00  0.00    +0.154 HD
BRANCH  19  21
ATOM     21  C   UNL     1       7.538   0.641  -4.316  0.00  0.00    +0.053 A 
ATOM     22  C   UNL     1       7.088   1.947  -4.175  0.00  0.00    +0.044 A 
ATOM     23  C   UNL     1       7.532   2.927  -5.044  0.00  0.00    +0.043 A 
ATOM     24  C   UNL     1       8.422   2.607  -6.054  0.00  0.00    +0.021 A 
ATOM     25  C   UNL     1       8.871   1.307  -6.197  0.00  0.00    +0.023 A 
ATOM     26  C   UNL     1       8.437   0.324  -5.328  0.00  0.00    +0.062 A 
ATOM     27 CL   UNL     1       9.007  -1.306  -5.504  0.00  0.00    -0.082 Cl
ATOM     28 CL   UNL     1       6.971   4.560  -4.868  0.00  0.00    -0.083 Cl
ENDBRANCH  19  21
ENDBRANCH  17  19
ENDBRANCH  15  17
ENDBRANCH   1  15
TORSDOF 7
