REMARK  Name = ZINC38741896
REMARK  3 active torsions:
REMARK  status: ('A' for Active; 'I' for Inactive)
REMARK    1  A    between atoms: C_14  and  C_34
REMARK    2  A    between atoms: N_23  and  C_24
REMARK    3  A    between atoms: C_28  and  C_30
REMARK                            x       y       z     vdW  Elec       q    Type
REMARK                         _______ _______ _______ _____ _____    ______ ____
ROOT
ATOM      1  C   UNL     1       0.347  -2.090   2.122  0.00  0.00    +0.002 A 
ATOM      2  C   UNL     1      -0.442  -0.958   1.981  0.00  0.00    +0.002 A 
ATOM      3  C   UNL     1      -1.778  -1.071   1.672  0.00  0.00    +0.030 A 
ATOM      4  C   UNL     1      -2.345  -2.337   1.498  0.00  0.00    +0.091 A 
ATOM      5  N   UNL     1      -3.599  -2.764   1.196  0.00  0.00    -0.213 NA
ATOM      6  C   UNL     1      -3.618  -4.073   1.146  0.00  0.00    +0.217 A 
ATOM      7  N   UNL     1      -2.371  -4.566   1.413  0.00  0.00    -0.325 N 
ATOM      8  C   UNL     1      -1.542  -3.480   1.641  0.00  0.00    +0.067 A 
ATOM      9  C   UNL     1      -0.197  -3.346   1.953  0.00  0.00    +0.028 A 
ATOM     10  N   UNL     1      -4.728  -4.839   0.866  0.00  0.00    -0.187 N 
ATOM     11  C   UNL     1      -6.071  -4.383   0.569  0.00  0.00    +0.119 C 
ATOM     12  C   UNL     1      -6.345  -3.039  -0.048  0.00  0.00    +0.037 C 
ATOM     13  C   UNL     1      -7.873  -2.894  -0.164  0.00  0.00    +0.064 C 
ATOM     14  C   UNL     1      -8.502  -4.012  -0.991  0.00  0.00    +0.086 C 
ATOM     15  C   UNL     1      -7.973  -5.377  -0.557  0.00  0.00    +0.146 C 
ATOM     16  O   UNL     1      -8.695  -6.310  -0.299  0.00  0.00    -0.297 OA
ATOM     17  C   UNL     1      -6.476  -5.446  -0.495  0.00  0.00    +0.143 C 
ATOM     18  C   UNL     1      -5.799  -6.658   0.037  0.00  0.00    +0.130 C 
ATOM     19  N   UNL     1      -4.816  -6.254   0.796  0.00  0.00    -0.165 NA
ATOM     20  N   UNL     1      -6.144  -7.974  -0.228  0.00  0.00    -0.301 N 
ATOM     21  H   UNL     1      -2.115  -5.501   1.439  0.00  0.00    +0.169 HD
ATOM     22  H   UNL     1      -6.846  -8.171  -0.868  0.00  0.00    +0.153 HD
ENDROOT
BRANCH  20  23
ATOM     23  C   UNL     1      -5.483  -9.015   0.428  0.00  0.00    +0.033 A 
ATOM     24  C   UNL     1      -4.934  -8.807   1.688  0.00  0.00    +0.023 A 
ATOM     25  C   UNL     1      -4.281  -9.839   2.333  0.00  0.00    +0.002 A 
ATOM     26  C   UNL     1      -4.173 -11.078   1.727  0.00  0.00    +0.012 A 
ATOM     27  C   UNL     1      -4.718 -11.287   0.473  0.00  0.00    +0.057 A 
ATOM     28  C   UNL     1      -5.378 -10.262  -0.175  0.00  0.00    +0.035 A 
BRANCH  27  29
ATOM     29  C   UNL     1      -4.597 -12.639  -0.183  0.00  0.00    +0.417 C 
ATOM     30  F   UNL     1      -3.898 -13.507   0.662  0.00  0.00    -0.166 F 
ATOM     31  F   UNL     1      -5.874 -13.154  -0.429  0.00  0.00    -0.166 F 
ATOM     32  F   UNL     1      -3.906 -12.509  -1.393  0.00  0.00    -0.166 F 
ENDBRANCH  27  29
ENDBRANCH  20  23
BRANCH  13  33
ATOM     33  C   UNL     1      -8.472  -2.917   1.219  0.00  0.00    +0.108 A 
ATOM     34  C   UNL     1      -9.031  -1.869   1.852  0.00  0.00    +0.045 A 
ATOM     35  C   UNL     1      -9.459  -2.335   3.116  0.00  0.00    +0.041 A 
ATOM     36  C   UNL     1      -9.136  -3.639   3.181  0.00  0.00    +0.195 A 
ATOM     37  O   UNL     1      -8.544  -3.987   2.027  0.00  0.00    -0.468 OA
ENDBRANCH  13  33
TORSDOF 3
