REMARK  Name = ZINC50988334
REMARK  6 active torsions:
REMARK  status: ('A' for Active; 'I' for Inactive)
REMARK    1  A    between atoms: C_1  and  C_2
REMARK    2  A    between atoms: C_2  and  C_3
REMARK    3  A    between atoms: C_5  and  C_12
REMARK    4  A    between atoms: N_7  and  C_8
REMARK    5  A    between atoms: C_8  and  C_9
REMARK    6  A    between atoms: C_8  and  C_10
REMARK                            x       y       z     vdW  Elec       q    Type
REMARK                         _______ _______ _______ _____ _____    ______ ____
ROOT
ATOM      1  C   UNL     1      -1.412  -0.526   0.013  0.00  0.00    +0.076 C 
ATOM      2  N   UNL     1      -2.064  -0.776   1.092  0.00  0.00    -0.363 N 
ATOM      3  C   UNL     1      -3.400  -1.265   0.718  0.00  0.00    +0.175 C 
ATOM      4  C   UNL     1      -3.382  -1.246  -0.799  0.00  0.00    +0.101 C 
ATOM      5  N   UNL     1      -2.129  -0.774  -1.123  0.00  0.00    -0.276 N 
ATOM      6  N   UNL     1      -4.332  -1.590  -1.605  0.00  0.00    -0.388 N 
ATOM      7  H   UNL     1      -5.178  -1.906  -1.252  0.00  0.00    +0.157 HD
ATOM      8  H   UNL     1      -4.198  -1.532  -2.564  0.00  0.00    +0.157 HD
ATOM      9  H   UNL     1      -1.733  -0.661   1.997  0.00  0.00    +0.162 HD
ENDROOT
BRANCH   3  10
ATOM     10  C   UNL     1      -4.469  -0.343   1.246  0.00  0.00    +0.018 A 
ATOM     11  C   UNL     1      -4.168   0.978   1.521  0.00  0.00    +0.024 A 
ATOM     12  C   UNL     1      -5.149   1.824   2.006  0.00  0.00    +0.018 A 
ATOM     13  C   UNL     1      -6.431   1.349   2.216  0.00  0.00    +0.018 A 
ATOM     14  C   UNL     1      -6.733   0.029   1.942  0.00  0.00    +0.040 A 
ATOM     15  C   UNL     1      -5.753  -0.817   1.451  0.00  0.00    +0.129 A 
ATOM     16  F   UNL     1      -6.049  -2.107   1.177  0.00  0.00    -0.205 F 
ATOM     17 BR   UNL     1      -4.736   3.631   2.383  0.00  0.00    -0.050 Br
ENDBRANCH   3  10
BRANCH   5  18
ATOM     18  C   UNL     1      -1.635  -0.573  -2.488  0.00  0.00    +0.075 C 
ATOM     19  C   UNL     1      -1.662  -1.904  -3.242  0.00  0.00    +0.028 C 
ATOM     20  C   UNL     1      -2.528   0.440  -3.209  0.00  0.00    +0.028 C 
ENDBRANCH   5  18
BRANCH   1  22
ATOM     21  C   UNL     1      -0.019   1.526   0.010  0.00  0.00    +0.011 C 
ATOM     22  C   UNL     1       0.002  -0.004   0.002  0.00  0.00    +0.066 C 
ENDBRANCH   1  22
TORSDOF 3
