REMARK  Name = ZINC40062932
REMARK  7 active torsions:
REMARK  status: ('A' for Active; 'I' for Inactive)
REMARK    1  A    between atoms: C_1  and  C_2
REMARK    2  A    between atoms: C_5  and  C_8
REMARK    3  A    between atoms: C_16  and  C_28
REMARK    4  A    between atoms: C_17  and  C_27
REMARK    5  A    between atoms: N_23  and  C_24
REMARK    6  A    between atoms: C_24  and  C_25
REMARK    7  A    between atoms: C_25  and  O_26
REMARK                            x       y       z     vdW  Elec       q    Type
REMARK                         _______ _______ _______ _____ _____    ______ ____
ROOT
ATOM      1  C   UNL     1       0.059  -4.275  -0.021  0.00  0.00    +0.145 C 
ATOM      2  C   UNL     1       1.436  -4.774   0.271  0.00  0.00    +0.072 A 
ATOM      3  C   UNL     1       2.703  -4.591  -0.446  0.00  0.00    +0.199 A 
ATOM      4  O   UNL     1       2.840  -3.807  -1.368  0.00  0.00    -0.287 OA
ATOM      5  C   UNL     1       3.802  -5.453   0.059  0.00  0.00    +0.065 A 
ATOM      6  C   UNL     1       5.006  -5.543  -0.638  0.00  0.00    +0.015 A 
ATOM      7  C   UNL     1       6.006  -6.345  -0.162  0.00  0.00    +0.004 A 
ATOM      8  C   UNL     1       5.826  -7.066   1.010  0.00  0.00    -0.044 A 
ATOM      9  C   UNL     1       4.644  -6.987   1.712  0.00  0.00    -0.005 A 
ATOM     10  C   UNL     1       3.609  -6.175   1.248  0.00  0.00    +0.143 A 
ATOM     11  O   UNL     1       2.460  -6.104   1.959  0.00  0.00    -0.449 OA
ATOM     12  C   UNL     1       1.377  -5.515   1.417  0.00  0.00    +0.199 A 
ATOM     13  C   UNL     1      -0.019  -5.522   1.890  0.00  0.00    +0.283 C 
ATOM     14  O   UNL     1      -0.413  -6.095   2.886  0.00  0.00    -0.267 OA
ATOM     15  N   UNL     1      -0.796  -4.800   1.055  0.00  0.00    -0.282 N 
ATOM     16  C   UNL     1       4.468  -7.779   2.982  0.00  0.00    +0.048 C 
ATOM     17  C   UNL     1       6.937  -7.947   1.520  0.00  0.00    +0.044 C 
ENDROOT
BRANCH   1  22
ATOM     18  C   UNL     1      -0.018   1.503   0.010  0.00  0.00    +0.044 C 
ATOM     19  C   UNL     1       0.002  -0.004   0.002  0.00  0.00    -0.050 A 
ATOM     20  C   UNL     1       0.006  -0.689  -1.199  0.00  0.00    +0.004 A 
ATOM     21  C   UNL     1       0.025  -2.071  -1.206  0.00  0.00    +0.006 A 
ATOM     22  C   UNL     1       0.040  -2.768  -0.013  0.00  0.00    -0.022 A 
ATOM     23  C   UNL     1       0.037  -2.084   1.188  0.00  0.00    +0.006 A 
ATOM     24  C   UNL     1       0.023  -0.702   1.195  0.00  0.00    +0.004 A 
ENDBRANCH   1  22
BRANCH  15  25
ATOM     25  C   UNL     1      -2.237  -4.577   1.195  0.00  0.00    +0.137 C 
BRANCH  25  26
ATOM     26  C   UNL     1      -2.999  -5.683   0.461  0.00  0.00    +0.175 C 
BRANCH  26  27
ATOM     27  O   UNL     1      -2.747  -6.937   1.097  0.00  0.00    -0.393 OA
ATOM     28  H   UNL     1      -3.199  -7.686   0.683  0.00  0.00    +0.209 HD
ENDBRANCH  26  27
ENDBRANCH  25  26
ENDBRANCH  15  25
TORSDOF 4
