REMARK  Name = ZINC20070759
REMARK  6 active torsions:
REMARK  status: ('A' for Active; 'I' for Inactive)
REMARK    1  A    between atoms: C_1  and  S_2
REMARK    2  A    between atoms: S_2  and  C_3
REMARK    3  A    between atoms: C_3  and  C_4
REMARK    4  A    between atoms: C_4  and  C_5
REMARK    5  A    between atoms: C_11  and  C_13
REMARK    6  A    between atoms: C_18  and  O_19
REMARK                            x       y       z     vdW  Elec       q    Type
REMARK                         _______ _______ _______ _____ _____    ______ ____
ROOT
ATOM      1  C   UNL     1       2.543   0.245  -0.234  0.00  0.00    +0.279 C 
ATOM      2  N   UNL     1       1.376  -0.406   0.376  0.00  0.00    -0.209 N 
ATOM      3  C   UNL     1       0.002  -0.004   0.002  0.00  0.00    +0.136 C 
ATOM      4  C   UNL     1      -0.865  -0.594   1.122  0.00  0.00    +0.086 C 
ATOM      5  C   UNL     1       0.088  -1.502   1.873  0.00  0.00    +0.072 C 
ATOM      6  N   UNL     1       1.285  -1.351   1.407  0.00  0.00    -0.185 NA
ATOM      7  C   UNL     1      -0.018   1.502   0.010  0.00  0.00    +0.018 A 
ATOM      8  C   UNL     1      -1.234   2.161   0.020  0.00  0.00    +0.024 A 
ATOM      9  C   UNL     1      -1.280   3.542   0.017  0.00  0.00    +0.018 A 
ATOM     10  C   UNL     1      -0.101   4.267  -0.005  0.00  0.00    +0.019 A 
ATOM     11  C   UNL     1       1.112   3.614  -0.012  0.00  0.00    +0.047 A 
ATOM     12  C   UNL     1       1.168   2.220   0.003  0.00  0.00    +0.128 A 
ATOM     13  O   UNL     1       2.399   1.647   0.021  0.00  0.00    -0.469 OA
ATOM     14 BR   UNL     1      -2.946   4.437   0.039  0.00  0.00    -0.050 Br
ENDROOT
BRANCH   5  15
ATOM     15  C   UNL     1      -0.290  -2.415   2.966  0.00  0.00    +0.039 A 
ATOM     16  C   UNL     1      -1.619  -2.494   3.387  0.00  0.00    +0.013 A 
ATOM     17  C   UNL     1      -1.967  -3.352   4.411  0.00  0.00    +0.001 A 
ATOM     18  C   UNL     1      -1.003  -4.135   5.022  0.00  0.00    +0.004 A 
ATOM     19  C   UNL     1       0.316  -4.065   4.615  0.00  0.00    +0.046 A 
ATOM     20  C   UNL     1       0.681  -3.214   3.585  0.00  0.00    +0.126 A 
BRANCH  20  21
ATOM     21  O   UNL     1       1.976  -3.149   3.180  0.00  0.00    -0.506 OA
ATOM     22  H   UNL     1       2.737  -3.777   3.667  0.00  0.00    +0.292 HD
ENDBRANCH  20  21
ENDBRANCH   5  15
BRANCH   1  23
ATOM     23  C   UNL     1       3.831  -0.277   0.406  0.00  0.00    +0.077 C 
BRANCH  23  24
ATOM     24  C   UNL     1       5.039   0.315  -0.323  0.00  0.00    +0.074 C 
BRANCH  24  26
ATOM     25  C   UNL     1       7.885   0.481  -0.530  0.00  0.00    +0.084 C 
ATOM     26  S   UNL     1       6.566  -0.303   0.436  0.00  0.00    -0.164 S 
ENDBRANCH  24  26
ENDBRANCH  23  24
ENDBRANCH   1  23
TORSDOF 5
