REMARK  Name = ZINC39774296
REMARK  8 active torsions:
REMARK  status: ('A' for Active; 'I' for Inactive)
REMARK    1  A    between atoms: C_1  and  C_2
REMARK    2  A    between atoms: C_5  and  C_12
REMARK    3  A    between atoms: C_5  and  O_25
REMARK    4  A    between atoms: C_6  and  C_11
REMARK    5  A    between atoms: N_9  and  C_10
REMARK    6  A    between atoms: C_13  and  C_14
REMARK    7  A    between atoms: C_14  and  O_15
REMARK    8  A    between atoms: O_15  and  C_16
REMARK                            x       y       z     vdW  Elec       q    Type
REMARK                         _______ _______ _______ _____ _____    ______ ____
ROOT
ATOM      1  C   UNL     1      -2.110   1.432   1.436  0.00  0.00    -0.064 C 
ATOM      2  C   UNL     1      -2.175   2.604   1.421  0.00  0.00    -0.059 C 
ENDROOT
BRANCH   1   6
ATOM      3  C   UNL     1      -0.019   1.526   0.010  0.00  0.00    -0.013 C 
ATOM      4  C   UNL     1       0.002  -0.004   0.002  0.00  0.00    -0.068 C 
ATOM      5  C   UNL     1      -1.427  -0.534   0.137  0.00  0.00    +0.033 C 
ATOM      6  C   UNL     1      -2.027  -0.037   1.456  0.00  0.00    +0.126 C 
ATOM      7  C   UNL     1      -1.131  -0.485   2.614  0.00  0.00    +0.013 C 
ATOM      8  C   UNL     1       0.288   0.043   2.387  0.00  0.00    -0.072 C 
ATOM      9  N   UNL     1       0.815  -0.488   1.125  0.00  0.00    +0.380 N 
ATOM     10  C   UNL     1       2.203  -0.042   0.950  0.00  0.00    -0.096 C 
ATOM     11  C   UNL     1      -1.679   0.071   3.929  0.00  0.00    +0.009 C 
ATOM     12  H   UNL     1       0.788  -1.496   1.148  0.00  0.00    -0.082 HD
BRANCH   6  13
ATOM     13  O   UNL     1      -3.335  -0.589   1.623  0.00  0.00    -0.376 OA
ATOM     14  H   UNL     1      -3.955  -0.350   0.920  0.00  0.00    +0.211 HD
ENDBRANCH   6  13
ENDBRANCH   1   6
BRANCH   2  15
ATOM     15  C   UNL     1      -2.258   4.074   1.402  0.00  0.00    +0.317 C 
BRANCH  15  16
ATOM     16  O   UNL     1      -2.818   4.536   2.633  0.00  0.00    -0.477 OA
BRANCH  16  17
ATOM     17  C   UNL     1      -2.964   5.880   2.779  0.00  0.00    +0.150 A 
ATOM     18  C   UNL     1      -1.936   6.635   3.324  0.00  0.00    +0.062 A 
ATOM     19  C   UNL     1      -2.086   8.001   3.471  0.00  0.00    +0.034 A 
ATOM     20  C   UNL     1      -3.261   8.615   3.076  0.00  0.00    +0.020 A 
ATOM     21  C   UNL     1      -4.288   7.864   2.533  0.00  0.00    +0.034 A 
ATOM     22  C   UNL     1      -4.140   6.498   2.378  0.00  0.00    +0.062 A 
ATOM     23 BR   UNL     1      -5.541   5.473   1.628  0.00  0.00    -0.046 Br
ATOM     24 BR   UNL     1      -3.465  10.484   3.280  0.00  0.00    -0.050 Br
ATOM     25 BR   UNL     1      -0.329   5.797   3.864  0.00  0.00    -0.046 Br
ENDBRANCH  16  17
ENDBRANCH  15  16
ENDBRANCH   2  15
TORSDOF 5
