REMARK  Name = ZINC05128683
REMARK  7 active torsions:
REMARK  status: ('A' for Active; 'I' for Inactive)
REMARK    1  A    between atoms: C_1  and  S_2
REMARK    2  A    between atoms: S_2  and  C_3
REMARK    3  A    between atoms: C_3  and  N_5
REMARK    4  A    between atoms: N_5  and  N_6
REMARK    5  A    between atoms: C_7  and  C_8
REMARK    6  A    between atoms: N_15  and  C_23
REMARK    7  A    between atoms: C_16  and  C_17
REMARK                            x       y       z     vdW  Elec       q    Type
REMARK                         _______ _______ _______ _____ _____    ______ ____
ROOT
ATOM      1  C   UNL     1       1.080   3.530   0.011  0.00  0.00    +0.028 A 
ATOM      2  C   UNL     1      -0.111   4.396   0.020  0.00  0.00    +0.009 A 
ATOM      3  C   UNL     1      -1.482   4.144   0.038  0.00  0.00    +0.010 A 
ATOM      4  C   UNL     1      -2.369   5.198   0.051  0.00  0.00    +0.001 A 
ATOM      5  C   UNL     1      -1.904   6.505   0.054  0.00  0.00    +0.002 A 
ATOM      6  C   UNL     1      -0.552   6.769   0.043  0.00  0.00    +0.027 A 
ATOM      7  C   UNL     1       0.362   5.720   0.029  0.00  0.00    +0.055 A 
ATOM      8  N   UNL     1       1.742   5.678   0.016  0.00  0.00    -0.308 N 
ATOM      9  C   UNL     1       2.178   4.375   0.005  0.00  0.00    +0.064 A 
ENDROOT
BRANCH   9  10
ATOM     10  C   UNL     1       3.588   3.944  -0.012  0.00  0.00    -0.001 A 
ATOM     11  C   UNL     1       4.500   4.557  -0.876  0.00  0.00    +0.010 A 
ATOM     12  C   UNL     1       5.818   4.153  -0.882  0.00  0.00    +0.001 A 
ATOM     13  C   UNL     1       6.237   3.135  -0.043  0.00  0.00    +0.000 A 
ATOM     14  C   UNL     1       5.340   2.520   0.811  0.00  0.00    +0.001 A 
ATOM     15  C   UNL     1       4.019   2.917   0.833  0.00  0.00    +0.010 A 
ENDBRANCH   9  10
BRANCH   8  16
ATOM     16  C   UNL     1       2.577   6.801   0.014  0.00  0.00    +0.047 A 
ATOM     17  C   UNL     1       3.406   7.054   1.099  0.00  0.00    +0.026 A 
ATOM     18  C   UNL     1       4.233   8.161   1.091  0.00  0.00    +0.002 A 
ATOM     19  C   UNL     1       4.227   9.023   0.009  0.00  0.00    +0.000 A 
ATOM     20  C   UNL     1       3.398   8.776  -1.070  0.00  0.00    +0.002 A 
ATOM     21  C   UNL     1       2.574   7.669  -1.071  0.00  0.00    +0.026 A 
ENDBRANCH   8  16
BRANCH   1  23
ATOM     22  N   UNL     1      -0.017   1.397   0.010  0.00  0.00    -0.189 NA
ATOM     23  C   UNL     1       1.100   2.062   0.003  0.00  0.00    +0.141 C 
BRANCH  22  24
ATOM     24  N   UNL     1       0.002  -0.004   0.002  0.00  0.00    -0.225 N 
ATOM     25  H   UNL     1       0.849  -0.478  -0.009  0.00  0.00    +0.176 HD
BRANCH  24  26
ATOM     26  C   UNL     1      -1.156  -0.694   0.009  0.00  0.00    +0.126 C 
ATOM     27  S   UNL     1      -1.133  -2.406   0.000  0.00  0.00    -0.027 S 
BRANCH  26  29
ATOM     28  C   UNL     1      -3.838  -1.236   0.032  0.00  0.00    +0.092 C 
ATOM     29  S   UNL     1      -2.693   0.166   0.029  0.00  0.00    -0.105 S 
ENDBRANCH  26  29
ENDBRANCH  24  26
ENDBRANCH  22  24
ENDBRANCH   1  23
TORSDOF 6
