REMARK  Name = ZINC33068896
REMARK  7 active torsions:
REMARK  status: ('A' for Active; 'I' for Inactive)
REMARK    1  A    between atoms: C_1  and  C_2
REMARK    2  A    between atoms: C_8  and  C_12
REMARK    3  A    between atoms: C_12  and  N_13
REMARK    4  A    between atoms: N_13  and  C_14
REMARK    5  A    between atoms: N_13  and  C_21
REMARK    6  A    between atoms: C_14  and  C_15
REMARK    7  A    between atoms: C_21  and  C_22
REMARK                            x       y       z     vdW  Elec       q    Type
REMARK                         _______ _______ _______ _____ _____    ______ ____
ROOT
ATOM      1  N   UNL     1       0.922  -6.694  -1.507  0.00  0.00    -0.288 NA
ENDROOT
BRANCH   1   2
ATOM      2  C   UNL     1       0.369  -6.868  -0.158  0.00  0.00    +0.138 C 
BRANCH   2  10
ATOM      3  C   UNL     1      -1.337   0.464   2.001  0.00  0.00    +0.053 C 
ATOM      4  C   UNL     1      -1.061  -0.961   1.592  0.00  0.00    +0.007 A 
ATOM      5  C   UNL     1      -1.909  -1.983   1.484  0.00  0.00    +0.107 A 
ATOM      6  N   UNL     1      -1.474  -3.227   1.092  0.00  0.00    -0.263 N 
ATOM      7  C   UNL     1      -2.238  -4.350   0.943  0.00  0.00    +0.259 A 
ATOM      8  O   UNL     1      -3.437  -4.307   1.166  0.00  0.00    -0.267 OA
ATOM      9  C   UNL     1      -1.645  -5.545   0.535  0.00  0.00    +0.093 A 
ATOM     10  C   UNL     1      -0.290  -5.586   0.284  0.00  0.00    +0.037 A 
ATOM     11  N   UNL     1       0.425  -4.475   0.438  0.00  0.00    -0.337 N 
ATOM     12  C   UNL     1      -0.138  -3.357   0.822  0.00  0.00    +0.158 A 
ATOM     13  S   UNL     1       0.487  -1.716   1.119  0.00  0.00    -0.056 S 
ATOM     14  H   UNL     1       1.379  -4.494   0.264  0.00  0.00    +0.168 HD
ENDBRANCH   2  10
ENDBRANCH   1   2
BRANCH   1  15
ATOM     15  C   UNL     1       2.198  -5.966  -1.464  0.00  0.00    +0.120 C 
BRANCH  15  16
ATOM     16  C   UNL     1       3.145  -6.667  -0.524  0.00  0.00    -0.033 A 
ATOM     17  C   UNL     1       3.187  -6.308   0.810  0.00  0.00    +0.005 A 
ATOM     18  C   UNL     1       4.056  -6.952   1.671  0.00  0.00    +0.000 A 
ATOM     19  C   UNL     1       4.882  -7.954   1.199  0.00  0.00    +0.000 A 
ATOM     20  C   UNL     1       4.839  -8.314  -0.136  0.00  0.00    +0.000 A 
ATOM     21  C   UNL     1       3.967  -7.673  -0.996  0.00  0.00    +0.005 A 
ENDBRANCH  15  16
ENDBRANCH   1  15
BRANCH   1  22
ATOM     22  C   UNL     1       1.079  -7.989  -2.183  0.00  0.00    +0.120 C 
BRANCH  22  23
ATOM     23  C   UNL     1       1.217  -7.768  -3.667  0.00  0.00    -0.033 A 
ATOM     24  C   UNL     1       0.089  -7.620  -4.452  0.00  0.00    +0.005 A 
ATOM     25  C   UNL     1       0.216  -7.417  -5.814  0.00  0.00    +0.000 A 
ATOM     26  C   UNL     1       1.471  -7.361  -6.390  0.00  0.00    +0.000 A 
ATOM     27  C   UNL     1       2.599  -7.508  -5.605  0.00  0.00    +0.000 A 
ATOM     28  C   UNL     1       2.472  -7.707  -4.243  0.00  0.00    +0.005 A 
ENDBRANCH  22  23
ENDBRANCH   1  22
TORSDOF 6
