REMARK  Name = ZINC60159650
REMARK  9 active torsions:
REMARK  status: ('A' for Active; 'I' for Inactive)
REMARK    1  A    between atoms: C_1  and  C_2
REMARK    2  A    between atoms: C_7  and  C_9
REMARK    3  A    between atoms: C_7  and  C_10
REMARK    4  A    between atoms: N_13  and  C_17
REMARK    5  A    between atoms: C_17  and  C_18
REMARK    6  A    between atoms: N_20  and  C_21
REMARK    7  A    between atoms: C_21  and  C_22
REMARK    8  A    between atoms: N_27  and  C_29
REMARK    9  A    between atoms: C_29  and  C_30
REMARK                            x       y       z     vdW  Elec       q    Type
REMARK                         _______ _______ _______ _____ _____    ______ ____
ROOT
ATOM      1  C   UNL     1      -4.972  -3.399  -2.310  0.00  0.00    +0.231 C 
ATOM      2  O   UNL     1      -4.651  -2.256  -2.558  0.00  0.00    -0.274 OA
ATOM      3  N   UNL     1      -6.127  -3.895  -2.795  0.00  0.00    -0.314 N 
ATOM      4  H   UNL     1      -6.383  -4.809  -2.596  0.00  0.00    +0.149 HD
ENDROOT
BRANCH   1   5
ATOM      5  C   UNL     1      -4.079  -4.264  -1.458  0.00  0.00    +0.213 C 
BRANCH   5  17
ATOM      6  C   UNL     1      -0.159   1.471  -0.048  0.00  0.00    +0.007 C 
ATOM      7  C   UNL     1      -0.085  -0.057  -0.027  0.00  0.00    -0.011 C 
ATOM      8  C   UNL     1      -1.501  -0.636   0.015  0.00  0.00    +0.038 C 
ATOM      9  C   UNL     1      -1.428  -2.159   0.057  0.00  0.00    +0.113 C 
ATOM     10  C   UNL     1      -0.642  -2.627   1.276  0.00  0.00    +0.041 C 
ATOM     11  C   UNL     1       0.772  -2.041   1.230  0.00  0.00    -0.032 C 
ATOM     12  C   UNL     1       0.688  -0.513   1.212  0.00  0.00    +0.009 C 
ATOM     13  C   UNL     1       1.553  -2.495   2.465  0.00  0.00    +0.011 C 
ATOM     14  C   UNL     1       1.485  -2.527  -0.033  0.00  0.00    +0.011 C 
ATOM     15  C   UNL     1      -2.817  -2.754   0.064  0.00  0.00    +0.247 C 
ATOM     16  O   UNL     1      -3.679  -2.595   0.901  0.00  0.00    -0.273 OA
ATOM     17  N   UNL     1      -2.895  -3.499  -1.058  0.00  0.00    -0.215 N 
ATOM     18  C   UNL     1      -1.756  -3.453  -1.761  0.00  0.00    +0.310 C 
ATOM     19  O   UNL     1      -1.585  -4.042  -2.810  0.00  0.00    -0.252 OA
ATOM     20  N   UNL     1      -0.823  -2.679  -1.176  0.00  0.00    -0.285 N 
ATOM     21  H   UNL     1       0.073  -2.500  -1.504  0.00  0.00    +0.151 HD
ENDBRANCH   5  17
ENDBRANCH   1   5
BRANCH   3  22
ATOM     22  C   UNL     1      -6.995  -3.054  -3.623  0.00  0.00    +0.106 C 
BRANCH  22  23
ATOM     23  C   UNL     1      -8.232  -3.853  -4.040  0.00  0.00    -0.011 C 
ATOM     24  C   UNL     1      -7.809  -5.012  -4.948  0.00  0.00    +0.001 C 
ATOM     25  C   UNL     1      -9.059  -5.757  -5.423  0.00  0.00    -0.018 C 
ATOM     26  C   UNL     1      -9.993  -4.775  -6.134  0.00  0.00    -0.078 C 
ATOM     27  N   UNL     1     -10.382  -3.706  -5.206  0.00  0.00    +0.383 N 
ATOM     28  C   UNL     1      -9.196  -2.941  -4.801  0.00  0.00    -0.073 C 
ATOM     29  H   UNL     1     -10.814  -4.111  -4.389  0.00  0.00    -0.081 HD
BRANCH  27  30
ATOM     30  C   UNL     1     -11.339  -2.809  -5.868  0.00  0.00    -0.043 C 
BRANCH  30  31
ATOM     31  C   UNL     1     -12.610  -3.562  -6.165  0.00  0.00    -0.064 A 
ATOM     32  C   UNL     1     -12.752  -4.232  -7.366  0.00  0.00    +0.002 A 
ATOM     33  C   UNL     1     -13.918  -4.922  -7.638  0.00  0.00    +0.000 A 
ATOM     34  C   UNL     1     -14.942  -4.944  -6.710  0.00  0.00    +0.000 A 
ATOM     35  C   UNL     1     -14.800  -4.275  -5.509  0.00  0.00    +0.000 A 
ATOM     36  C   UNL     1     -13.632  -3.588  -5.234  0.00  0.00    +0.002 A 
ENDBRANCH  30  31
ENDBRANCH  27  30
ENDBRANCH  22  23
ENDBRANCH   3  22
TORSDOF 6
