REMARK  Name = ZINC09739681
REMARK  5 active torsions:
REMARK  status: ('A' for Active; 'I' for Inactive)
REMARK    1  A    between atoms: N_9  and  C_28
REMARK    2  A    between atoms: C_10  and  C_12
REMARK    3  A    between atoms: C_12  and  N_54
REMARK    4  A    between atoms: C_16  and  C_19
REMARK    5  A    between atoms: C_28  and  C_29
REMARK                            x       y       z     vdW  Elec       q    Type
REMARK                         _______ _______ _______ _____ _____    ______ ____
ROOT
ATOM      1  C   UNL     1       4.777   6.353  -0.956  0.00  0.00    +0.001 A 
ATOM      2  C   UNL     1       5.103   6.413   0.393  0.00  0.00    +0.002 A 
ATOM      3  C   UNL     1       4.518   5.557   1.298  0.00  0.00    +0.028 A 
ATOM      4  C   UNL     1       3.584   4.617   0.857  0.00  0.00    +0.078 A 
ATOM      5  C   UNL     1       3.255   4.559  -0.515  0.00  0.00    +0.065 A 
ATOM      6  C   UNL     1       3.859   5.434  -1.415  0.00  0.00    +0.015 A 
ATOM      7  C   UNL     1       2.274   3.553  -0.948  0.00  0.00    +0.262 A 
ATOM      8  O   UNL     1       1.951   3.446  -2.116  0.00  0.00    -0.267 OA
ATOM      9  N   UNL     1       1.741   2.752   0.005  0.00  0.00    -0.289 N 
ATOM     10  C   UNL     1       2.117   2.879   1.304  0.00  0.00    +0.097 A 
ATOM     11  N   UNL     1       2.984   3.754   1.715  0.00  0.00    -0.235 NA
ENDROOT
BRANCH  10  12
ATOM     12  C   UNL     1       1.495   1.957   2.322  0.00  0.00    -0.003 C 
BRANCH  12  18
ATOM     13  C   UNL     1       1.394   1.479   4.692  0.00  0.00    -0.078 C 
ATOM     14  C   UNL     1       2.003   1.835   6.051  0.00  0.00    -0.018 C 
ATOM     15  C   UNL     1       3.474   1.409   6.072  0.00  0.00    +0.006 C 
ATOM     16  C   UNL     1       4.214   2.100   4.923  0.00  0.00    +0.028 C 
ATOM     17  C   UNL     1       3.540   1.736   3.598  0.00  0.00    -0.068 C 
ATOM     18  N   UNL     1       2.135   2.194   3.632  0.00  0.00    +0.385 N 
ATOM     19  H   UNL     1       2.118   3.201   3.834  0.00  0.00    -0.081 HD
BRANCH  16  20
ATOM     20  C   UNL     1       5.649   1.641   4.900  0.00  0.00    +0.081 A 
ATOM     21  N   UNL     1       6.109   0.430   4.760  0.00  0.00    -0.244 NA
ATOM     22  C   UNL     1       7.429   0.152   4.752  0.00  0.00    +0.078 A 
ATOM     23  C   UNL     1       8.076  -1.095   4.605  0.00  0.00    +0.029 A 
ATOM     24  C   UNL     1       9.433  -1.181   4.630  0.00  0.00    +0.002 A 
ATOM     25  C   UNL     1      10.231  -0.057   4.798  0.00  0.00    +0.001 A 
ATOM     26  C   UNL     1       9.636   1.182   4.944  0.00  0.00    +0.017 A 
ATOM     27  C   UNL     1       8.266   1.279   4.921  0.00  0.00    +0.039 A 
ATOM     28  S   UNL     1       7.088   2.599   5.063  0.00  0.00    -0.072 S 
ENDBRANCH  16  20
ENDBRANCH  12  18
ENDBRANCH  10  12
BRANCH   9  29
ATOM     29  C   UNL     1       0.755   1.736  -0.369  0.00  0.00    +0.221 C 
BRANCH  29  30
ATOM     30  C   UNL     1      -0.630   2.325  -0.287  0.00  0.00    +0.230 C 
ATOM     31  O   UNL     1      -0.778   3.481   0.051  0.00  0.00    -0.274 OA
ATOM     32  N   UNL     1      -1.703   1.569  -0.589  0.00  0.00    -0.328 N 
ATOM     33  H   UNL     1      -1.585   0.645  -0.860  0.00  0.00    +0.145 HD
ATOM     34  H   UNL     1      -2.595   1.948  -0.536  0.00  0.00    +0.145 HD
ENDBRANCH  29  30
ENDBRANCH   9  29
TORSDOF 5
