REMARK  Name = ZINC39530017
REMARK  5 active torsions:
REMARK  status: ('A' for Active; 'I' for Inactive)
REMARK    1  A    between atoms: C_1  and  O_2
REMARK    2  A    between atoms: O_2  and  C_3
REMARK    3  A    between atoms: N_6  and  C_10
REMARK    4  A    between atoms: C_15  and  C_16
REMARK    5  A    between atoms: C_21  and  O_22
REMARK                            x       y       z     vdW  Elec       q    Type
REMARK                         _______ _______ _______ _____ _____    ______ ____
ROOT
ATOM      1  C   UNL     1       0.481  -3.405  -3.333  0.00  0.00    +0.038 A 
ATOM      2  C   UNL     1       0.031  -2.787  -4.490  0.00  0.00    +0.026 A 
ATOM      3  C   UNL     1      -0.573  -3.533  -5.484  0.00  0.00    +0.040 A 
ATOM      4  C   UNL     1      -0.734  -4.901  -5.331  0.00  0.00    +0.124 A 
ATOM      5  C   UNL     1      -0.290  -5.530  -4.183  0.00  0.00    +0.048 A 
ATOM      6  C   UNL     1       0.326  -4.788  -3.178  0.00  0.00    +0.009 A 
ATOM      7  F   UNL     1      -1.327  -5.623  -6.307  0.00  0.00    -0.205 F 
ENDROOT
BRANCH   1  10
ATOM      8  C   UNL     1       0.652  -0.570  -1.138  0.00  0.00    +0.203 C 
ATOM      9  C   UNL     1       0.298  -2.058  -1.242  0.00  0.00    +0.152 C 
ATOM     10  N   UNL     1       1.092  -2.652  -2.328  0.00  0.00    -0.324 N 
ATOM     11  C   UNL     1       2.546  -2.432  -2.328  0.00  0.00    +0.120 C 
ATOM     12  C   UNL     1       2.811  -0.930  -2.181  0.00  0.00    +0.102 C 
ATOM     13  N   UNL     1       2.107  -0.424  -0.996  0.00  0.00    -0.289 NA
ATOM     14  H   UNL     1       2.357   0.535  -0.807  0.00  0.00    +0.124 HD
BRANCH   8  16
ATOM     15  C   UNL     1      -0.017   1.425   0.010  0.00  0.00    +0.196 C 
ATOM     16  O   UNL     1       0.002  -0.004   0.002  0.00  0.00    -0.363 OA
ENDBRANCH   8  16
ENDBRANCH   1  10
BRANCH   6  17
ATOM     17  C   UNL     1       0.809  -5.458  -1.947  0.00  0.00    +0.025 A 
ATOM     18  C   UNL     1       1.852  -6.380  -2.015  0.00  0.00    +0.012 A 
ATOM     19  C   UNL     1       2.298  -7.001  -0.867  0.00  0.00    +0.001 A 
ATOM     20  C   UNL     1       1.714  -6.712   0.354  0.00  0.00    +0.004 A 
ATOM     21  C   UNL     1       0.679  -5.799   0.433  0.00  0.00    +0.046 A 
ATOM     22  C   UNL     1       0.225  -5.164  -0.711  0.00  0.00    +0.125 A 
BRANCH  22  23
ATOM     23  O   UNL     1      -0.789  -4.262  -0.634  0.00  0.00    -0.506 OA
ATOM     24  H   UNL     1      -1.669  -4.650  -0.734  0.00  0.00    +0.292 HD
ENDBRANCH  22  23
ENDBRANCH   6  17
TORSDOF 4
