REMARK  Name = ZINC13113411
REMARK  11 active torsions:
REMARK  status: ('A' for Active; 'I' for Inactive)
REMARK    1  A    between atoms: C_1  and  C_2
REMARK    2  A    between atoms: C_2  and  O_3
REMARK    3  A    between atoms: O_3  and  C_4
REMARK    4  A    between atoms: C_4  and  C_6
REMARK    5  A    between atoms: C_7  and  C_29
REMARK    6  A    between atoms: C_8  and  N_13
REMARK    7  A    between atoms: C_11  and  C_12
REMARK    8  A    between atoms: C_14  and  C_16
REMARK    9  A    between atoms: C_18  and  C_27
REMARK   10  A    between atoms: C_18  and  C_28
REMARK   11  A    between atoms: N_25  and  C_26
REMARK                            x       y       z     vdW  Elec       q    Type
REMARK                         _______ _______ _______ _____ _____    ______ ____
ROOT
ATOM      1  N   UNL     1       3.947  -2.030  -2.146  0.00  0.00    -0.268 N 
ATOM      2  C   UNL     1       2.789  -1.701  -1.539  0.00  0.00    +0.244 C 
ATOM      3  O   UNL     1       2.310  -2.441  -0.699  0.00  0.00    -0.270 OA
ATOM      4  H   UNL     1       4.329  -1.441  -2.815  0.00  0.00    +0.156 HD
ENDROOT
BRANCH   2   5
ATOM      5  C   UNL     1       2.131  -0.496  -1.878  0.00  0.00    +0.087 C 
ATOM      6  C   UNL     1       0.896  -0.243  -1.398  0.00  0.00    +0.026 C 
ATOM      7  C   UNL     1       0.300   1.119  -1.112  0.00  0.00    +0.030 C 
ATOM      8  C   UNL     1      -1.087   0.815  -0.596  0.00  0.00    -0.015 A 
ATOM      9  C   UNL     1      -2.119   1.621  -0.168  0.00  0.00    +0.006 A 
ATOM     10  C   UNL     1      -3.307   1.054   0.260  0.00  0.00    +0.000 A 
ATOM     11  C   UNL     1      -3.453  -0.321   0.256  0.00  0.00    +0.002 A 
ATOM     12  C   UNL     1      -2.423  -1.131  -0.173  0.00  0.00    +0.024 A 
ATOM     13  C   UNL     1      -1.223  -0.567  -0.605  0.00  0.00    +0.038 A 
ATOM     14  N   UNL     1      -0.056  -1.167  -1.076  0.00  0.00    -0.305 N 
ATOM     15  C   UNL     1       0.128  -2.614  -1.208  0.00  0.00    +0.135 C 
ATOM     16  C   UNL     1       1.120   1.848  -0.045  0.00  0.00    +0.022 C 
ATOM     17  C   UNL     1       0.226   1.950  -2.394  0.00  0.00    +0.022 C 
ENDBRANCH   2   5
BRANCH   1  20
ATOM     18  C   UNL     1       6.054  -4.942  -1.695  0.00  0.00    +0.084 A 
ATOM     19  C   UNL     1       5.755  -3.663  -2.349  0.00  0.00    +0.003 A 
ATOM     20  C   UNL     1       4.597  -3.220  -1.811  0.00  0.00    +0.107 A 
ATOM     21  N   UNL     1       4.163  -4.131  -0.889  0.00  0.00    -0.346 N 
ATOM     22  H   UNL     1       3.352  -4.047  -0.365  0.00  0.00    +0.167 HD
ATOM     23  C   UNL     1       5.032  -5.168  -0.814  0.00  0.00    +0.029 A 
ATOM     24  C   UNL     1       4.897  -6.367   0.089  0.00  0.00    +0.064 C 
ATOM     25  C   UNL     1       6.579  -2.977  -3.409  0.00  0.00    +0.048 C 
BRANCH  18  26
ATOM     26  C   UNL     1       7.215  -5.810  -1.942  0.00  0.00    +0.341 C 
ATOM     27  O   UNL     1       7.159  -6.673  -2.796  0.00  0.00    -0.245 OA
BRANCH  26  28
ATOM     28  O   UNL     1       8.343  -5.648  -1.221  0.00  0.00    -0.461 OA
BRANCH  28  30
ATOM     29  C   UNL     1      10.632  -6.207  -0.607  0.00  0.00    +0.048 C 
ATOM     30  C   UNL     1       9.449  -6.540  -1.519  0.00  0.00    +0.229 C 
ENDBRANCH  28  30
ENDBRANCH  26  28
ENDBRANCH  18  26
ENDBRANCH   1  20
TORSDOF 5
