REMARK  Name = ZINC39639179
REMARK  15 active torsions:
REMARK  status: ('A' for Active; 'I' for Inactive)
REMARK    1  A    between atoms: C_1  and  C_2
REMARK    2  A    between atoms: C_2  and  C_3
REMARK    3  A    between atoms: C_2  and  C_4
REMARK    4  A    between atoms: C_4  and  C_6
REMARK    5  A    between atoms: C_4  and  O_35
REMARK    6  A    between atoms: C_10  and  C_19
REMARK    7  A    between atoms: N_21  and  C_22
REMARK    8  A    between atoms: C_22  and  C_23
REMARK    9  A    between atoms: C_24  and  O_33
REMARK   10  A    between atoms: C_26  and  O_31
REMARK   11  A    between atoms: C_28  and  O_29
REMARK   12  A    between atoms: O_29  and  C_30
REMARK   13  A    between atoms: O_31  and  C_32
REMARK   14  A    between atoms: O_33  and  C_34
REMARK   15  A    between atoms: O_35  and  C_36
REMARK                            x       y       z     vdW  Elec       q    Type
REMARK                         _______ _______ _______ _____ _____    ______ ____
ROOT
ATOM      1  C   UNL     1      -1.918  -2.199   0.898  0.00  0.00    +0.257 C 
ATOM      2  O   UNL     1      -1.950  -1.123   1.456  0.00  0.00    -0.272 OA
ATOM      3  N   UNL     1      -1.019  -2.423  -0.081  0.00  0.00    -0.297 N 
ATOM      4  C   UNL     1       0.073  -1.529  -0.534  0.00  0.00    +0.121 C 
ATOM      5  C   UNL     1       1.262  -2.475  -0.813  0.00  0.00    +0.100 C 
ATOM      6  C   UNL     1       0.618  -3.845  -1.085  0.00  0.00    -0.004 C 
ATOM      7  C   UNL     1      -0.894  -3.623  -0.943  0.00  0.00    +0.115 C 
ATOM      8  C   UNL     1       1.094  -4.867  -0.056  0.00  0.00    -0.010 C 
ATOM      9  C   UNL     1       0.485  -6.233  -0.381  0.00  0.00    -0.082 C 
ATOM     10  N   UNL     1       0.891  -6.643  -1.731  0.00  0.00    +0.379 N 
ATOM     11  C   UNL     1       0.351  -5.705  -2.723  0.00  0.00    -0.082 C 
ATOM     12  C   UNL     1       0.954  -4.316  -2.497  0.00  0.00    -0.010 C 
ATOM     13  H   UNL     1       1.898  -6.650  -1.790  0.00  0.00    -0.086 HD
ATOM     14  H   UNL     1       0.539  -7.570  -1.920  0.00  0.00    -0.086 HD
ENDROOT
BRANCH   5  15
ATOM     15  C   UNL     1       2.168  -2.548   0.390  0.00  0.00    +0.218 C 
ATOM     16  O   UNL     1       1.705  -2.433   1.505  0.00  0.00    -0.275 OA
ATOM     17  N   UNL     1       3.491  -2.742   0.226  0.00  0.00    -0.311 N 
ATOM     18  H   UNL     1       3.872  -2.764  -0.666  0.00  0.00    +0.149 HD
BRANCH  17  19
ATOM     19  C   UNL     1       4.356  -2.921   1.395  0.00  0.00    +0.147 C 
BRANCH  19  20
ATOM     20  C   UNL     1       5.793  -3.000   0.950  0.00  0.00    +0.053 A 
ATOM     21  C   UNL     1       6.327  -4.213   0.540  0.00  0.00    +0.132 A 
ATOM     22  C   UNL     1       7.649  -4.286   0.130  0.00  0.00    +0.091 A 
ATOM     23  C   UNL     1       8.439  -3.146   0.129  0.00  0.00    +0.127 A 
ATOM     24  C   UNL     1       7.905  -1.933   0.538  0.00  0.00    +0.091 A 
ATOM     25  C   UNL     1       6.581  -1.859   0.944  0.00  0.00    +0.132 A 
BRANCH  25  26
ATOM     26  O   UNL     1       6.057  -0.669   1.339  0.00  0.00    -0.495 OA
ATOM     27  C   UNL     1       6.891   0.483   1.207  0.00  0.00    +0.277 C 
ENDBRANCH  25  26
BRANCH  23  28
ATOM     28  O   UNL     1       9.735  -3.217  -0.272  0.00  0.00    -0.495 OA
ATOM     29  C   UNL     1      10.490  -2.004  -0.247  0.00  0.00    +0.277 C 
ENDBRANCH  23  28
BRANCH  21  30
ATOM     30  O   UNL     1       5.553  -5.330   0.541  0.00  0.00    -0.495 OA
ATOM     31  C   UNL     1       6.168  -6.545   0.107  0.00  0.00    +0.277 C 
ENDBRANCH  21  30
ENDBRANCH  19  20
ENDBRANCH  17  19
ENDBRANCH   5  15
BRANCH   1  32
ATOM     32  C   UNL     1      -2.883  -3.284   1.298  0.00  0.00    +0.261 C 
BRANCH  32  34
ATOM     33  C   UNL     1      -4.743  -4.747   0.496  0.00  0.00    +0.011 C 
ATOM     34  C   UNL     1      -3.861  -3.546   0.150  0.00  0.00    +0.033 C 
ATOM     35  C   UNL     1      -4.740  -2.312  -0.062  0.00  0.00    +0.011 C 
ENDBRANCH  32  34
BRANCH  32  36
ATOM     36  O   UNL     1      -3.609  -2.873   2.458  0.00  0.00    -0.479 OA
BRANCH  36  37
ATOM     37  C   UNL     1      -3.866  -3.823   3.395  0.00  0.00    +0.122 A 
ATOM     38  C   UNL     1      -3.473  -5.136   3.178  0.00  0.00    +0.045 A 
ATOM     39  C   UNL     1      -3.734  -6.100   4.132  0.00  0.00    +0.004 A 
ATOM     40  C   UNL     1      -4.388  -5.758   5.302  0.00  0.00    +0.000 A 
ATOM     41  C   UNL     1      -4.780  -4.450   5.520  0.00  0.00    +0.004 A 
ATOM     42  C   UNL     1      -4.516  -3.481   4.572  0.00  0.00    +0.045 A 
ENDBRANCH  36  37
ENDBRANCH  32  36
ENDBRANCH   1  32
TORSDOF 10
