REMARK  Name = ZINC23374686
REMARK  3 active torsions:
REMARK  status: ('A' for Active; 'I' for Inactive)
REMARK    1  A    between atoms: C_6  and  C_7
REMARK    2  A    between atoms: C_7  and  S_8
REMARK    3  A    between atoms: S_8  and  C_9
REMARK                            x       y       z     vdW  Elec       q    Type
REMARK                         _______ _______ _______ _____ _____    ______ ____
ROOT
ATOM      1  S   UNL     1      -0.022   1.806   0.012  0.00  0.00    -0.100 S 
ENDROOT
BRANCH   1   2
ATOM      2  C   UNL     1       1.708   2.135  -0.003  0.00  0.00    +0.109 A 
ATOM      3  C   UNL     1       2.187   3.475  -0.000  0.00  0.00    +0.039 A 
ATOM      4  C   UNL     1       1.447   4.725   0.013  0.00  0.00    +0.020 A 
ATOM      5  C   UNL     1       2.121   5.885   0.013  0.00  0.00    +0.048 A 
ATOM      6  S   UNL     1       3.829   5.374  -0.006  0.00  0.00    -0.077 S 
ATOM      7  C   UNL     1       3.591   3.617  -0.013  0.00  0.00    +0.112 A 
ATOM      8  N   UNL     1       4.388   2.566  -0.026  0.00  0.00    -0.228 NA
ATOM      9  C   UNL     1       3.885   1.347  -0.028  0.00  0.00    +0.223 A 
ATOM     10  N   UNL     1       2.580   1.139  -0.011  0.00  0.00    -0.229 NA
ENDBRANCH   1   2
BRANCH   1  11
ATOM     11  C   UNL     1       0.002  -0.004   0.002  0.00  0.00    +0.112 C 
BRANCH  11  17
ATOM     12  C   UNL     1      -2.082  -0.762  -1.178  0.00  0.00    +0.009 A 
ATOM     13  C   UNL     1      -3.381  -1.242  -1.121  0.00  0.00    +0.040 A 
ATOM     14  C   UNL     1      -3.962  -1.468   0.114  0.00  0.00    +0.129 A 
ATOM     15  N   UNL     1      -3.293  -1.232   1.228  0.00  0.00    -0.243 NA
ATOM     16  C   UNL     1      -2.054  -0.780   1.209  0.00  0.00    +0.116 A 
ATOM     17  C   UNL     1      -1.412  -0.526   0.013  0.00  0.00    -0.019 A 
ATOM     18 CL   UNL     1      -5.588  -2.070   0.201  0.00  0.00    -0.062 Cl
ENDBRANCH  11  17
ENDBRANCH   1  11
TORSDOF 3
