REMARK  Name = ZINC49007275
REMARK  5 active torsions:
REMARK  status: ('A' for Active; 'I' for Inactive)
REMARK    1  A    between atoms: C_1  and  C_2
REMARK    2  A    between atoms: C_5  and  S_8
REMARK    3  A    between atoms: S_8  and  C_11
REMARK    4  A    between atoms: C_16  and  N_17
REMARK    5  A    between atoms: N_21  and  C_24
REMARK                            x       y       z     vdW  Elec       q    Type
REMARK                         _______ _______ _______ _____ _____    ______ ____
ROOT
ATOM      1  C   UNL     1       1.848  -4.809  -0.070  0.00  0.00    +0.151 A 
ATOM      2  C   UNL     1       2.444  -5.596   0.897  0.00  0.00    +0.145 A 
ATOM      3  N   UNL     1       3.611  -6.168   0.638  0.00  0.00    -0.221 NA
ATOM      4  C   UNL     1       4.209  -5.995  -0.531  0.00  0.00    +0.219 A 
ATOM      5  N   UNL     1       3.672  -5.249  -1.484  0.00  0.00    -0.198 NA
ATOM      6  C   UNL     1       2.500  -4.650  -1.294  0.00  0.00    +0.147 A 
ATOM      7  N   UNL     1       5.427  -6.610  -0.763  0.00  0.00    -0.303 N 
ATOM      8  C   UNL     1       6.129  -6.440  -2.044  0.00  0.00    +0.089 C 
ATOM      9  C   UNL     1       7.577  -6.030  -1.755  0.00  0.00    -0.059 C 
ATOM     10  N   UNL     1       8.192  -7.012  -0.853  0.00  0.00    +0.384 N 
ATOM     11  C   UNL     1       7.508  -6.995   0.447  0.00  0.00    -0.059 C 
ATOM     12  C   UNL     1       6.060  -7.448   0.268  0.00  0.00    +0.089 C 
ATOM     13  H   UNL     1       8.116  -7.933  -1.259  0.00  0.00    -0.081 HD
ENDROOT
BRANCH  10  14
ATOM     14  C   UNL     1       9.610  -6.680  -0.663  0.00  0.00    -0.068 C 
ATOM     15  C   UNL     1      10.326  -6.709  -2.015  0.00  0.00    -0.015 C 
ATOM     16  C   UNL     1      11.803  -6.363  -1.817  0.00  0.00    -0.002 C 
ATOM     17  C   UNL     1      12.445  -7.386  -0.878  0.00  0.00    -0.000 C 
ATOM     18  C   UNL     1      11.729  -7.356   0.474  0.00  0.00    -0.002 C 
ATOM     19  C   UNL     1      10.252  -7.703   0.276  0.00  0.00    -0.015 C 
ENDBRANCH  10  14
BRANCH   1  20
ATOM     20  S   UNL     1       0.297  -4.030   0.233  0.00  0.00    +0.030 S 
ATOM     21  O   UNL     1      -0.076  -4.370   1.562  0.00  0.00    -0.164 OA
ATOM     22  O   UNL     1      -0.528  -4.319  -0.887  0.00  0.00    -0.164 OA
BRANCH  20  27
ATOM     23  C   UNL     1       1.248   1.928   0.181  0.00  0.00    +0.044 C 
ATOM     24  C   UNL     1       1.010   0.440   0.194  0.00  0.00    -0.050 A 
ATOM     25  C   UNL     1       0.581  -0.202  -0.953  0.00  0.00    +0.005 A 
ATOM     26  C   UNL     1       0.363  -1.567  -0.941  0.00  0.00    +0.027 A 
ATOM     27  C   UNL     1       0.575  -2.291   0.218  0.00  0.00    +0.094 A 
ATOM     28  C   UNL     1       1.006  -1.649   1.364  0.00  0.00    +0.027 A 
ATOM     29  C   UNL     1       1.228  -0.285   1.351  0.00  0.00    +0.005 A 
ENDBRANCH  20  27
ENDBRANCH   1  20
BRANCH   6  30
ATOM     30  N   UNL     1       1.937  -3.874  -2.294  0.00  0.00    -0.341 N 
ATOM     31  H   UNL     1       1.037  -3.529  -2.192  0.00  0.00    +0.144 HD
ATOM     32  H   UNL     1       2.444  -3.676  -3.097  0.00  0.00    +0.144 HD
ENDBRANCH   6  30
TORSDOF 4
