REMARK  Name = ZINC36145484
REMARK  10 active torsions:
REMARK  status: ('A' for Active; 'I' for Inactive)
REMARK    1  A    between atoms: C_4  and  C_7
REMARK    2  A    between atoms: C_7  and  C_8
REMARK    3  A    between atoms: C_7  and  C_14
REMARK    4  A    between atoms: C_7  and  O_37
REMARK    5  A    between atoms: C_17  and  C_19
REMARK    6  A    between atoms: C_19  and  N_20
REMARK    7  A    between atoms: N_20  and  C_21
REMARK    8  A    between atoms: N_20  and  C_31
REMARK    9  A    between atoms: C_21  and  C_22
REMARK   10  A    between atoms: C_31  and  C_32
REMARK                            x       y       z     vdW  Elec       q    Type
REMARK                         _______ _______ _______ _____ _____    ______ ____
ROOT
ATOM      1  C   UNL     1       5.120  -1.474  -0.721  0.00  0.00    +0.146 A 
ATOM      2  C   UNL     1       6.438  -1.450  -0.991  0.00  0.00    +0.048 A 
ATOM      3  C   UNL     1       6.566  -1.380  -2.397  0.00  0.00    +0.043 A 
ATOM      4  C   UNL     1       5.319  -1.365  -2.902  0.00  0.00    +0.089 A 
ATOM      5  O   UNL     1       4.448  -1.428  -1.883  0.00  0.00    -0.463 OA
ENDROOT
BRANCH   1   6
ATOM      6  C   UNL     1       4.503  -1.546   0.652  0.00  0.00    +0.174 C 
BRANCH   6  10
ATOM      7  C   UNL     1       0.713   0.423   0.617  0.00  0.00    +0.000 A 
ATOM      8  C   UNL     1       0.927  -0.677  -0.192  0.00  0.00    +0.000 A 
ATOM      9  C   UNL     1       2.154  -1.314  -0.181  0.00  0.00    +0.007 A 
ATOM     10  C   UNL     1       3.166  -0.851   0.639  0.00  0.00    -0.004 A 
ATOM     11  C   UNL     1       2.951   0.250   1.448  0.00  0.00    +0.007 A 
ATOM     12  C   UNL     1       1.724   0.886   1.438  0.00  0.00    +0.000 A 
ENDBRANCH   6  10
BRANCH   6  13
ATOM     13  C   UNL     1       4.315  -2.989   1.044  0.00  0.00    -0.004 A 
ATOM     14  C   UNL     1       3.877  -3.907   0.108  0.00  0.00    +0.007 A 
ATOM     15  C   UNL     1       3.705  -5.231   0.467  0.00  0.00    +0.000 A 
ATOM     16  C   UNL     1       3.971  -5.637   1.761  0.00  0.00    +0.000 A 
ATOM     17  C   UNL     1       4.410  -4.718   2.696  0.00  0.00    +0.000 A 
ATOM     18  C   UNL     1       4.586  -3.395   2.337  0.00  0.00    +0.007 A 
ENDBRANCH   6  13
BRANCH   6  19
ATOM     19  O   UNL     1       5.364  -0.905   1.595  0.00  0.00    -0.372 OA
ATOM     20  H   UNL     1       5.530   0.029   1.406  0.00  0.00    +0.212 HD
ENDBRANCH   6  19
ENDBRANCH   1   6
BRANCH   4  21
ATOM     21  C   UNL     1       4.962  -1.296  -4.364  0.00  0.00    -0.002 C 
BRANCH  21  22
ATOM     22  N   UNL     1       4.857  -2.657  -4.908  0.00  0.00    +0.392 N 
ATOM     23  H   UNL     1       5.713  -3.158  -4.727  0.00  0.00    -0.080 HD
BRANCH  22  24
ATOM     24  C   UNL     1       4.627  -2.589  -6.357  0.00  0.00    -0.042 C 
BRANCH  24  25
ATOM     25  C   UNL     1       5.835  -1.990  -7.030  0.00  0.00    -0.060 A 
ATOM     26  C   UNL     1       5.874  -0.633  -7.296  0.00  0.00    +0.005 A 
ATOM     27  C   UNL     1       6.980  -0.079  -7.913  0.00  0.00    +0.050 A 
ATOM     28  C   UNL     1       8.052  -0.882  -8.267  0.00  0.00    +0.166 A 
ATOM     29  C   UNL     1       8.012  -2.248  -7.999  0.00  0.00    +0.166 A 
ATOM     30  C   UNL     1       6.903  -2.796  -7.375  0.00  0.00    +0.051 A 
ATOM     31  O   UNL     1       9.175  -2.813  -8.438  0.00  0.00    -0.453 OA
ATOM     32  C   UNL     1       9.751  -1.853  -9.343  0.00  0.00    +0.466 C 
ATOM     33  O   UNL     1       9.240  -0.591  -8.874  0.00  0.00    -0.453 OA
ENDBRANCH  24  25
ENDBRANCH  22  24
BRANCH  22  34
ATOM     34  C   UNL     1       3.735  -3.355  -4.266  0.00  0.00    -0.002 C 
BRANCH  34  35
ATOM     35  C   UNL     1       3.725  -4.797  -4.705  0.00  0.00    +0.089 A 
ATOM     36  C   UNL     1       4.349  -5.813  -4.082  0.00  0.00    +0.042 A 
ATOM     37  C   UNL     1       4.074  -6.982  -4.829  0.00  0.00    +0.041 A 
ATOM     38  C   UNL     1       3.299  -6.610  -5.863  0.00  0.00    +0.195 A 
ATOM     39  O   UNL     1       3.086  -5.287  -5.780  0.00  0.00    -0.470 OA
ENDBRANCH  34  35
ENDBRANCH  22  34
ENDBRANCH  21  22
ENDBRANCH   4  21
TORSDOF 10
