REMARK  Name = ZINC09884434
REMARK  12 active torsions:
REMARK  status: ('A' for Active; 'I' for Inactive)
REMARK    1  A    between atoms: C_1  and  C_2
REMARK    2  A    between atoms: C_2  and  C_3
REMARK    3  A    between atoms: C_3  and  C_4
REMARK    4  A    between atoms: C_4  and  N_5
REMARK    5  A    between atoms: N_5  and  C_6
REMARK    6  A    between atoms: C_7  and  N_18
REMARK    7  A    between atoms: N_8  and  C_15
REMARK    8  A    between atoms: C_15  and  C_16
REMARK    9  A    between atoms: C_16  and  C_17
REMARK   10  A    between atoms: C_19  and  C_21
REMARK   11  A    between atoms: C_21  and  S_22
REMARK   12  A    between atoms: S_22  and  C_23
REMARK                            x       y       z     vdW  Elec       q    Type
REMARK                         _______ _______ _______ _____ _____    ______ ____
ROOT
ATOM      1  N   UNL     1       0.047  -2.816   2.371  0.00  0.00    -0.264 N 
ATOM      2  C   UNL     1      -0.063  -2.180   3.556  0.00  0.00    +0.230 C 
ATOM      3  O   UNL     1      -0.077  -0.967   3.594  0.00  0.00    -0.274 OA
ENDROOT
BRANCH   1   4
ATOM      4  C   UNL     1       0.038  -2.077   1.170  0.00  0.00    +0.140 A 
ATOM      5  C   UNL     1      -1.004  -2.204   0.274  0.00  0.00    +0.127 A 
ATOM      6  N   UNL     1      -0.984  -1.471  -0.889  0.00  0.00    -0.280 N 
ATOM      7  C   UNL     1       0.042  -0.642  -1.153  0.00  0.00    +0.331 A 
ATOM      8  O   UNL     1       0.044  -0.006  -2.190  0.00  0.00    -0.246 OA
ATOM      9  N   UNL     1       1.064  -0.501  -0.290  0.00  0.00    -0.273 N 
ATOM     10  H   UNL     1       1.811   0.128  -0.507  0.00  0.00    +0.173 HD
ATOM     11  C   UNL     1       1.093  -1.196   0.863  0.00  0.00    +0.277 A 
ATOM     12  O   UNL     1       2.026  -1.064   1.637  0.00  0.00    -0.266 OA
BRANCH   5  13
ATOM     13  N   UNL     1      -2.050  -3.055   0.542  0.00  0.00    -0.343 N 
ATOM     14  H   UNL     1      -2.815  -3.086  -0.054  0.00  0.00    +0.144 HD
ATOM     15  H   UNL     1      -2.024  -3.624   1.327  0.00  0.00    +0.144 HD
ENDBRANCH   5  13
BRANCH   6  16
ATOM     16  C   UNL     1      -2.084  -1.596  -1.848  0.00  0.00    +0.128 C 
BRANCH  16  17
ATOM     17  C   UNL     1      -3.169  -0.569  -1.518  0.00  0.00    +0.018 C 
ATOM     18  C   UNL     1      -4.318  -0.700  -2.520  0.00  0.00    +0.005 C 
ENDBRANCH  16  17
ENDBRANCH   6  16
ENDBRANCH   1   4
BRANCH   1  19
ATOM     19  C   UNL     1       0.175  -4.275   2.333  0.00  0.00    +0.114 C 
BRANCH  19  20
ATOM     20  C   UNL     1       1.645  -4.663   2.505  0.00  0.00    +0.019 C 
BRANCH  20  22
ATOM     21  C   UNL     1       3.249  -6.574   2.637  0.00  0.00    +0.004 C 
ATOM     22  C   UNL     1       1.779  -6.186   2.465  0.00  0.00    -0.002 C 
ENDBRANCH  20  22
ENDBRANCH  19  20
ENDBRANCH   1  19
BRANCH   2  23
ATOM     23  C   UNL     1      -0.168  -2.975   4.832  0.00  0.00    +0.172 C 
BRANCH  23  24
ATOM     24  S   UNL     1      -0.302  -1.844   6.238  0.00  0.00    -0.096 S 
BRANCH  24  25
ATOM     25  C   UNL     1      -0.407  -3.007   7.558  0.00  0.00    +0.109 A 
ATOM     26  C   UNL     1      -0.530  -2.564   8.904  0.00  0.00    +0.043 A 
ATOM     27  C   UNL     1      -0.585  -1.183   9.411  0.00  0.00    -0.025 A 
ATOM     28  C   UNL     1      -0.705  -1.029  10.739  0.00  0.00    -0.004 A 
ATOM     29  S   UNL     1      -0.749  -2.682  11.395  0.00  0.00    -0.073 S 
ATOM     30  C   UNL     1      -0.607  -3.579   9.874  0.00  0.00    +0.113 A 
ATOM     31  N   UNL     1      -0.566  -4.856   9.541  0.00  0.00    -0.228 NA
ATOM     32  C   UNL     1      -0.451  -5.208   8.275  0.00  0.00    +0.223 A 
ATOM     33  N   UNL     1      -0.380  -4.308   7.311  0.00  0.00    -0.229 NA
ATOM     34  C   UNL     1      -0.756   0.421  11.142  0.00  0.00    +0.043 C 
ATOM     35  C   UNL     1      -1.084   1.174   9.834  0.00  0.00    +0.010 C 
ATOM     36  C   UNL     1      -0.534   0.206   8.768  0.00  0.00    +0.037 C 
ENDBRANCH  24  25
ENDBRANCH  23  24
ENDBRANCH   2  23
TORSDOF 10
