REMARK  Name = ZINC44173612
REMARK  8 active torsions:
REMARK  status: ('A' for Active; 'I' for Inactive)
REMARK    1  A    between atoms: C_1  and  O_2
REMARK    2  A    between atoms: O_2  and  C_3
REMARK    3  A    between atoms: C_5  and  C_10
REMARK    4  A    between atoms: C_8  and  O_9
REMARK    5  A    between atoms: C_11  and  C_12
REMARK    6  A    between atoms: N_20  and  C_23
REMARK    7  A    between atoms: C_29  and  C_31
REMARK    8  A    between atoms: C_29  and  C_37
REMARK                            x       y       z     vdW  Elec       q    Type
REMARK                         _______ _______ _______ _____ _____    ______ ____
ROOT
ATOM      1  C   UNL     1       3.665   0.498  -6.370  0.00  0.00    -0.034 C 
ATOM      2  C   UNL     1       5.111   0.037  -6.520  0.00  0.00    +0.077 C 
ATOM      3  C   UNL     1       5.686   0.781  -5.256  0.00  0.00    +0.090 C 
ATOM      4  C   UNL     1       6.940   0.097  -5.051  0.00  0.00    +0.225 C 
ATOM      5  O   UNL     1       7.976   0.564  -4.628  0.00  0.00    -0.275 OA
ATOM      6  N   UNL     1       6.704  -1.199  -5.437  0.00  0.00    -0.239 N 
ATOM      7  C   UNL     1       5.523  -1.349  -6.135  0.00  0.00    +0.225 C 
ATOM      8  O   UNL     1       4.935  -2.379  -6.382  0.00  0.00    -0.275 OA
ATOM      9  C   UNL     1       5.157   2.144  -5.391  0.00  0.00    +0.074 C 
ATOM     10  N   UNL     1       3.802   1.954  -6.038  0.00  0.00    +0.398 N 
ATOM     11  H   UNL     1       3.753   2.504  -6.882  0.00  0.00    -0.083 HD
ATOM     12  H   UNL     1       3.067   2.231  -5.404  0.00  0.00    -0.083 HD
ENDROOT
BRANCH   6  13
ATOM     13  C   UNL     1       7.616  -2.310  -5.151  0.00  0.00    +0.084 C 
ATOM     14  C   UNL     1       8.082  -2.938  -6.465  0.00  0.00    +0.023 C 
ATOM     15  C   UNL     1       9.034  -4.098  -6.167  0.00  0.00    +0.002 C 
ATOM     16  C   UNL     1       8.308  -5.151  -5.327  0.00  0.00    +0.000 C 
ATOM     17  C   UNL     1       7.842  -4.522  -4.013  0.00  0.00    +0.002 C 
ATOM     18  C   UNL     1       6.889  -3.363  -4.311  0.00  0.00    +0.023 C 
ENDBRANCH   6  13
BRANCH   9  19
ATOM     19  C   UNL     1       4.993   2.780  -4.035  0.00  0.00    -0.047 A 
ATOM     20  C   UNL     1       5.837   2.427  -2.999  0.00  0.00    +0.003 A 
ATOM     21  C   UNL     1       5.686   3.010  -1.755  0.00  0.00    +0.000 A 
ATOM     22  C   UNL     1       4.692   3.949  -1.547  0.00  0.00    +0.000 A 
ATOM     23  C   UNL     1       3.849   4.303  -2.583  0.00  0.00    +0.000 A 
ATOM     24  C   UNL     1       4.002   3.722  -3.829  0.00  0.00    +0.003 A 
ENDBRANCH   9  19
BRANCH   9  25
ATOM     25  C   UNL     1       6.065   2.978  -6.258  0.00  0.00    +0.350 C 
ATOM     26  O   UNL     1       5.639   3.473  -7.287  0.00  0.00    -0.248 OA
ATOM     27  O   UNL     1       7.225   3.157  -5.929  0.00  0.00    -0.248 OA
ENDBRANCH   9  25
BRANCH   1  29
ATOM     28  C   UNL     1       1.845  -0.883  -5.474  0.00  0.00    +0.002 C 
ATOM     29  C   UNL     1       2.983  -0.242  -5.249  0.00  0.00    -0.041 C 
BRANCH  28  32
ATOM     30  C   UNL     1      -0.526  -3.152  -3.642  0.00  0.00    +0.162 A 
ATOM     31  C   UNL     1       0.039  -2.382  -4.643  0.00  0.00    +0.057 A 
ATOM     32  C   UNL     1       1.237  -1.707  -4.407  0.00  0.00    -0.022 A 
ATOM     33  C   UNL     1       1.861  -1.810  -3.163  0.00  0.00    +0.012 A 
ATOM     34  C   UNL     1       1.293  -2.579  -2.169  0.00  0.00    +0.050 A 
ATOM     35  C   UNL     1       0.099  -3.246  -2.400  0.00  0.00    +0.158 A 
BRANCH  30  37
ATOM     36  C   UNL     1      -2.278  -3.669  -5.164  0.00  0.00    +0.277 C 
ATOM     37  O   UNL     1      -1.693  -3.811  -3.868  0.00  0.00    -0.491 OA
ENDBRANCH  30  37
BRANCH  35  38
ATOM     38  O   UNL     1      -0.460  -3.999  -1.415  0.00  0.00    -0.503 OA
ATOM     39  H   UNL     1      -0.169  -4.921  -1.412  0.00  0.00    +0.292 HD
ENDBRANCH  35  38
ENDBRANCH  28  32
ENDBRANCH   1  29
TORSDOF 7
