REMARK  Name = ZINC05016826
REMARK  1 active torsions:
REMARK  status: ('A' for Active; 'I' for Inactive)
REMARK    1  A    between atoms: C_4  and  C_7
REMARK                            x       y       z     vdW  Elec       q    Type
REMARK                         _______ _______ _______ _____ _____    ______ ____
ROOT
ATOM      1  C   UNL     1       3.977   1.535   1.275  0.00  0.00    +0.086 C 
ATOM      2  N   UNL     1       3.607   2.750   1.458  0.00  0.00    -0.182 NA
ATOM      3  N   UNL     1       2.855   3.538   0.612  0.00  0.00    -0.201 N 
ATOM      4  C   UNL     1       1.752   3.159  -0.041  0.00  0.00    +0.280 C 
ATOM      5  O   UNL     1       1.105   3.991  -0.650  0.00  0.00    -0.267 OA
ATOM      6  C   UNL     1       1.305   1.766  -0.040  0.00  0.00    +0.108 A 
ATOM      7  C   UNL     1       0.010   1.306  -0.060  0.00  0.00    +0.048 A 
ATOM      8  C   UNL     1       0.065  -0.080  -0.095  0.00  0.00    +0.038 A 
ATOM      9  C   UNL     1       1.404  -0.493  -0.090  0.00  0.00    +0.057 A 
ATOM     10  N   UNL     1       2.154   0.674  -0.041  0.00  0.00    -0.330 N 
ATOM     11  C   UNL     1       3.617   0.767   0.026  0.00  0.00    +0.180 C 
ATOM     12  C   UNL     1       1.614  -1.879  -0.131  0.00  0.00    +0.034 A 
ATOM     13  C   UNL     1       0.562  -2.723  -0.165  0.00  0.00    +0.048 A 
ATOM     14  S   UNL     1      -0.833  -1.610  -0.145  0.00  0.00    -0.095 S 
ATOM     15  H   UNL     1       3.154   4.451   0.479  0.00  0.00    +0.178 HD
ENDROOT
BRANCH   1  19
ATOM     16  C   UNL     1       6.283  -0.386   4.276  0.00  0.00    +0.000 A 
ATOM     17  C   UNL     1       6.000   0.964   4.384  0.00  0.00    +0.001 A 
ATOM     18  C   UNL     1       5.251   1.595   3.413  0.00  0.00    +0.010 A 
ATOM     19  C   UNL     1       4.779   0.867   2.317  0.00  0.00    -0.000 A 
ATOM     20  C   UNL     1       5.064  -0.496   2.217  0.00  0.00    +0.010 A 
ATOM     21  C   UNL     1       5.819  -1.113   3.194  0.00  0.00    +0.001 A 
ENDBRANCH   1  19
TORSDOF 1
