REMARK  Name = ZINC47145394
REMARK  3 active torsions:
REMARK  status: ('A' for Active; 'I' for Inactive)
REMARK    1  A    between atoms: C_1  and  C_2
REMARK    2  A    between atoms: C_5  and  N_8
REMARK    3  A    between atoms: C_13  and  C_27
REMARK                            x       y       z     vdW  Elec       q    Type
REMARK                         _______ _______ _______ _____ _____    ______ ____
ROOT
ATOM      1  N   UNL     1       0.059  -4.172  -0.021  0.00  0.00    -0.209 N 
ATOM      2  C   UNL     1       0.069  -4.923   1.112  0.00  0.00    +0.232 C 
ATOM      3  O   UNL     1       0.269  -4.533   2.242  0.00  0.00    -0.274 OA
ATOM      4  C   UNL     1      -0.216  -6.327   0.682  0.00  0.00    +0.110 C 
ATOM      5  C   UNL     1       0.403  -7.471   1.445  0.00  0.00    +0.072 C 
ATOM      6  C   UNL     1       0.048  -8.755   0.750  0.00  0.00    +0.033 A 
ATOM      7  C   UNL     1      -0.357  -8.959  -0.523  0.00  0.00    +0.088 A 
ATOM      8  N   UNL     1      -0.623 -10.267  -0.845  0.00  0.00    -0.311 N 
ATOM      9  H   UNL     1      -0.929 -10.494  -1.737  0.00  0.00    +0.170 HD
ATOM     10  C   UNL     1      -0.458 -11.234   0.077  0.00  0.00    +0.289 A 
ATOM     11  O   UNL     1      -0.643 -12.432  -0.043  0.00  0.00    -0.260 OA
ATOM     12  S   UNL     1       0.066 -10.391   1.435  0.00  0.00    -0.030 S 
ATOM     13  S   UNL     1      -0.507  -7.599  -1.672  0.00  0.00    -0.093 S 
ATOM     14  C   UNL     1       0.401  -6.317  -0.749  0.00  0.00    +0.152 C 
ATOM     15  C   UNL     1       0.062  -4.910  -1.161  0.00  0.00    +0.240 C 
ATOM     16  O   UNL     1      -0.161  -4.513  -2.285  0.00  0.00    -0.274 OA
ENDROOT
BRANCH   1  21
ATOM     17  C   UNL     1      -0.018   1.503   0.010  0.00  0.00    +0.044 C 
ATOM     18  C   UNL     1       0.002  -0.004   0.002  0.00  0.00    -0.050 A 
ATOM     19  C   UNL     1       0.006  -0.688  -1.200  0.00  0.00    +0.005 A 
ATOM     20  C   UNL     1       0.025  -2.068  -1.211  0.00  0.00    +0.024 A 
ATOM     21  C   UNL     1       0.040  -2.771  -0.013  0.00  0.00    +0.044 A 
ATOM     22  C   UNL     1       0.037  -2.082   1.192  0.00  0.00    +0.024 A 
ATOM     23  C   UNL     1       0.023  -0.700   1.196  0.00  0.00    +0.005 A 
ENDBRANCH   1  21
BRANCH   5  24
ATOM     24  C   UNL     1      -0.133  -7.489   2.854  0.00  0.00    -0.038 A 
ATOM     25  C   UNL     1      -1.489  -7.643   3.076  0.00  0.00    +0.004 A 
ATOM     26  C   UNL     1      -1.980  -7.659   4.367  0.00  0.00    +0.001 A 
ATOM     27  C   UNL     1      -1.117  -7.521   5.438  0.00  0.00    +0.015 A 
ATOM     28  C   UNL     1       0.240  -7.367   5.216  0.00  0.00    +0.018 A 
ATOM     29  C   UNL     1       0.732  -7.356   3.924  0.00  0.00    +0.019 A 
ATOM     30 BR   UNL     1       1.421  -7.178   6.680  0.00  0.00    -0.050 Br
ENDBRANCH   5  24
TORSDOF 2
