REMARK  Name = ZINC05187249
REMARK  8 active torsions:
REMARK  status: ('A' for Active; 'I' for Inactive)
REMARK    1  A    between atoms: C_1  and  C_2
REMARK    2  A    between atoms: C_2  and  C_30
REMARK    3  A    between atoms: C_3  and  C_4
REMARK    4  A    between atoms: C_3  and  N_21
REMARK    5  A    between atoms: N_6  and  N_7
REMARK    6  A    between atoms: C_8  and  C_9
REMARK    7  A    between atoms: C_12  and  C_15
REMARK    8  A    between atoms: C_22  and  C_24
REMARK                            x       y       z     vdW  Elec       q    Type
REMARK                         _______ _______ _______ _____ _____    ______ ____
ROOT
ATOM      1  C   UNL     1      -3.105  -2.099   0.103  0.00  0.00    +0.277 C 
ATOM      2  O   UNL     1      -3.955  -1.273  -0.169  0.00  0.00    -0.267 OA
ATOM      3  N   UNL     1      -3.468  -3.345   0.465  0.00  0.00    -0.202 N 
ATOM      4  H   UNL     1      -2.796  -3.982   0.753  0.00  0.00    +0.178 HD
ENDROOT
BRANCH   1   7
ATOM      5  C   UNL     1      -2.347   0.394  -1.002  0.00  0.00    +0.041 C 
ATOM      6  C   UNL     1      -1.312  -0.538  -0.426  0.00  0.00    -0.049 C 
ATOM      7  C   UNL     1      -1.677  -1.737   0.038  0.00  0.00    +0.097 C 
ATOM      8  C   UNL     1       0.134  -0.118  -0.373  0.00  0.00    +0.041 C 
BRANCH   7   9
ATOM      9  N   UNL     1      -0.703  -2.649   0.462  0.00  0.00    -0.277 N 
ATOM     10  C   UNL     1      -0.708  -3.098   1.733  0.00  0.00    +0.248 C 
ATOM     11  O   UNL     1      -1.512  -2.656   2.530  0.00  0.00    -0.270 OA
ATOM     12  H   UNL     1      -0.025  -2.958  -0.159  0.00  0.00    +0.155 HD
BRANCH  10  13
ATOM     13  C   UNL     1       0.266  -4.126   2.157  0.00  0.00    +0.037 A 
ATOM     14  C   UNL     1       1.187  -4.639   1.243  0.00  0.00    +0.013 A 
ATOM     15  C   UNL     1       2.096  -5.595   1.647  0.00  0.00    +0.001 A 
ATOM     16  C   UNL     1       2.088  -6.053   2.952  0.00  0.00    +0.000 A 
ATOM     17  C   UNL     1       1.174  -5.553   3.862  0.00  0.00    +0.001 A 
ATOM     18  C   UNL     1       0.264  -4.592   3.473  0.00  0.00    +0.013 A 
ENDBRANCH  10  13
ENDBRANCH   7   9
ENDBRANCH   1   7
BRANCH   3  19
ATOM     19  N   UNL     1      -4.817  -3.721   0.424  0.00  0.00    -0.187 NA
ATOM     20  C   UNL     1      -5.167  -4.923   0.772  0.00  0.00    +0.138 C 
BRANCH  20  21
ATOM     21  C   UNL     1      -6.586  -5.318   0.729  0.00  0.00    -0.005 A 
ATOM     22  C   UNL     1      -7.556  -4.399   0.319  0.00  0.00    +0.010 A 
ATOM     23  C   UNL     1      -8.880  -4.772   0.274  0.00  0.00    +0.009 A 
ATOM     24  C   UNL     1      -9.255  -6.063   0.648  0.00  0.00    -0.018 A 
ATOM     25  C   UNL     1      -8.289  -6.979   1.064  0.00  0.00    +0.009 A 
ATOM     26  C   UNL     1      -6.963  -6.611   1.105  0.00  0.00    +0.010 A 
BRANCH  24  27
ATOM     27  C   UNL     1     -10.683  -6.461   0.604  0.00  0.00    -0.018 A 
ATOM     28  C   UNL     1     -11.061  -7.752   0.972  0.00  0.00    +0.008 A 
ATOM     29  C   UNL     1     -12.392  -8.115   0.933  0.00  0.00    +0.001 A 
ATOM     30  C   UNL     1     -13.349  -7.205   0.521  0.00  0.00    +0.000 A 
ATOM     31  C   UNL     1     -12.979  -5.925   0.150  0.00  0.00    +0.001 A 
ATOM     32  C   UNL     1     -11.652  -5.549   0.189  0.00  0.00    +0.008 A 
ENDBRANCH  24  27
ENDBRANCH  20  21
ENDBRANCH   3  19
TORSDOF 6
