REMARK  Name = ZINC36020153
REMARK  9 active torsions:
REMARK  status: ('A' for Active; 'I' for Inactive)
REMARK    1  A    between atoms: C_1  and  C_2
REMARK    2  A    between atoms: C_2  and  C_4
REMARK    3  A    between atoms: C_2  and  N_12
REMARK    4  A    between atoms: C_4  and  C_5
REMARK    5  A    between atoms: C_5  and  C_6
REMARK    6  A    between atoms: C_15  and  C_31
REMARK    7  A    between atoms: C_24  and  C_26
REMARK    8  A    between atoms: C_31  and  C_32
REMARK    9  A    between atoms: C_31  and  C_33
REMARK                            x       y       z     vdW  Elec       q    Type
REMARK                         _______ _______ _______ _____ _____    ______ ____
ROOT
ATOM      1  N   UNL     1       0.977  -0.852  -1.454  0.00  0.00    -0.311 N 
ATOM      2  C   UNL     1       0.578  -0.359  -2.645  0.00  0.00    +0.201 C 
ATOM      3  O   UNL     1      -0.256   0.505  -2.811  0.00  0.00    -0.277 OA
ATOM      4  C   UNL     1       1.348  -1.066  -3.739  0.00  0.00    +0.022 C 
ATOM      5  N   UNL     1       2.496  -1.699  -3.045  0.00  0.00    +0.401 N 
ATOM      6  C   UNL     1       1.999  -1.880  -1.667  0.00  0.00    +0.006 C 
ATOM      7  C   UNL     1       1.386  -3.272  -1.524  0.00  0.00    +0.025 C 
ATOM      8  C   UNL     1       0.838  -3.442  -0.103  0.00  0.00    +0.108 C 
ATOM      9  N   UNL     1       1.910  -3.144   0.856  0.00  0.00    -0.301 N 
ATOM     10  C   UNL     1       2.612  -1.857   0.753  0.00  0.00    +0.108 C 
ATOM     11  C   UNL     1       3.146  -1.700  -0.675  0.00  0.00    +0.025 C 
ATOM     12  C   UNL     1       2.243  -4.033   1.813  0.00  0.00    +0.219 C 
ATOM     13  O   UNL     1       3.202  -3.826   2.526  0.00  0.00    -0.275 OA
ATOM     14  H   UNL     1       2.721  -2.588  -3.466  0.00  0.00    -0.082 HD
ATOM     15  H   UNL     1       3.298  -1.087  -3.053  0.00  0.00    -0.082 HD
ENDROOT
BRANCH  12  16
ATOM     16  C   UNL     1       1.423  -5.284   1.997  0.00  0.00    +0.075 C 
ATOM     17  C   UNL     1      -0.018  -4.916   2.407  0.00  0.00    +0.013 C 
ATOM     18  C   UNL     1      -0.417  -6.018   3.420  0.00  0.00    +0.001 C 
ATOM     19  C   UNL     1       0.896  -6.248   4.209  0.00  0.00    +0.001 C 
ATOM     20  C   UNL     1       2.004  -6.131   3.142  0.00  0.00    +0.013 C 
ENDBRANCH  12  16
BRANCH   4  21
ATOM     21  C   UNL     1       1.841  -0.059  -4.780  0.00  0.00    -0.023 C 
ATOM     22  C   UNL     1       0.640   0.636  -5.426  0.00  0.00    +0.006 C 
ATOM     23  C   UNL     1       2.729   0.985  -4.099  0.00  0.00    +0.006 C 
ENDBRANCH   4  21
BRANCH   1  25
ATOM     24  C   UNL     1       1.324   0.737   0.373  0.00  0.00    +0.028 C 
ATOM     25  C   UNL     1       0.470  -0.421  -0.148  0.00  0.00    +0.072 C 
BRANCH  25  26
ATOM     26  C   UNL     1      -0.982   0.039  -0.291  0.00  0.00    +0.027 C 
BRANCH  26  27
ATOM     27  C   UNL     1      -1.856  -1.149  -0.695  0.00  0.00    +0.037 C 
BRANCH  27  28
ATOM     28  C   UNL     1      -3.261  -0.672  -0.959  0.00  0.00    -0.047 A 
ATOM     29  C   UNL     1      -4.183  -0.634   0.070  0.00  0.00    +0.003 A 
ATOM     30  C   UNL     1      -5.472  -0.196  -0.172  0.00  0.00    +0.000 A 
ATOM     31  C   UNL     1      -5.838   0.203  -1.444  0.00  0.00    +0.000 A 
ATOM     32  C   UNL     1      -4.916   0.165  -2.473  0.00  0.00    +0.000 A 
ATOM     33  C   UNL     1      -3.626  -0.268  -2.230  0.00  0.00    +0.003 A 
ENDBRANCH  27  28
ENDBRANCH  26  27
ENDBRANCH  25  26
ENDBRANCH   1  25
TORSDOF 6
