REMARK  Name = ZINC20765266
REMARK  7 active torsions:
REMARK  status: ('A' for Active; 'I' for Inactive)
REMARK    1  A    between atoms: C_1  and  C_2
REMARK    2  A    between atoms: C_2  and  O_3
REMARK    3  A    between atoms: O_3  and  C_4
REMARK    4  A    between atoms: C_8  and  C_11
REMARK    5  A    between atoms: C_9  and  O_10
REMARK    6  A    between atoms: C_14  and  C_27
REMARK    7  A    between atoms: C_16  and  C_19
REMARK                            x       y       z     vdW  Elec       q    Type
REMARK                         _______ _______ _______ _____ _____    ______ ____
ROOT
ATOM      1  C   UNL     1      -0.740   2.921   1.394  0.00  0.00    +0.095 C 
ATOM      2  C   UNL     1       0.695   3.313   1.758  0.00  0.00    +0.079 C 
ATOM      3  C   UNL     1       1.652   2.649   0.808  0.00  0.00    +0.047 C 
ATOM      4  N   UNL     1       1.322   1.670   0.052  0.00  0.00    -0.264 NA
ATOM      5  C   UNL     1      -0.013   1.086   0.008  0.00  0.00    +0.208 C 
ATOM      6  N   UNL     1      -0.783   1.461   1.200  0.00  0.00    -0.284 NA
ATOM      7  H   UNL     1      -0.352   0.962   2.079  0.00  0.00    +0.125 HD
ENDROOT
BRANCH   5   8
ATOM      8  C   UNL     1      -0.730   1.579  -1.222  0.00  0.00    +0.045 A 
ATOM      9  C   UNL     1      -0.452   2.837  -1.728  0.00  0.00    +0.131 A 
ATOM     10  C   UNL     1      -1.107   3.287  -2.862  0.00  0.00    +0.039 A 
ATOM     11  C   UNL     1      -2.047   2.485  -3.481  0.00  0.00    +0.004 A 
ATOM     12  C   UNL     1      -2.330   1.231  -2.972  0.00  0.00    +0.020 A 
ATOM     13  C   UNL     1      -1.671   0.778  -1.842  0.00  0.00    +0.050 A 
ATOM     14 CL   UNL     1      -2.026  -0.797  -1.204  0.00  0.00    -0.083 Cl
ATOM     15  F   UNL     1       0.463   3.624  -1.120  0.00  0.00    -0.205 F 
ENDBRANCH   5   8
BRANCH   3  16
ATOM     16  C   UNL     1       3.040   3.149   0.743  0.00  0.00    -0.003 A 
ATOM     17  C   UNL     1       3.438   4.219   1.548  0.00  0.00    +0.010 A 
ATOM     18  C   UNL     1       4.736   4.679   1.486  0.00  0.00    +0.002 A 
ATOM     19  C   UNL     1       5.643   4.090   0.622  0.00  0.00    +0.015 A 
ATOM     20  C   UNL     1       5.254   3.032  -0.182  0.00  0.00    +0.018 A 
ATOM     21  C   UNL     1       3.958   2.558  -0.126  0.00  0.00    +0.025 A 
ATOM     22 BR   UNL     1       6.501   2.234  -1.358  0.00  0.00    -0.050 Br
ENDBRANCH   3  16
BRANCH   1  27
ATOM     23  C   UNL     1      -3.044   4.959   3.600  0.00  0.00    +0.162 A 
ATOM     24  C   UNL     1      -3.388   4.027   4.567  0.00  0.00    +0.049 A 
ATOM     25  C   UNL     1      -2.875   2.745   4.504  0.00  0.00    +0.004 A 
ATOM     26  C   UNL     1      -2.020   2.389   3.478  0.00  0.00    +0.009 A 
ATOM     27  C   UNL     1      -1.673   3.313   2.510  0.00  0.00    +0.015 A 
ATOM     28  C   UNL     1      -2.179   4.602   2.571  0.00  0.00    +0.163 A 
BRANCH  28  29
ATOM     29  O   UNL     1      -1.835   5.514   1.622  0.00  0.00    -0.503 OA
ATOM     30  H   UNL     1      -1.151   5.230   0.809  0.00  0.00    +0.292 HD
ENDBRANCH  28  29
BRANCH  23  31
ATOM     31  O   UNL     1      -3.548   6.221   3.660  0.00  0.00    -0.489 OA
BRANCH  31  33
ATOM     32  C   UNL     1      -4.887   7.973   4.648  0.00  0.00    +0.048 C 
ATOM     33  C   UNL     1      -4.426   6.518   4.748  0.00  0.00    +0.226 C 
ENDBRANCH  31  33
ENDBRANCH  23  31
ENDBRANCH   1  27
TORSDOF 6
