REMARK  Name = ZINC39227175
REMARK  3 active torsions:
REMARK  status: ('A' for Active; 'I' for Inactive)
REMARK    1  A    between atoms: N_15  and  C_18
REMARK    2  A    between atoms: C_18  and  C_19
REMARK    3  A    between atoms: C_22  and  C_25
REMARK                            x       y       z     vdW  Elec       q    Type
REMARK                         _______ _______ _______ _____ _____    ______ ____
ROOT
ATOM      1  C   UNL     1      -0.016   1.358   0.009  0.00  0.00    +0.001 A 
ATOM      2  C   UNL     1       1.168   2.091   0.002  0.00  0.00    +0.001 A 
ATOM      3  C   UNL     1       2.377   1.465  -0.013  0.00  0.00    +0.012 A 
ATOM      4  C   UNL     1       2.434   0.062  -0.019  0.00  0.00    +0.025 A 
ATOM      5  C   UNL     1       1.231  -0.684  -0.014  0.00  0.00    -0.014 A 
ATOM      6  C   UNL     1       0.002  -0.004   0.002  0.00  0.00    +0.008 A 
ATOM      7  C   UNL     1       1.277  -2.093  -0.025  0.00  0.00    +0.009 A 
ATOM      8  C   UNL     1       2.471  -2.735  -0.035  0.00  0.00    +0.015 A 
ATOM      9  C   UNL     1       3.678  -2.011  -0.034  0.00  0.00    +0.060 A 
ATOM     10  C   UNL     1       3.672  -0.615  -0.031  0.00  0.00    +0.139 A 
ATOM     11  O   UNL     1       4.826   0.087  -0.047  0.00  0.00    -0.484 OA
ATOM     12  C   UNL     1       6.020  -0.542   0.413  0.00  0.00    +0.114 C 
ATOM     13  C   UNL     1       5.927  -0.789   1.921  0.00  0.00    +0.030 C 
ATOM     14  C   UNL     1       5.839   0.553   2.649  0.00  0.00    -0.074 C 
ATOM     15  N   UNL     1       7.034   1.354   2.354  0.00  0.00    +0.383 N 
ATOM     16  C   UNL     1       7.086   1.658   0.919  0.00  0.00    -0.074 C 
ATOM     17  C   UNL     1       7.224   0.359   0.123  0.00  0.00    +0.030 C 
ATOM     18  C   UNL     1       6.204  -1.882  -0.311  0.00  0.00    +0.127 C 
ATOM     19  C   UNL     1       4.969  -2.718  -0.029  0.00  0.00    +0.170 C 
ATOM     20  O   UNL     1       5.042  -3.909   0.190  0.00  0.00    -0.292 OA
ATOM     21  H   UNL     1       7.858   0.835   2.618  0.00  0.00    -0.081 HD
ENDROOT
BRANCH  15  22
ATOM     22  C   UNL     1       6.982   2.608   3.118  0.00  0.00    -0.043 C 
BRANCH  22  23
ATOM     23  C   UNL     1       8.263   3.374   2.912  0.00  0.00    -0.064 A 
ATOM     24  C   UNL     1       9.335   3.164   3.760  0.00  0.00    +0.002 A 
ATOM     25  C   UNL     1      10.511   3.863   3.577  0.00  0.00    +0.013 A 
ATOM     26  C   UNL     1      10.617   4.783   2.533  0.00  0.00    +0.037 A 
ATOM     27  C   UNL     1       9.531   4.990   1.681  0.00  0.00    +0.013 A 
ATOM     28  C   UNL     1       8.363   4.281   1.872  0.00  0.00    +0.002 A 
BRANCH  26  29
ATOM     29  C   UNL     1      11.874   5.535   2.331  0.00  0.00    +0.242 C 
ATOM     30  O   UNL     1      12.817   5.353   3.075  0.00  0.00    -0.270 OA
ATOM     31  N   UNL     1      11.973   6.423   1.322  0.00  0.00    -0.325 N 
ATOM     32  H   UNL     1      11.220   6.569   0.729  0.00  0.00    +0.145 HD
ATOM     33  H   UNL     1      12.797   6.917   1.190  0.00  0.00    +0.145 HD
ENDBRANCH  26  29
ENDBRANCH  22  23
ENDBRANCH  15  22
TORSDOF 3
