REMARK  Name = ZINC58020263
REMARK  11 active torsions:
REMARK  status: ('A' for Active; 'I' for Inactive)
REMARK    1  A    between atoms: C_1  and  C_2
REMARK    2  A    between atoms: C_2  and  C_3
REMARK    3  A    between atoms: C_3  and  C_4
REMARK    4  A    between atoms: C_4  and  N_5
REMARK    5  A    between atoms: C_9  and  S_29
REMARK    6  A    between atoms: C_13  and  C_14
REMARK    7  A    between atoms: C_14  and  N_15
REMARK    8  A    between atoms: N_15  and  C_16
REMARK    9  A    between atoms: C_16  and  C_17
REMARK   10  A    between atoms: C_16  and  C_23
REMARK   11  A    between atoms: S_29  and  N_32
REMARK                            x       y       z     vdW  Elec       q    Type
REMARK                         _______ _______ _______ _____ _____    ______ ____
ROOT
ATOM      1  N   UNL     1       1.425  -2.500  -2.470  0.00  0.00    -0.326 N 
ATOM      2  C   UNL     1       0.840  -2.768  -3.692  0.00  0.00    +0.069 A 
ATOM      3  C   UNL     1      -0.458  -2.701  -4.179  0.00  0.00    +0.030 A 
ATOM      4  C   UNL     1      -0.716  -3.049  -5.487  0.00  0.00    +0.030 A 
ATOM      5  C   UNL     1       0.313  -3.467  -6.320  0.00  0.00    +0.107 A 
ATOM      6  C   UNL     1       1.596  -3.540  -5.858  0.00  0.00    +0.058 A 
ATOM      7  C   UNL     1       1.882  -3.191  -4.535  0.00  0.00    +0.091 A 
ATOM      8  N   UNL     1       3.023  -3.159  -3.801  0.00  0.00    -0.231 NA
ATOM      9  C   UNL     1       2.756  -2.749  -2.595  0.00  0.00    +0.125 A 
ENDROOT
BRANCH   5  10
ATOM     10  S   UNL     1      -0.040  -3.908  -7.989  0.00  0.00    +0.056 S 
ATOM     11  O   UNL     1       0.997  -4.785  -8.405  0.00  0.00    -0.153 OA
ATOM     12  O   UNL     1      -1.412  -4.277  -8.030  0.00  0.00    -0.153 OA
BRANCH  10  13
ATOM     13  N   UNL     1       0.108  -2.533  -8.900  0.00  0.00    -0.204 NA
ATOM     14  H   UNL     1       0.350  -1.695  -8.477  0.00  0.00    +0.144 HD
ATOM     15  H   UNL     1      -0.049  -2.566  -9.857  0.00  0.00    +0.144 HD
ENDBRANCH  10  13
ENDBRANCH   5  10
BRANCH   1  16
ATOM     16  C   UNL     1       0.739  -2.027  -1.265  0.00  0.00    +0.123 C 
BRANCH  16  17
ATOM     17  C   UNL     1       0.718  -0.497  -1.257  0.00  0.00    +0.021 C 
BRANCH  17  19
ATOM     18  C   UNL     1      -0.019   1.526   0.010  0.00  0.00    +0.004 C 
ATOM     19  C   UNL     1       0.002  -0.004   0.002  0.00  0.00    -0.002 C 
ENDBRANCH  17  19
ENDBRANCH  16  17
ENDBRANCH   1  16
BRANCH   9  20
ATOM     20  C   UNL     1       3.773  -2.579  -1.496  0.00  0.00    +0.156 C 
BRANCH  20  21
ATOM     21  N   UNL     1       3.895  -3.835  -0.743  0.00  0.00    -0.299 NA
ATOM     22  H   UNL     1       2.999  -4.129  -0.384  0.00  0.00    +0.123 HD
BRANCH  21  23
ATOM     23  C   UNL     1       4.880  -3.706   0.339  0.00  0.00    +0.115 C 
BRANCH  23  24
ATOM     24  C   UNL     1       4.566  -4.702   1.425  0.00  0.00    -0.026 A 
ATOM     25  C   UNL     1       4.156  -5.980   1.094  0.00  0.00    +0.005 A 
ATOM     26  C   UNL     1       3.868  -6.894   2.090  0.00  0.00    +0.000 A 
ATOM     27  C   UNL     1       3.990  -6.530   3.418  0.00  0.00    +0.000 A 
ATOM     28  C   UNL     1       4.400  -5.252   3.750  0.00  0.00    +0.000 A 
ATOM     29  C   UNL     1       4.692  -4.340   2.753  0.00  0.00    +0.005 A 
ENDBRANCH  23  24
BRANCH  23  30
ATOM     30  C   UNL     1       6.260  -3.973  -0.203  0.00  0.00    -0.026 A 
ATOM     31  C   UNL     1       6.456  -4.982  -1.127  0.00  0.00    +0.005 A 
ATOM     32  C   UNL     1       7.722  -5.227  -1.625  0.00  0.00    +0.000 A 
ATOM     33  C   UNL     1       8.792  -4.462  -1.199  0.00  0.00    +0.000 A 
ATOM     34  C   UNL     1       8.596  -3.453  -0.276  0.00  0.00    +0.000 A 
ATOM     35  C   UNL     1       7.329  -3.205   0.218  0.00  0.00    +0.005 A 
ENDBRANCH  23  30
ENDBRANCH  21  23
ENDBRANCH  20  21
ENDBRANCH   9  20
TORSDOF 10
