REMARK  Name = ZINC09777227
REMARK  11 active torsions:
REMARK  status: ('A' for Active; 'I' for Inactive)
REMARK    1  A    between atoms: C_1  and  C_2
REMARK    2  A    between atoms: C_7  and  N_12
REMARK    3  A    between atoms: C_9  and  C_11
REMARK    4  A    between atoms: C_13  and  C_15
REMARK    5  A    between atoms: C_23  and  C_35
REMARK    6  A    between atoms: N_29  and  C_30
REMARK    7  A    between atoms: C_30  and  C_31
REMARK    8  A    between atoms: C_31  and  C_32
REMARK    9  A    between atoms: C_32  and  C_33
REMARK   10  A    between atoms: C_32  and  C_34
REMARK   11  A    between atoms: N_37  and  C_38
REMARK                            x       y       z     vdW  Elec       q    Type
REMARK                         _______ _______ _______ _____ _____    ______ ____
ROOT
ATOM      1  C   UNL     1      -2.365  -5.991  -1.789  0.00  0.00    +0.198 C 
ATOM      2  C   UNL     1      -2.542  -4.504  -1.817  0.00  0.00    +0.127 C 
ATOM      3  C   UNL     1      -1.473  -3.798  -2.630  0.00  0.00    +0.009 C 
ATOM      4  C   UNL     1      -1.767  -2.508  -2.568  0.00  0.00    +0.004 C 
ATOM      5  C   UNL     1      -2.996  -2.425  -1.654  0.00  0.00    +0.155 C 
ATOM      6  O   UNL     1      -3.688  -3.702  -1.979  0.00  0.00    -0.358 OA
ATOM      7  C   UNL     1      -2.378  -2.736  -0.236  0.00  0.00    +0.123 C 
ATOM      8  C   UNL     1      -2.268  -4.239  -0.281  0.00  0.00    +0.128 C 
ATOM      9  C   UNL     1      -1.050  -5.046  -0.089  0.00  0.00    +0.223 C 
ATOM     10  O   UNL     1      -0.126  -4.793   0.653  0.00  0.00    -0.275 OA
ATOM     11  N   UNL     1      -1.162  -6.142  -0.911  0.00  0.00    -0.287 N 
ENDROOT
BRANCH   1  13
ATOM     12  N   UNL     1      -3.119  -6.890  -3.967  0.00  0.00    -0.311 N 
ATOM     13  C   UNL     1      -2.093  -6.527  -3.171  0.00  0.00    +0.237 C 
ATOM     14  O   UNL     1      -0.952  -6.631  -3.568  0.00  0.00    -0.274 OA
ATOM     15  H   UNL     1      -4.032  -6.806  -3.650  0.00  0.00    +0.149 HD
BRANCH  12  21
ATOM     16  C   UNL     1      -5.017  -7.462  -8.496  0.00  0.00    +0.008 C 
ATOM     17  C   UNL     1      -3.798  -7.708  -7.605  0.00  0.00    -0.009 C 
ATOM     18  C   UNL     1      -3.521  -9.211  -7.524  0.00  0.00    +0.003 C 
ATOM     19  C   UNL     1      -2.302  -9.457  -6.633  0.00  0.00    +0.002 C 
ATOM     20  C   UNL     1      -2.578  -8.913  -5.229  0.00  0.00    +0.022 C 
ATOM     21  C   UNL     1      -2.855  -7.411  -5.311  0.00  0.00    +0.076 C 
ATOM     22  C   UNL     1      -4.074  -7.164  -6.202  0.00  0.00    +0.009 C 
ATOM     23  C   UNL     1      -5.291  -7.876  -5.609  0.00  0.00    +0.009 C 
ENDBRANCH  12  21
ENDBRANCH   1  13
BRANCH   7  24
ATOM     24  C   UNL     1      -1.020  -2.098  -0.086  0.00  0.00    +0.224 C 
ATOM     25  O   UNL     1      -0.042  -2.638  -0.558  0.00  0.00    -0.275 OA
ATOM     26  N   UNL     1      -0.894  -0.929   0.572  0.00  0.00    -0.285 N 
ATOM     27  H   UNL     1      -1.663  -0.535   1.013  0.00  0.00    +0.155 HD
BRANCH  26  28
ATOM     28  C   UNL     1       0.346  -0.282   0.618  0.00  0.00    +0.035 A 
ATOM     29  C   UNL     1       1.219  -0.374  -0.459  0.00  0.00    +0.023 A 
ATOM     30  C   UNL     1       2.442   0.264  -0.411  0.00  0.00    +0.003 A 
ATOM     31  C   UNL     1       2.800   0.995   0.708  0.00  0.00    +0.020 A 
ATOM     32  C   UNL     1       1.933   1.088   1.782  0.00  0.00    +0.043 A 
ATOM     33  C   UNL     1       0.707   0.451   1.740  0.00  0.00    +0.043 A 
ATOM     34 CL   UNL     1       2.386   2.005   3.185  0.00  0.00    -0.083 Cl
ENDBRANCH  26  28
ENDBRANCH   7  24
BRANCH  11  35
ATOM     35  C   UNL     1      -0.244  -7.284  -0.926  0.00  0.00    +0.109 C 
BRANCH  35  36
ATOM     36  C   UNL     1      -0.788  -8.386  -0.015  0.00  0.00    +0.022 C 
BRANCH  36  37
ATOM     37  C   UNL     1       0.225  -9.531   0.061  0.00  0.00    -0.016 C 
ATOM     38  C   UNL     1      -0.261 -10.576   1.068  0.00  0.00    +0.007 C 
ATOM     39  C   UNL     1       0.367 -10.178  -1.318  0.00  0.00    +0.007 C 
ENDBRANCH  36  37
ENDBRANCH  35  36
ENDBRANCH  11  35
TORSDOF 7
