REMARK  Name = ZINC56646346
REMARK  8 active torsions:
REMARK  status: ('A' for Active; 'I' for Inactive)
REMARK    1  A    between atoms: C_1  and  C_2
REMARK    2  A    between atoms: C_2  and  C_4
REMARK    3  A    between atoms: C_2  and  N_14
REMARK    4  A    between atoms: C_9  and  C_10
REMARK    5  A    between atoms: N_17  and  C_18
REMARK    6  A    between atoms: C_23  and  C_24
REMARK    7  A    between atoms: C_24  and  O_25
REMARK    8  A    between atoms: O_25  and  C_26
REMARK                            x       y       z     vdW  Elec       q    Type
REMARK                         _______ _______ _______ _____ _____    ______ ____
ROOT
ATOM      1  N   UNL     1      -1.093  -0.496  -0.317  0.00  0.00    -0.293 N 
ATOM      2  C   UNL     1      -1.588  -0.508  -1.570  0.00  0.00    +0.304 C 
ATOM      3  O   UNL     1      -0.864  -0.255  -2.513  0.00  0.00    -0.252 OA
ATOM      4  N   UNL     1      -2.887  -0.802  -1.778  0.00  0.00    -0.269 N 
ATOM      5  H   UNL     1      -1.671  -0.699   0.436  0.00  0.00    +0.151 HD
ATOM      6  H   UNL     1      -3.479  -0.945  -1.023  0.00  0.00    +0.156 HD
ENDROOT
BRANCH   4   7
ATOM      7  C   UNL     1      -3.382  -0.901  -3.083  0.00  0.00    +0.040 A 
ATOM      8  C   UNL     1      -2.774  -0.195  -4.113  0.00  0.00    +0.024 A 
ATOM      9  C   UNL     1      -3.264  -0.295  -5.400  0.00  0.00    +0.002 A 
ATOM     10  C   UNL     1      -4.359  -1.098  -5.664  0.00  0.00    +0.000 A 
ATOM     11  C   UNL     1      -4.966  -1.802  -4.641  0.00  0.00    +0.008 A 
ATOM     12  C   UNL     1      -4.477  -1.711  -3.353  0.00  0.00    -0.001 A 
BRANCH  12  13
ATOM     13  C   UNL     1      -5.136  -2.484  -2.239  0.00  0.00    +0.196 C 
BRANCH  13  14
ATOM     14  O   UNL     1      -6.231  -3.236  -2.765  0.00  0.00    -0.378 OA
ATOM     15  C   UNL     1      -6.928  -4.009  -1.786  0.00  0.00    +0.194 C 
ENDBRANCH  13  14
ENDBRANCH  12  13
ENDBRANCH   4   7
BRANCH   1  17
ATOM     16  C   UNL     1       0.481   1.336   0.069  0.00  0.00    +0.033 C 
ATOM     17  C   UNL     1       0.319  -0.177  -0.090  0.00  0.00    +0.102 C 
BRANCH  17  18
ATOM     18  C   UNL     1       0.796  -0.867   1.162  0.00  0.00    -0.016 A 
ATOM     19  C   UNL     1       0.964  -0.144   2.328  0.00  0.00    +0.006 A 
ATOM     20  C   UNL     1       1.402  -0.777   3.476  0.00  0.00    +0.000 A 
ATOM     21  C   UNL     1       1.670  -2.134   3.459  0.00  0.00    +0.001 A 
ATOM     22  C   UNL     1       1.501  -2.856   2.293  0.00  0.00    +0.013 A 
ATOM     23  C   UNL     1       1.059  -2.224   1.145  0.00  0.00    +0.060 A 
BRANCH  23  24
ATOM     24  C   UNL     1       0.869  -3.013  -0.124  0.00  0.00    +0.418 C 
ATOM     25  F   UNL     1       1.278  -4.335   0.082  0.00  0.00    -0.166 F 
ATOM     26  F   UNL     1      -0.481  -2.994  -0.488  0.00  0.00    -0.166 F 
ATOM     27  F   UNL     1       1.635  -2.442  -1.147  0.00  0.00    -0.166 F 
ENDBRANCH  23  24
ENDBRANCH  17  18
ENDBRANCH   1  17
TORSDOF 6
