REMARK  Name = ZINC09742720
REMARK  4 active torsions:
REMARK  status: ('A' for Active; 'I' for Inactive)
REMARK    1  A    between atoms: C_12  and  C_14
REMARK    2  A    between atoms: C_16  and  S_25
REMARK    3  A    between atoms: C_19  and  N_20
REMARK    4  A    between atoms: S_25  and  N_28
REMARK                            x       y       z     vdW  Elec       q    Type
REMARK                         _______ _______ _______ _____ _____    ______ ____
ROOT
ATOM      1  C   UNL     1      -0.155   1.359   0.040  0.00  0.00    +0.060 A 
ATOM      2  C   UNL     1      -0.061  -0.035   0.072  0.00  0.00    +0.043 A 
ATOM      3  C   UNL     1       1.153  -0.647  -0.144  0.00  0.00    +0.106 A 
ATOM      4  C   UNL     1       2.286   0.112  -0.394  0.00  0.00    +0.030 A 
ATOM      5  C   UNL     1       2.210   1.489  -0.428  0.00  0.00    +0.026 A 
ATOM      6  C   UNL     1       0.993   2.125  -0.213  0.00  0.00    +0.042 A 
ENDROOT
BRANCH   1  18
ATOM      7  C   UNL     1       0.569   1.619   4.158  0.00  0.00    +0.002 A 
ATOM      8  C   UNL     1       1.144   2.832   4.490  0.00  0.00    +0.001 A 
ATOM      9  C   UNL     1       0.800   3.976   3.789  0.00  0.00    +0.016 A 
ATOM     10  C   UNL     1      -0.118   3.885   2.760  0.00  0.00    +0.029 A 
ATOM     11  C   UNL     1      -0.732   2.681   2.446  0.00  0.00    +0.050 A 
ATOM     12  C   UNL     1      -0.367   1.535   3.144  0.00  0.00    +0.024 A 
ATOM     13  N   UNL     1      -1.715   2.605   1.451  0.00  0.00    -0.266 N 
ATOM     14  C   UNL     1      -3.039   3.183   1.730  0.00  0.00    +0.115 C 
ATOM     15  C   UNL     1      -3.117   4.621   1.312  0.00  0.00    +0.030 C 
ATOM     16  C   UNL     1      -2.261   5.582   2.122  0.00  0.00    +0.076 C 
ATOM     17  S   UNL     1      -0.501   5.305   1.762  0.00  0.00    -0.123 S 
ATOM     18  C   UNL     1      -1.453   2.020   0.265  0.00  0.00    +0.253 C 
ATOM     19  O   UNL     1      -2.288   2.039  -0.620  0.00  0.00    -0.270 OA
ENDBRANCH   1  18
BRANCH   6  20
ATOM     20  N   UNL     1       0.914   3.511  -0.247  0.00  0.00    -0.329 N 
ATOM     21  C   UNL     1       2.230   4.111  -0.587  0.00  0.00    +0.105 C 
ATOM     22  C   UNL     1       1.854   5.528  -1.090  0.00  0.00    +0.020 C 
ATOM     23  C   UNL     1       0.540   5.282  -1.866  0.00  0.00    +0.020 C 
ATOM     24  C   UNL     1      -0.019   3.963  -1.302  0.00  0.00    +0.105 C 
ENDBRANCH   6  20
BRANCH   3  25
ATOM     25  S   UNL     1       1.269  -2.405  -0.103  0.00  0.00    +0.061 S 
ATOM     26  O   UNL     1       2.590  -2.716   0.318  0.00  0.00    -0.153 OA
ATOM     27  O   UNL     1       0.119  -2.871   0.589  0.00  0.00    -0.153 OA
BRANCH  25  28
ATOM     28  N   UNL     1       1.131  -2.941  -1.664  0.00  0.00    -0.172 NA
ATOM     29  C   UNL     1      -0.167  -3.373  -2.205  0.00  0.00    +0.137 C 
ATOM     30  C   UNL     1      -0.396  -2.647  -3.540  0.00  0.00    +0.177 C 
ATOM     31  O   UNL     1       0.741  -2.847  -4.383  0.00  0.00    -0.377 OA
ATOM     32  C   UNL     1       1.957  -2.302  -3.866  0.00  0.00    +0.177 C 
ATOM     33  C   UNL     1       2.305  -3.006  -2.549  0.00  0.00    +0.137 C 
ENDBRANCH  25  28
ENDBRANCH   3  25
TORSDOF 4
