REMARK  Name = ZINC14463989
REMARK  5 active torsions:
REMARK  status: ('A' for Active; 'I' for Inactive)
REMARK    1  A    between atoms: C_1  and  N_2
REMARK    2  A    between atoms: N_2  and  C_3
REMARK    3  A    between atoms: N_2  and  S_4
REMARK    4  A    between atoms: S_4  and  C_7
REMARK    5  A    between atoms: C_20  and  C_23
REMARK                            x       y       z     vdW  Elec       q    Type
REMARK                         _______ _______ _______ _____ _____    ______ ____
ROOT
ATOM      1  C   UNL     1      -1.040  -3.504  -2.028  0.00  0.00    +0.106 A 
ATOM      2  C   UNL     1      -1.229  -3.741  -0.678  0.00  0.00    +0.030 A 
ATOM      3  C   UNL     1      -1.621  -2.716   0.158  0.00  0.00    +0.025 A 
ATOM      4  C   UNL     1      -1.831  -1.439  -0.349  0.00  0.00    +0.031 A 
ATOM      5  C   UNL     1      -1.626  -1.204  -1.713  0.00  0.00    -0.018 A 
ATOM      6  C   UNL     1      -1.239  -2.235  -2.540  0.00  0.00    +0.034 A 
ATOM      7  C   UNL     1      -1.838   0.174  -2.207  0.00  0.00    +0.049 C 
ATOM      8  C   UNL     1      -2.209   0.454  -3.618  0.00  0.00    -0.023 C 
ATOM      9  C   UNL     1      -2.961   1.548  -3.650  0.00  0.00    -0.030 C 
ATOM     10  C   UNL     1      -3.180   2.074  -2.230  0.00  0.00    +0.033 C 
ATOM     11  C   UNL     1      -3.017   0.795  -1.399  0.00  0.00    +0.029 C 
ATOM     12  C   UNL     1      -2.497   0.952   0.019  0.00  0.00    +0.105 C 
ATOM     13  N   UNL     1      -2.263  -0.423   0.512  0.00  0.00    -0.336 N 
ATOM     14  H   UNL     1      -2.413  -0.625   1.449  0.00  0.00    +0.147 HD
ENDROOT
BRANCH  12  15
ATOM     15  C   UNL     1      -1.206   1.730   0.017  0.00  0.00    -0.019 A 
ATOM     16  C   UNL     1      -0.013   1.076   0.008  0.00  0.00    +0.006 A 
ATOM     17  C   UNL     1       1.191   1.778   0.000  0.00  0.00    +0.001 A 
ATOM     18  C   UNL     1       1.207   3.140   0.007  0.00  0.00    +0.008 A 
ATOM     19  C   UNL     1      -0.005   3.850   0.023  0.00  0.00    -0.018 A 
ATOM     20  C   UNL     1      -1.229   3.135   0.031  0.00  0.00    -0.013 A 
ATOM     21  C   UNL     1      -2.442   3.845   0.045  0.00  0.00    +0.009 A 
ATOM     22  C   UNL     1      -2.425   5.206   0.052  0.00  0.00    +0.001 A 
ATOM     23  C   UNL     1      -1.221   5.909   0.045  0.00  0.00    +0.001 A 
ATOM     24  C   UNL     1      -0.028   5.255   0.030  0.00  0.00    +0.008 A 
ENDBRANCH  12  15
BRANCH   1  25
ATOM     25  S   UNL     1      -0.547  -4.818  -3.093  0.00  0.00    +0.060 S 
ATOM     26  O   UNL     1      -0.957  -6.025  -2.466  0.00  0.00    -0.153 OA
ATOM     27  O   UNL     1      -0.968  -4.458  -4.402  0.00  0.00    -0.153 OA
BRANCH  25  29
ATOM     28  C   UNL     1       1.846  -5.640  -2.140  0.00  0.00    +0.131 C 
ATOM     29  N   UNL     1       1.108  -4.835  -3.116  0.00  0.00    -0.183 NA
ATOM     30  C   UNL     1       1.835  -4.044  -4.113  0.00  0.00    +0.131 C 
ENDBRANCH  25  29
ENDBRANCH   1  25
TORSDOF 3
