REMARK  Name = ZINC32594565
REMARK  4 active torsions:
REMARK  status: ('A' for Active; 'I' for Inactive)
REMARK    1  A    between atoms: C_1  and  C_2
REMARK    2  A    between atoms: C_7  and  N_8
REMARK    3  A    between atoms: C_9  and  C_11
REMARK    4  A    between atoms: C_11  and  C_12
REMARK                            x       y       z     vdW  Elec       q    Type
REMARK                         _______ _______ _______ _____ _____    ______ ____
ROOT
ATOM      1  C   UNL     1       2.583   0.553   0.529  0.00  0.00    +0.097 C 
ATOM      2  C   UNL     1       1.744  -0.387  -0.334  0.00  0.00    +0.095 C 
ATOM      3  S   UNL     1      -0.010  -0.027   0.001  0.00  0.00    -0.106 S 
ATOM      4  C   UNL     1      -0.047   1.754   0.005  0.00  0.00    +0.087 A 
ATOM      5  C   UNL     1       1.099   2.473  -0.005  0.00  0.00    +0.033 A 
ATOM      6  S   UNL     1       0.529   4.154   0.023  0.00  0.00    -0.030 S 
ATOM      7  C   UNL     1      -1.176   3.830   0.038  0.00  0.00    +0.289 A 
ATOM      8  O   UNL     1      -2.103   4.620   0.058  0.00  0.00    -0.260 OA
ATOM      9  N   UNL     1      -1.213   2.483   0.025  0.00  0.00    -0.311 N 
ATOM     10  H   UNL     1      -2.184   1.968   0.031  0.00  0.00    +0.170 HD
ATOM     11  C   UNL     1       2.491   1.970  -0.036  0.00  0.00    +0.080 C 
ATOM     12  C   UNL     1       3.486   2.851   0.657  0.00  0.00    +0.004 A 
ATOM     13  C   UNL     1       3.277   4.218   0.699  0.00  0.00    +0.008 A 
ATOM     14  C   UNL     1       4.195   5.047   1.314  0.00  0.00    +0.001 A 
ATOM     15  C   UNL     1       5.331   4.509   1.892  0.00  0.00    +0.004 A 
ATOM     16  C   UNL     1       5.543   3.147   1.859  0.00  0.00    +0.046 A 
ATOM     17  C   UNL     1       4.619   2.306   1.245  0.00  0.00    +0.135 A 
ATOM     18  O   UNL     1       4.865   0.968   1.250  0.00  0.00    -0.425 OA
ATOM     19  C   UNL     1       4.041   0.167   0.539  0.00  0.00    +0.321 C 
ATOM     20  O   UNL     1       4.449  -0.803  -0.054  0.00  0.00    -0.250 OA
ENDROOT
BRANCH   1  21
ATOM     21  C   UNL     1       2.044   0.545   1.961  0.00  0.00    +0.116 C 
BRANCH  21  23
ATOM     22  N   UNL     1       1.699  -1.102   3.774  0.00  0.00    -0.285 N 
ATOM     23  C   UNL     1       2.121  -0.853   2.519  0.00  0.00    +0.218 C 
ATOM     24  O   UNL     1       2.563  -1.754   1.838  0.00  0.00    -0.275 OA
ATOM     25  H   UNL     1       1.383  -0.272   4.423  0.00  0.00    +0.155 HD
BRANCH  22  32
ATOM     26  C   UNL     1       1.874  -1.516   6.584  0.00  0.00    +0.045 C 
ATOM     27  C   UNL     1       1.744  -2.664   5.616  0.00  0.00    -0.029 A 
ATOM     28  C   UNL     1       1.702  -3.962   6.085  0.00  0.00    +0.005 A 
ATOM     29  C   UNL     1       1.588  -5.016   5.197  0.00  0.00    +0.000 A 
ATOM     30  C   UNL     1       1.512  -4.774   3.838  0.00  0.00    +0.002 A 
ATOM     31  C   UNL     1       1.548  -3.478   3.363  0.00  0.00    +0.023 A 
ATOM     32  C   UNL     1       1.662  -2.417   4.252  0.00  0.00    +0.036 A 
ENDBRANCH  22  32
ENDBRANCH  21  23
ENDBRANCH   1  21
TORSDOF 3
