REMARK  Name = ZINC01414779
REMARK  10 active torsions:
REMARK  status: ('A' for Active; 'I' for Inactive)
REMARK    1  A    between atoms: C_1  and  C_2
REMARK    2  A    between atoms: C_2  and  O_3
REMARK    3  A    between atoms: O_3  and  C_4
REMARK    4  A    between atoms: C_6  and  C_11
REMARK    5  A    between atoms: C_9  and  O_10
REMARK    6  A    between atoms: C_13  and  C_14
REMARK    7  A    between atoms: C_14  and  C_15
REMARK    8  A    between atoms: N_27  and  C_28
REMARK    9  A    between atoms: C_28  and  C_29
REMARK   10  A    between atoms: C_29  and  C_30
REMARK                            x       y       z     vdW  Elec       q    Type
REMARK                         _______ _______ _______ _____ _____    ______ ____
ROOT
ATOM      1  C   UNL     1       5.261  -2.206  -0.921  0.00  0.00    +0.145 C 
ATOM      2  C   UNL     1       5.513  -3.576  -1.506  0.00  0.00    +0.076 C 
ATOM      3  C   UNL     1       4.281  -4.249  -1.468  0.00  0.00    +0.249 C 
ATOM      4  O   UNL     1       4.075  -5.386  -1.854  0.00  0.00    -0.282 OA
ATOM      5  C   UNL     1       3.270  -3.332  -0.876  0.00  0.00    +0.288 C 
ATOM      6  O   UNL     1       2.100  -3.606  -0.700  0.00  0.00    -0.266 OA
ATOM      7  N   UNL     1       3.843  -2.161  -0.553  0.00  0.00    -0.283 N 
ENDROOT
BRANCH   1  10
ATOM      8  C   UNL     1       6.673  -2.572   2.564  0.00  0.00    +0.162 A 
ATOM      9  C   UNL     1       5.885  -2.756   1.439  0.00  0.00    +0.055 A 
ATOM     10  C   UNL     1       6.119  -2.005   0.302  0.00  0.00    -0.019 A 
ATOM     11  C   UNL     1       7.141  -1.075   0.282  0.00  0.00    +0.009 A 
ATOM     12  C   UNL     1       7.927  -0.883   1.403  0.00  0.00    +0.049 A 
ATOM     13  C   UNL     1       7.698  -1.632   2.546  0.00  0.00    +0.158 A 
BRANCH  13  14
ATOM     14  O   UNL     1       8.474  -1.448   3.647  0.00  0.00    -0.503 OA
ATOM     15  H   UNL     1       9.284  -0.705   3.632  0.00  0.00    +0.292 HD
ENDBRANCH  13  14
BRANCH   8  16
ATOM     16  O   UNL     1       6.444  -3.310   3.683  0.00  0.00    -0.489 OA
BRANCH  16  18
ATOM     17  C   UNL     1       5.145  -4.827   5.045  0.00  0.00    +0.048 C 
ATOM     18  C   UNL     1       5.305  -4.172   3.671  0.00  0.00    +0.226 C 
ENDBRANCH  16  18
ENDBRANCH   8  16
ENDBRANCH   1  10
BRANCH   2  19
ATOM     19  C   UNL     1       6.711  -4.067  -1.982  0.00  0.00    +0.195 C 
ATOM     20  O   UNL     1       6.808  -5.359  -2.363  0.00  0.00    -0.287 OA
BRANCH  19  21
ATOM     21  C   UNL     1       7.885  -3.183  -2.074  0.00  0.00    +0.022 A 
ATOM     22  C   UNL     1       7.774  -1.930  -2.687  0.00  0.00    +0.013 A 
ATOM     23  C   UNL     1       8.876  -1.105  -2.765  0.00  0.00    +0.021 A 
ATOM     24  C   UNL     1      10.093  -1.518  -2.248  0.00  0.00    +0.041 A 
ATOM     25  C   UNL     1      10.212  -2.760  -1.645  0.00  0.00    +0.021 A 
ATOM     26  C   UNL     1       9.117  -3.593  -1.555  0.00  0.00    +0.013 A 
ATOM     27 CL   UNL     1      11.476  -0.475  -2.356  0.00  0.00    -0.084 Cl
ENDBRANCH  19  21
ENDBRANCH   2  19
BRANCH   7  28
ATOM     28  C   UNL     1       3.158  -1.018   0.057  0.00  0.00    +0.114 C 
BRANCH  28  29
ATOM     29  C   UNL     1       3.239  -1.128   1.580  0.00  0.00    +0.056 C 
BRANCH  29  30
ATOM     30  C   UNL     1       2.534   0.048   2.207  0.00  0.00    -0.021 A 
ATOM     31  C   UNL     1       3.102   1.193   2.617  0.00  0.00    +0.087 A 
ATOM     32  N   UNL     1       2.149   2.027   3.134  0.00  0.00    -0.360 N 
ATOM     33  H   UNL     1       2.436   3.017   3.521  0.00  0.00    +0.165 HD
ATOM     34  C   UNL     1       0.913   1.424   3.069  0.00  0.00    +0.047 A 
ATOM     35  C   UNL     1       1.100   0.158   2.485  0.00  0.00    +0.003 A 
ATOM     36  C   UNL     1       0.007  -0.688   2.291  0.00  0.00    +0.010 A 
ATOM     37  C   UNL     1      -1.242  -0.279   2.665  0.00  0.00    +0.001 A 
ATOM     38  C   UNL     1      -1.431   0.967   3.246  0.00  0.00    +0.002 A 
ATOM     39  C   UNL     1      -0.366   1.818   3.447  0.00  0.00    +0.026 A 
ENDBRANCH  29  30
ENDBRANCH  28  29
ENDBRANCH   7  28
TORSDOF 9
