REMARK  Name = ZINC15659161
REMARK  3 active torsions:
REMARK  status: ('A' for Active; 'I' for Inactive)
REMARK    1  A    between atoms: C_1  and  O_2
REMARK    2  A    between atoms: O_2  and  C_3
REMARK    3  A    between atoms: C_5  and  C_20
REMARK                            x       y       z     vdW  Elec       q    Type
REMARK                         _______ _______ _______ _____ _____    ______ ____
ROOT
ATOM      1  C   UNL     1      -1.417   1.315  -3.629  0.00  0.00    +0.183 C 
ATOM      2  C   UNL     1      -0.636   0.740  -2.427  0.00  0.00    +0.184 C 
ATOM      3  O   UNL     1       0.744   0.745  -2.846  0.00  0.00    -0.340 OA
ATOM      4  C   UNL     1       0.738   0.332  -4.229  0.00  0.00    +0.285 C 
ATOM      5  C   UNL     1      -0.520   1.009  -4.844  0.00  0.00    +0.209 C 
ATOM      6  O   UNL     1       0.005   2.251  -5.365  0.00  0.00    -0.338 OA
ATOM      7  C   UNL     1       1.313   1.884  -5.845  0.00  0.00    +0.174 C 
ATOM      8  O   UNL     1       1.852   0.955  -4.895  0.00  0.00    -0.317 OA
ATOM      9  C   UNL     1       1.193   1.223  -7.216  0.00  0.00    +0.065 C 
ATOM     10  C   UNL     1       2.585   0.832  -7.718  0.00  0.00    +0.005 C 
ATOM     11  C   UNL     1       3.460   2.083  -7.817  0.00  0.00    +0.000 C 
ATOM     12  C   UNL     1       3.587   2.728  -6.435  0.00  0.00    +0.005 C 
ATOM     13  C   UNL     1       2.199   3.125  -5.928  0.00  0.00    +0.065 C 
ENDROOT
BRANCH   2  14
ATOM     14  C   UNL     1      -0.823   1.629  -1.196  0.00  0.00    +0.179 C 
ATOM     15  C   UNL     1      -0.013   1.086   0.008  0.00  0.00    +0.197 C 
ATOM     16  O   UNL     1      -0.745   1.579   1.148  0.00  0.00    -0.346 OA
ATOM     17  C   UNL     1      -2.079   1.870   0.698  0.00  0.00    +0.171 C 
ATOM     18  O   UNL     1      -2.180   1.547  -0.698  0.00  0.00    -0.340 OA
ATOM     19  C   UNL     1      -3.083   1.029   1.488  0.00  0.00    +0.065 C 
ATOM     20  C   UNL     1      -4.500   1.339   1.002  0.00  0.00    +0.005 C 
ATOM     21  C   UNL     1      -4.797   2.825   1.210  0.00  0.00    +0.000 C 
ATOM     22  C   UNL     1      -3.794   3.663   0.414  0.00  0.00    +0.005 C 
ATOM     23  C   UNL     1      -2.376   3.357   0.899  0.00  0.00    +0.065 C 
ENDBRANCH   2  14
BRANCH   1  25
ATOM     24  C   UNL     1      -3.705   1.488  -4.324  0.00  0.00    +0.194 C 
ATOM     25  O   UNL     1      -2.682   0.664  -3.761  0.00  0.00    -0.374 OA
ENDBRANCH   1  25
TORSDOF 2
