REMARK  Name = ZINC19976164
REMARK  3 active torsions:
REMARK  status: ('A' for Active; 'I' for Inactive)
REMARK    1  A    between atoms: C_4  and  O_7
REMARK    2  A    between atoms: O_7  and  C_8
REMARK    3  A    between atoms: C_8  and  C_9
REMARK                            x       y       z     vdW  Elec       q    Type
REMARK                         _______ _______ _______ _____ _____    ______ ____
ROOT
ATOM      1  C   UNL     1      -0.856  -0.712  -0.758  0.00  0.00    +0.254 C 
ATOM      2  O   UNL     1      -0.819  -1.924  -0.747  0.00  0.00    -0.272 OA
ATOM      3  N   UNL     1       0.002  -0.004   0.002  0.00  0.00    -0.293 N 
ATOM      4  C   UNL     1       0.995  -0.672   0.857  0.00  0.00    +0.114 C 
ATOM      5  C   UNL     1       2.407  -0.334   0.373  0.00  0.00    +0.075 C 
ATOM      6  C   UNL     1       2.517   1.170   0.158  0.00  0.00    +0.057 A 
ATOM      7  C   UNL     1       1.403   1.929  -0.001  0.00  0.00    +0.032 A 
ATOM      8  S   UNL     1       2.065   3.559  -0.217  0.00  0.00    -0.056 S 
ATOM      9  C   UNL     1       3.743   3.126  -0.081  0.00  0.00    +0.156 A 
ATOM     10  N   UNL     1       3.678   1.824   0.110  0.00  0.00    -0.230 NA
ATOM     11  N   UNL     1       4.862   3.941  -0.154  0.00  0.00    -0.338 N 
ATOM     12  C   UNL     1      -0.018   1.474   0.010  0.00  0.00    +0.152 C 
ATOM     13  H   UNL     1       5.867   3.507  -0.046  0.00  0.00    +0.144 HD
ATOM     14  H   UNL     1       4.745   5.022  -0.321  0.00  0.00    +0.144 HD
ENDROOT
BRANCH   1  15
ATOM     15  C   UNL     1      -1.863   0.003  -1.623  0.00  0.00    +0.324 C 
BRANCH  15  16
ATOM     16  O   UNL     1      -2.652  -0.958  -2.328  0.00  0.00    -0.483 OA
BRANCH  16  20
ATOM     17  C   UNL     1      -5.572   0.506  -4.848  0.00  0.00    +0.000 A 
ATOM     18  C   UNL     1      -5.394  -0.859  -4.717  0.00  0.00    +0.004 A 
ATOM     19  C   UNL     1      -4.417  -1.351  -3.874  0.00  0.00    +0.045 A 
ATOM     20  C   UNL     1      -3.614  -0.475  -3.158  0.00  0.00    +0.121 A 
ATOM     21  C   UNL     1      -3.798   0.894  -3.287  0.00  0.00    +0.045 A 
ATOM     22  C   UNL     1      -4.772   1.381  -4.136  0.00  0.00    +0.004 A 
ENDBRANCH  16  20
ENDBRANCH  15  16
ENDBRANCH   1  15
TORSDOF 3
