REMARK  Name = ZINC02366225
REMARK  8 active torsions:
REMARK  status: ('A' for Active; 'I' for Inactive)
REMARK    1  A    between atoms: C_1  and  C_2
REMARK    2  A    between atoms: C_5  and  C_8
REMARK    3  A    between atoms: N_9  and  N_10
REMARK    4  A    between atoms: C_11  and  N_34
REMARK    5  A    between atoms: C_12  and  C_23
REMARK    6  A    between atoms: N_25  and  C_26
REMARK    7  A    between atoms: C_26  and  C_27
REMARK    8  A    between atoms: C_27  and  C_28
REMARK                            x       y       z     vdW  Elec       q    Type
REMARK                         _______ _______ _______ _____ _____    ______ ____
ROOT
ATOM      1  N   UNL     1      -4.837   0.936   0.030  0.00  0.00    -0.198 N 
ATOM      2  C   UNL     1      -5.513   0.553  -1.091  0.00  0.00    +0.134 A 
ATOM      3  C   UNL     1      -6.670  -0.139  -0.747  0.00  0.00    +0.105 A 
ATOM      4  C   UNL     1      -6.713  -0.177   0.724  0.00  0.00    +0.124 A 
ATOM      5  C   UNL     1      -5.509   0.531   1.168  0.00  0.00    +0.183 A 
ATOM      6  N   UNL     1      -5.272   0.660   2.456  0.00  0.00    -0.224 NA
ATOM      7  C   UNL     1      -6.129   0.147   3.347  0.00  0.00    +0.092 A 
ATOM      8  C   UNL     1      -5.883   0.280   4.726  0.00  0.00    +0.030 A 
ATOM      9  C   UNL     1      -6.760  -0.245   5.624  0.00  0.00    +0.002 A 
ATOM     10  C   UNL     1      -7.905  -0.917   5.200  0.00  0.00    +0.002 A 
ATOM     11  C   UNL     1      -8.176  -1.067   3.875  0.00  0.00    +0.030 A 
ATOM     12  C   UNL     1      -7.293  -0.537   2.916  0.00  0.00    +0.090 A 
ATOM     13  N   UNL     1      -7.551  -0.679   1.610  0.00  0.00    -0.241 NA
ENDROOT
BRANCH   3  14
ATOM     14  C   UNL     1      -7.652  -0.711  -1.666  0.00  0.00    +0.250 C 
ATOM     15  O   UNL     1      -8.597  -0.041  -2.041  0.00  0.00    -0.270 OA
ATOM     16  N   UNL     1      -7.511  -1.980  -2.098  0.00  0.00    -0.311 N 
ATOM     17  H   UNL     1      -6.759  -2.513  -1.798  0.00  0.00    +0.149 HD
BRANCH  16  18
ATOM     18  C   UNL     1      -8.496  -2.553  -3.018  0.00  0.00    +0.109 C 
BRANCH  18  19
ATOM     19  C   UNL     1      -8.106  -3.995  -3.349  0.00  0.00    +0.049 C 
BRANCH  19  20
ATOM     20  C   UNL     1      -9.118  -4.585  -4.297  0.00  0.00    -0.072 C 
ATOM     21  C   UNL     1      -8.862  -4.539  -5.565  0.00  0.00    -0.028 C 
ATOM     22  C   UNL     1      -9.776  -5.074  -6.627  0.00  0.00    +0.027 C 
ATOM     23  C   UNL     1     -10.800  -6.029  -6.009  0.00  0.00    +0.004 C 
ATOM     24  C   UNL     1     -11.433  -5.341  -4.793  0.00  0.00    +0.005 C 
ATOM     25  C   UNL     1     -10.358  -5.194  -3.711  0.00  0.00    +0.030 C 
ENDBRANCH  19  20
ENDBRANCH  18  19
ENDBRANCH  16  18
ENDBRANCH   3  14
BRANCH   2  26
ATOM     26  N   UNL     1      -5.108   0.811  -2.375  0.00  0.00    -0.342 N 
ATOM     27  H   UNL     1      -4.285   1.299  -2.535  0.00  0.00    +0.144 HD
ATOM     28  H   UNL     1      -5.645   0.506  -3.123  0.00  0.00    +0.144 HD
ENDBRANCH   2  26
BRANCH   1  30
ATOM     29  C   UNL     1      -2.501   1.010   0.019  0.00  0.00    +0.141 C 
ATOM     30  N   UNL     1      -3.631   1.648   0.028  0.00  0.00    -0.171 NA
BRANCH  29  35
ATOM     31  C   UNL     1       2.452   3.933  -0.001  0.00  0.00    +0.044 C 
ATOM     32  C   UNL     1       1.155   3.167   0.008  0.00  0.00    -0.050 A 
ATOM     33  C   UNL     1       1.171   1.783   0.001  0.00  0.00    +0.004 A 
ATOM     34  C   UNL     1      -0.013   1.076   0.008  0.00  0.00    +0.010 A 
ATOM     35  C   UNL     1      -1.231   1.759   0.017  0.00  0.00    -0.005 A 
ATOM     36  C   UNL     1      -1.240   3.156   0.030  0.00  0.00    +0.010 A 
ATOM     37  C   UNL     1      -0.048   3.851   0.022  0.00  0.00    +0.004 A 
ENDBRANCH  29  35
ENDBRANCH   1  30
TORSDOF 7
