REMARK  Name = ZINC00217598
REMARK  5 active torsions:
REMARK  status: ('A' for Active; 'I' for Inactive)
REMARK    1  A    between atoms: C_4  and  C_7
REMARK    2  A    between atoms: C_7  and  C_8
REMARK    3  A    between atoms: C_8  and  S_9
REMARK    4  A    between atoms: S_9  and  C_10
REMARK    5  A    between atoms: N_23  and  N_24
REMARK                            x       y       z     vdW  Elec       q    Type
REMARK                         _______ _______ _______ _____ _____    ______ ____
ROOT
ATOM      1  C   UNL     1       2.098   0.647  -0.015  0.00  0.00    +0.198 A 
ATOM      2  N   UNL     1       1.338  -0.422  -0.013  0.00  0.00    -0.120 NA
ATOM      3  N   UNL     1       0.002  -0.004   0.002  0.00  0.00    -0.108 NA
ATOM      4  C   UNL     1      -0.016   1.310   0.009  0.00  0.00    +0.257 A 
ATOM      5  N   UNL     1       1.281   1.746  -0.001  0.00  0.00    -0.254 N 
ATOM      6  C   UNL     1       1.571   3.108   0.004  0.00  0.00    +0.064 A 
ATOM      7  C   UNL     1       2.882   3.560  -0.005  0.00  0.00    +0.027 A 
ATOM      8  C   UNL     1       3.141   4.916   0.000  0.00  0.00    +0.002 A 
ATOM      9  C   UNL     1       2.102   5.833   0.016  0.00  0.00    +0.001 A 
ATOM     10  C   UNL     1       0.792   5.402   0.025  0.00  0.00    +0.015 A 
ATOM     11  C   UNL     1       0.517   4.035   0.020  0.00  0.00    +0.065 A 
ATOM     12  C   UNL     1      -0.869   3.533   0.030  0.00  0.00    +0.280 A 
ATOM     13  O   UNL     1      -1.807   4.307   0.043  0.00  0.00    -0.265 OA
ATOM     14  N   UNL     1      -1.078   2.201   0.019  0.00  0.00    -0.198 N 
ENDROOT
BRANCH  14  15
ATOM     15  N   UNL     1      -2.357   1.721   0.022  0.00  0.00    -0.293 N 
ATOM     16  H   UNL     1      -3.027   2.477   0.029  0.00  0.00    +0.163 HD
ATOM     17  H   UNL     1      -2.515   1.106  -0.762  0.00  0.00    +0.163 HD
ENDBRANCH  14  15
BRANCH   1  18
ATOM     18  S   UNL     1       3.859   0.665  -0.031  0.00  0.00    -0.085 S 
BRANCH  18  19
ATOM     19  C   UNL     1       4.317  -1.090  -0.044  0.00  0.00    +0.082 C 
BRANCH  19  20
ATOM     20  C   UNL     1       5.841  -1.220  -0.060  0.00  0.00    +0.046 C 
BRANCH  20  24
ATOM     21  C   UNL     1       6.918  -5.353  -0.091  0.00  0.00    +0.000 A 
ATOM     22  C   UNL     1       6.732  -4.678  -1.283  0.00  0.00    +0.000 A 
ATOM     23  C   UNL     1       6.384  -3.341  -1.273  0.00  0.00    +0.003 A 
ATOM     24  C   UNL     1       6.221  -2.678  -0.071  0.00  0.00    -0.047 A 
ATOM     25  C   UNL     1       6.412  -3.351   1.121  0.00  0.00    +0.003 A 
ATOM     26  C   UNL     1       6.756  -4.690   1.111  0.00  0.00    +0.000 A 
ENDBRANCH  20  24
ENDBRANCH  19  20
ENDBRANCH  18  19
ENDBRANCH   1  18
TORSDOF 5
