REMARK  Name = ZINC32508572
REMARK  16 active torsions:
REMARK  status: ('A' for Active; 'I' for Inactive)
REMARK    1  A    between atoms: C_1  and  C_2
REMARK    2  A    between atoms: C_2  and  N_3
REMARK    3  A    between atoms: N_3  and  C_4
REMARK    4  A    between atoms: N_3  and  C_6
REMARK    5  A    between atoms: C_4  and  C_5
REMARK    6  A    between atoms: C_9  and  N_13
REMARK    7  A    between atoms: C_10  and  C_12
REMARK    8  A    between atoms: N_25  and  C_26
REMARK    9  A    between atoms: C_26  and  C_28
REMARK   10  A    between atoms: C_28  and  C_29
REMARK   11  A    between atoms: C_29  and  N_30
REMARK   12  A    between atoms: C_31  and  O_33
REMARK   13  A    between atoms: O_33  and  C_34
REMARK   14  A    between atoms: C_34  and  C_35
REMARK   15  A    between atoms: C_34  and  C_36
REMARK   16  A    between atoms: C_34  and  C_37
REMARK                            x       y       z     vdW  Elec       q    Type
REMARK                         _______ _______ _______ _____ _____    ______ ____
ROOT
ATOM      1  N   UNL     1      -0.897   0.438   2.637  0.00  0.00    -0.276 N 
ATOM      2  C   UNL     1      -1.200   1.236   1.466  0.00  0.00    +0.116 C 
ATOM      3  C   UNL     1      -0.578   0.565   0.219  0.00  0.00    +0.190 C 
ATOM      4  S   UNL     1      -1.806   0.986  -1.091  0.00  0.00    -0.028 S 
ATOM      5  O   UNL     1      -1.546   2.295  -1.578  0.00  0.00    -0.174 OA
ATOM      6  O   UNL     1      -1.912  -0.099  -2.003  0.00  0.00    -0.174 OA
ATOM      7  C   UNL     1      -3.302   1.022  -0.009  0.00  0.00    +0.182 C 
ATOM      8  C   UNL     1      -2.696   1.538   1.311  0.00  0.00    +0.097 C 
ATOM      9  S   UNL     1      -3.407   0.589   2.707  0.00  0.00    -0.086 S 
ATOM     10  C   UNL     1      -1.899  -0.042   3.419  0.00  0.00    +0.154 C 
ATOM     11  N   UNL     1      -1.780  -0.820   4.489  0.00  0.00    -0.159 NA
ENDROOT
BRANCH   1  15
ATOM     12  C   UNL     1       3.073  -0.392   3.610  0.00  0.00    +0.030 A 
ATOM     13  C   UNL     1       2.357  -1.268   2.803  0.00  0.00    +0.025 A 
ATOM     14  C   UNL     1       1.043  -0.994   2.482  0.00  0.00    +0.025 A 
ATOM     15  C   UNL     1       0.436   0.159   2.964  0.00  0.00    +0.039 A 
ATOM     16  C   UNL     1       1.153   1.038   3.765  0.00  0.00    -0.027 A 
ATOM     17  C   UNL     1       2.466   0.760   4.092  0.00  0.00    +0.028 A 
ATOM     18  C   UNL     1       0.497   2.291   4.283  0.00  0.00    +0.046 C 
BRANCH  12  19
ATOM     19  N   UNL     1       4.404  -0.671   3.936  0.00  0.00    -0.330 N 
BRANCH  19  21
ATOM     20  C   UNL     1       5.705  -1.589   2.079  0.00  0.00    +0.024 C 
ATOM     21  C   UNL     1       5.044  -1.886   3.427  0.00  0.00    +0.102 C 
ENDBRANCH  19  21
BRANCH  19  22
ATOM     22  C   UNL     1       5.159   0.254   4.786  0.00  0.00    +0.102 C 
ATOM     23  C   UNL     1       4.984  -0.145   6.253  0.00  0.00    +0.024 C 
ENDBRANCH  19  22
ENDBRANCH  12  19
ENDBRANCH   1  15
BRANCH  11  24
ATOM     24  C   UNL     1      -2.865  -1.209   5.153  0.00  0.00    +0.240 C 
ATOM     25  O   UNL     1      -3.966  -0.852   4.780  0.00  0.00    -0.274 OA
BRANCH  24  26
ATOM     26  C   UNL     1      -2.730  -2.091   6.367  0.00  0.00    +0.117 C 
BRANCH  26  27
ATOM     27  C   UNL     1      -4.118  -2.389   6.938  0.00  0.00    +0.117 C 
BRANCH  27  28
ATOM     28  N   UNL     1      -3.987  -3.246   8.119  0.00  0.00    -0.281 N 
ATOM     29  C   UNL     1      -5.087  -3.640   8.791  0.00  0.00    +0.401 C 
ATOM     30  O   UNL     1      -6.187  -3.283   8.419  0.00  0.00    -0.226 OA
ATOM     31  H   UNL     1      -2.991  -3.569   8.456  0.00  0.00    +0.152 HD
BRANCH  29  32
ATOM     32  O   UNL     1      -4.966  -4.428   9.876  0.00  0.00    -0.445 OA
BRANCH  32  33
ATOM     33  C   UNL     1      -6.193  -4.813  10.551  0.00  0.00    +0.107 C 
ATOM     34  C   UNL     1      -7.088  -5.585   9.580  0.00  0.00    +0.055 C 
ATOM     35  C   UNL     1      -5.858  -5.701  11.751  0.00  0.00    +0.055 C 
ATOM     36  C   UNL     1      -6.925  -3.559  11.033  0.00  0.00    +0.055 C 
ENDBRANCH  32  33
ENDBRANCH  29  32
ENDBRANCH  27  28
ENDBRANCH  26  27
ENDBRANCH  24  26
ENDBRANCH  11  24
TORSDOF 10
