REMARK  Name = ZINC39276118
REMARK  6 active torsions:
REMARK  status: ('A' for Active; 'I' for Inactive)
REMARK    1  A    between atoms: C_1  and  C_2
REMARK    2  A    between atoms: N_6  and  C_7
REMARK    3  A    between atoms: C_7  and  C_9
REMARK    4  A    between atoms: C_9  and  C_10
REMARK    5  A    between atoms: C_12  and  C_24
REMARK    6  A    between atoms: C_17  and  O_23
REMARK                            x       y       z     vdW  Elec       q    Type
REMARK                         _______ _______ _______ _____ _____    ______ ____
ROOT
ATOM      1  C   UNL     1       0.108  -6.671   2.405  0.00  0.00    +0.114 C 
ATOM      2  C   UNL     1       0.231  -7.684   3.546  0.00  0.00    +0.034 C 
ATOM      3  C   UNL     1      -1.090  -7.812   4.262  0.00  0.00    -0.001 A 
ATOM      4  C   UNL     1      -1.095  -8.326   5.550  0.00  0.00    +0.011 A 
ATOM      5  C   UNL     1      -2.280  -8.468   6.242  0.00  0.00    +0.046 A 
ATOM      6  C   UNL     1      -3.478  -8.096   5.647  0.00  0.00    +0.120 A 
ATOM      7  C   UNL     1      -3.477  -7.580   4.363  0.00  0.00    +0.092 A 
ATOM      8  C   UNL     1      -2.281  -7.433   3.669  0.00  0.00    +0.139 A 
ATOM      9  O   UNL     1      -2.322  -6.902   2.417  0.00  0.00    -0.425 OA
ATOM     10  C   UNL     1      -1.193  -6.951   1.680  0.00  0.00    +0.317 C 
ATOM     11  O   UNL     1      -1.218  -7.208   0.499  0.00  0.00    -0.250 OA
ATOM     12  C   UNL     1       0.632  -9.046   2.976  0.00  0.00    +0.013 C 
ENDROOT
BRANCH   6  13
ATOM     13  O   UNL     1      -4.648  -8.238   6.325  0.00  0.00    -0.507 OA
ATOM     14  H   UNL     1      -4.895  -7.463   6.848  0.00  0.00    +0.292 HD
ENDBRANCH   6  13
BRANCH   1  15
ATOM     15  C   UNL     1       0.091  -5.250   2.972  0.00  0.00    +0.113 C 
BRANCH  15  16
ATOM     16  C   UNL     1       0.071  -4.257   1.838  0.00  0.00    +0.239 C 
ATOM     17  O   UNL     1       0.071  -4.648   0.686  0.00  0.00    -0.274 OA
BRANCH  16  23
ATOM     18  C   UNL     1      -0.018   1.503   0.010  0.00  0.00    +0.064 C 
ATOM     19  C   UNL     1       0.002  -0.004   0.002  0.00  0.00    +0.021 A 
ATOM     20  C   UNL     1       0.006  -0.694  -1.144  0.00  0.00    +0.069 A 
ATOM     21  S   UNL     1       0.033  -2.379  -0.561  0.00  0.00    -0.060 S 
ATOM     22  C   UNL     1       0.036  -2.076   1.093  0.00  0.00    +0.163 A 
ATOM     23  N   UNL     1       0.054  -2.955   2.096  0.00  0.00    -0.157 NA
ATOM     24  N   UNL     1       0.023  -0.718   1.159  0.00  0.00    -0.340 N 
ATOM     25  H   UNL     1       0.025  -0.266   2.018  0.00  0.00    +0.167 HD
ENDBRANCH  16  23
ENDBRANCH  15  16
ENDBRANCH   1  15
TORSDOF 4
