REMARK  Name = ZINC56237435
REMARK  3 active torsions:
REMARK  status: ('A' for Active; 'I' for Inactive)
REMARK    1  A    between atoms: C_6  and  O_7
REMARK    2  A    between atoms: O_7  and  C_8
REMARK    3  A    between atoms: C_15  and  C_17
REMARK                            x       y       z     vdW  Elec       q    Type
REMARK                         _______ _______ _______ _____ _____    ______ ____
ROOT
ATOM      1  C   UNL     1       0.275   0.946   0.004  0.00  0.00    +0.048 A 
ATOM      2  C   UNL     1       1.407   1.735  -0.024  0.00  0.00    +0.027 A 
ATOM      3  C   UNL     1       2.422   1.466  -0.935  0.00  0.00    +0.040 A 
ATOM      4  C   UNL     1       2.301   0.405  -1.819  0.00  0.00    -0.022 A 
ATOM      5  C   UNL     1       1.163  -0.383  -1.790  0.00  0.00    +0.051 A 
ATOM      6  C   UNL     1       0.151  -0.115  -0.881  0.00  0.00    +0.127 A 
ATOM      7  C   UNL     1       3.386   0.080  -2.812  0.00  0.00    +0.038 C 
ATOM      8  C   UNL     1       4.280   1.297  -3.045  0.00  0.00    +0.024 C 
ATOM      9  C   UNL     1       4.750   1.836  -1.687  0.00  0.00    +0.114 C 
ATOM     10  N   UNL     1       3.562   2.285  -0.948  0.00  0.00    -0.267 N 
ATOM     11  C   UNL     1       3.566   3.463  -0.294  0.00  0.00    +0.253 C 
ATOM     12  O   UNL     1       2.543   3.880   0.215  0.00  0.00    -0.270 OA
ENDROOT
BRANCH  11  13
ATOM     13  C   UNL     1       4.811   4.246  -0.195  0.00  0.00    +0.067 A 
ATOM     14  C   UNL     1       6.022   3.610   0.069  0.00  0.00    +0.053 A 
ATOM     15  C   UNL     1       7.191   4.345   0.162  0.00  0.00    +0.126 A 
ATOM     16  C   UNL     1       7.176   5.718  -0.005  0.00  0.00    +0.066 A 
ATOM     17  C   UNL     1       5.983   6.374  -0.269  0.00  0.00    +0.069 A 
ATOM     18  C   UNL     1       4.786   5.646  -0.373  0.00  0.00    +0.101 A 
ATOM     19  N   UNL     1       3.804   6.531  -0.637  0.00  0.00    -0.235 NA
ATOM     20  C   UNL     1       4.302   7.733  -0.708  0.00  0.00    +0.197 A 
ATOM     21  N   UNL     1       5.641   7.697  -0.480  0.00  0.00    -0.344 N 
ATOM     22  H   UNL     1       6.246   8.455  -0.477  0.00  0.00    +0.167 HD
ATOM     23  F   UNL     1       8.359   3.715   0.419  0.00  0.00    -0.205 F 
ENDBRANCH  11  13
BRANCH   6  24
ATOM     24  O   UNL     1      -0.964  -0.893  -0.857  0.00  0.00    -0.434 OA
BRANCH  24  25
ATOM     25  C   UNL     1      -1.967  -0.560   0.105  0.00  0.00    +0.541 C 
ATOM     26  F   UNL     1      -1.423  -0.642   1.392  0.00  0.00    -0.166 F 
ATOM     27  F   UNL     1      -2.422   0.742  -0.127  0.00  0.00    -0.166 F 
ENDBRANCH  24  25
ENDBRANCH   6  24
TORSDOF 3
