REMARK  Name = ZINC14548115
REMARK  6 active torsions:
REMARK  status: ('A' for Active; 'I' for Inactive)
REMARK    1  A    between atoms: C_1  and  C_2
REMARK    2  A    between atoms: C_2  and  C_3
REMARK    3  A    between atoms: C_2  and  N_4
REMARK    4  A    between atoms: C_5  and  C_7
REMARK    5  A    between atoms: C_14  and  C_23
REMARK    6  A    between atoms: C_32  and  O_33
REMARK                            x       y       z     vdW  Elec       q    Type
REMARK                         _______ _______ _______ _____ _____    ______ ____
ROOT
ATOM      1  C   UNL     1      -5.498   3.675   2.252  0.00  0.00    +0.058 A 
ATOM      2  C   UNL     1      -6.786   4.209   2.316  0.00  0.00    +0.015 A 
ATOM      3  C   UNL     1      -7.311   4.853   1.218  0.00  0.00    +0.001 A 
ATOM      4  C   UNL     1      -6.568   4.971   0.058  0.00  0.00    +0.006 A 
ATOM      5  C   UNL     1      -5.285   4.449  -0.026  0.00  0.00    -0.019 A 
ATOM      6  C   UNL     1      -4.744   3.796   1.069  0.00  0.00    +0.044 A 
ATOM      7  N   UNL     1      -3.471   3.248   1.049  0.00  0.00    -0.336 N 
ATOM      8  C   UNL     1      -2.593   3.916   0.089  0.00  0.00    +0.109 C 
ATOM      9  C   UNL     1      -3.210   3.835  -1.309  0.00  0.00    +0.029 C 
ATOM     10  C   UNL     1      -4.537   4.624  -1.315  0.00  0.00    +0.049 C 
ATOM     11  C   UNL     1      -4.109   6.063  -1.490  0.00  0.00    -0.023 C 
ATOM     12  C   UNL     1      -2.907   6.124  -2.006  0.00  0.00    -0.030 C 
ATOM     13  C   UNL     1      -2.364   4.731  -2.256  0.00  0.00    +0.033 C 
ATOM     14  H   UNL     1      -3.064   3.247   1.972  0.00  0.00    +0.147 HD
ENDROOT
BRANCH   8  15
ATOM     15  C   UNL     1      -1.247   3.238   0.084  0.00  0.00    +0.022 A 
ATOM     16  C   UNL     1      -0.070   4.005   0.102  0.00  0.00    -0.009 A 
ATOM     17  C   UNL     1      -0.115   5.409   0.126  0.00  0.00    +0.009 A 
ATOM     18  C   UNL     1       1.045   6.120   0.141  0.00  0.00    +0.001 A 
ATOM     19  C   UNL     1       2.281   5.477   0.135  0.00  0.00    +0.001 A 
ATOM     20  C   UNL     1       2.364   4.118   0.113  0.00  0.00    +0.008 A 
ATOM     21  C   UNL     1       1.188   3.350   0.096  0.00  0.00    -0.017 A 
ATOM     22  C   UNL     1       1.235   1.945   0.072  0.00  0.00    +0.012 A 
ATOM     23  C   UNL     1       0.077   1.231   0.056  0.00  0.00    +0.046 A 
ATOM     24  C   UNL     1      -1.164   1.875   0.056  0.00  0.00    +0.122 A 
BRANCH  24  25
ATOM     25  O   UNL     1      -2.303   1.135   0.033  0.00  0.00    -0.506 OA
ATOM     26  H   UNL     1      -2.641   0.905   0.909  0.00  0.00    +0.292 HD
ENDBRANCH  24  25
ENDBRANCH   8  15
BRANCH   1  28
ATOM     27  N   UNL     1      -5.591   2.985   4.595  0.00  0.00    -0.309 N 
ATOM     28  C   UNL     1      -4.927   2.984   3.422  0.00  0.00    +0.246 C 
ATOM     29  O   UNL     1      -3.857   2.414   3.330  0.00  0.00    -0.270 OA
ATOM     30  H   UNL     1      -6.445   3.439   4.669  0.00  0.00    +0.149 HD
BRANCH  27  32
ATOM     31  C   UNL     1      -4.050   3.233   6.478  0.00  0.00    +0.027 C 
ATOM     32  C   UNL     1      -5.024   2.298   5.758  0.00  0.00    +0.067 C 
ATOM     33  C   UNL     1      -6.149   1.901   6.715  0.00  0.00    +0.027 C 
ENDBRANCH  27  32
ENDBRANCH   1  28
TORSDOF 4
