REMARK  Name = ZINC36183341
REMARK  8 active torsions:
REMARK  status: ('A' for Active; 'I' for Inactive)
REMARK    1  A    between atoms: C_1  and  C_2
REMARK    2  A    between atoms: C_2  and  C_3
REMARK    3  A    between atoms: C_3  and  C_4
REMARK    4  A    between atoms: C_4  and  N_5
REMARK    5  A    between atoms: C_6  and  N_16
REMARK    6  A    between atoms: N_16  and  C_17
REMARK    7  A    between atoms: C_22  and  C_27
REMARK    8  A    between atoms: C_24  and  C_26
REMARK                            x       y       z     vdW  Elec       q    Type
REMARK                         _______ _______ _______ _____ _____    ______ ____
ROOT
ATOM      1  N   UNL     1       1.681  -2.540   2.075  0.00  0.00    -0.308 N 
ATOM      2  C   UNL     1       3.110  -2.807   2.292  0.00  0.00    +0.047 C 
ATOM      3  C   UNL     1       3.219  -3.318   3.704  0.00  0.00    -0.059 C 
ATOM      4  C   UNL     1       1.989  -3.335   4.218  0.00  0.00    +0.014 C 
ATOM      5  C   UNL     1       1.036  -2.849   3.217  0.00  0.00    +0.241 C 
ATOM      6  O   UNL     1      -0.164  -2.744   3.390  0.00  0.00    -0.270 OA
ATOM      7  C   UNL     1       1.672  -3.789   5.624  0.00  0.00    +0.040 C 
ATOM      8  C   UNL     1       2.866  -4.586   6.160  0.00  0.00    +0.005 C 
ATOM      9  C   UNL     1       4.154  -3.788   5.937  0.00  0.00    +0.005 C 
ATOM     10  C   UNL     1       4.466  -3.739   4.436  0.00  0.00    +0.031 C 
ENDROOT
BRANCH   2  11
ATOM     11  N   UNL     1       3.887  -1.569   2.138  0.00  0.00    +0.396 N 
ATOM     12  H   UNL     1       3.577  -1.079   1.312  0.00  0.00    -0.082 HD
ATOM     13  H   UNL     1       3.750  -0.983   2.947  0.00  0.00    -0.082 HD
BRANCH  11  14
ATOM     14  C   UNL     1       5.312  -1.899   2.006  0.00  0.00    -0.066 C 
ATOM     15  C   UNL     1       5.543  -2.653   0.695  0.00  0.00    -0.015 C 
ATOM     16  C   UNL     1       7.027  -2.997   0.558  0.00  0.00    -0.001 C 
ATOM     17  C   UNL     1       7.851  -1.707   0.556  0.00  0.00    +0.003 C 
ATOM     18  C   UNL     1       7.621  -0.953   1.867  0.00  0.00    -0.013 C 
ATOM     19  C   UNL     1       6.136  -0.610   2.004  0.00  0.00    -0.025 C 
ATOM     20  C   UNL     1       5.906   0.144   3.315  0.00  0.00    +0.006 C 
ATOM     21  C   UNL     1       8.051  -1.832   3.043  0.00  0.00    +0.008 C 
ENDBRANCH  11  14
ENDBRANCH   2  11
BRANCH   1  22
ATOM     22  C   UNL     1       1.071  -2.026   0.846  0.00  0.00    +0.106 C 
BRANCH  22  23
ATOM     23  C   UNL     1       0.926  -0.506   0.946  0.00  0.00    +0.019 C 
BRANCH  23  25
ATOM     24  C   UNL     1       0.141   1.546  -0.244  0.00  0.00    +0.004 C 
ATOM     25  C   UNL     1       0.177   0.017  -0.282  0.00  0.00    -0.002 C 
ENDBRANCH  23  25
ENDBRANCH  22  23
ENDBRANCH   1  22
TORSDOF 5
