REMARK  Name = ZINC03447644
REMARK  2 active torsions:
REMARK  status: ('A' for Active; 'I' for Inactive)
REMARK    1  A    between atoms: C_19  and  C_21
REMARK    2  A    between atoms: C_21  and  N_65
REMARK                            x       y       z     vdW  Elec       q    Type
REMARK                         _______ _______ _______ _____ _____    ______ ____
ROOT
ATOM      1  C   UNL     1       7.243   7.454   6.869  0.00  0.00    +0.005 A 
ATOM      2  C   UNL     1       7.763   8.422   6.019  0.00  0.00    +0.018 A 
ATOM      3  C   UNL     1       7.801   8.179   4.661  0.00  0.00    +0.084 A 
ATOM      4  C   UNL     1       6.848   6.096   4.940  0.00  0.00    +0.099 A 
ATOM      5  C   UNL     1       6.779   6.273   6.319  0.00  0.00    +0.042 A 
ATOM      6  N   UNL     1       6.385   4.914   4.374  0.00  0.00    -0.314 N 
ATOM      7  C   UNL     1       6.549   4.931   2.913  0.00  0.00    +0.125 C 
ATOM      8  C   UNL     1       5.956   3.650   2.322  0.00  0.00    +0.125 C 
ATOM      9  N   UNL     1       6.629   2.484   2.911  0.00  0.00    -0.312 N 
ATOM     10  C   UNL     1       6.465   2.467   4.371  0.00  0.00    +0.125 C 
ATOM     11  C   UNL     1       7.058   3.748   4.963  0.00  0.00    +0.125 C 
ATOM     12  C   UNL     1       6.168   1.308   2.347  0.00  0.00    +0.133 A 
ATOM     13  C   UNL     1       7.048   0.470   1.607  0.00  0.00    +0.051 A 
ATOM     14  C   UNL     1       8.471   0.661   1.320  0.00  0.00    -0.025 A 
ATOM     15  C   UNL     1       9.081  -0.293   0.588  0.00  0.00    -0.004 A 
ATOM     16  S   UNL     1       7.818  -1.487   0.240  0.00  0.00    -0.073 S 
ATOM     17  C   UNL     1       6.468  -0.701   1.081  0.00  0.00    +0.114 A 
ATOM     18  N   UNL     1       5.196  -0.988   1.275  0.00  0.00    -0.227 NA
ATOM     19  C   UNL     1       4.427  -0.169   1.966  0.00  0.00    +0.116 A 
ATOM     20  N   UNL     1       4.904   0.947   2.489  0.00  0.00    -0.219 NA
ATOM     21  C   UNL     1      10.517  -0.331   0.161  0.00  0.00    +0.043 C 
ATOM     22  C   UNL     1      11.120   1.067   0.363  0.00  0.00    +0.005 C 
ATOM     23  C   UNL     1      10.743   1.565   1.762  0.00  0.00    +0.005 C 
ATOM     24  C   UNL     1       9.248   1.878   1.817  0.00  0.00    +0.037 C 
ATOM     25  N   UNL     1       7.359   7.029   4.086  0.00  0.00    -0.350 N 
ATOM     26  H   UNL     1       7.408   6.872   3.073  0.00  0.00    +0.166 HD
ENDROOT
BRANCH  19  27
ATOM     27  C   UNL     1       2.974  -0.516   2.168  0.00  0.00    -0.001 C 
BRANCH  27  33
ATOM     28  C   UNL     1       0.801  -0.456   1.104  0.00  0.00    -0.078 C 
ATOM     29  C   UNL     1       0.044   0.042  -0.129  0.00  0.00    -0.019 C 
ATOM     30  C   UNL     1       0.040   1.573  -0.135  0.00  0.00    -0.004 C 
ATOM     31  C   UNL     1       1.485   2.080  -0.117  0.00  0.00    -0.019 C 
ATOM     32  C   UNL     1       2.200   1.522   1.116  0.00  0.00    -0.078 C 
ATOM     33  N   UNL     1       2.191   0.045   1.049  0.00  0.00    +0.384 N 
ATOM     34  H   UNL     1       2.616  -0.251   0.163  0.00  0.00    -0.081 HD
ENDBRANCH  27  33
ENDBRANCH  19  27
TORSDOF 2
