REMARK  Name = ZINC13321344
REMARK  8 active torsions:
REMARK  status: ('A' for Active; 'I' for Inactive)
REMARK    1  A    between atoms: C_3  and  O_30
REMARK    2  A    between atoms: C_4  and  C_8
REMARK    3  A    between atoms: C_6  and  O_7
REMARK    4  A    between atoms: N_10  and  N_11
REMARK    5  A    between atoms: C_12  and  C_13
REMARK    6  A    between atoms: C_18  and  O_19
REMARK    7  A    between atoms: O_19  and  C_20
REMARK    8  A    between atoms: C_20  and  C_21
REMARK                            x       y       z     vdW  Elec       q    Type
REMARK                         _______ _______ _______ _____ _____    ______ ____
ROOT
ATOM      1  C   UNL     1      -2.430  -2.777   0.252  0.00  0.00    +0.038 A 
ATOM      2  C   UNL     1      -2.407  -4.171   0.166  0.00  0.00    +0.033 A 
ATOM      3  C   UNL     1      -3.588  -4.872   0.031  0.00  0.00    +0.042 A 
ATOM      4  C   UNL     1      -4.798  -4.198  -0.020  0.00  0.00    +0.023 A 
ATOM      5  C   UNL     1      -4.833  -2.819   0.063  0.00  0.00    +0.048 A 
ATOM      6  C   UNL     1      -3.657  -2.101   0.204  0.00  0.00    +0.130 A 
ATOM      7 CL   UNL     1      -3.559  -6.604  -0.075  0.00  0.00    -0.084 Cl
ENDROOT
BRANCH   1   9
ATOM      8  N   UNL     1      -1.204  -0.739   0.586  0.00  0.00    -0.187 NA
ATOM      9  C   UNL     1      -1.173  -2.023   0.396  0.00  0.00    +0.142 C 
BRANCH   8  12
ATOM     10  C   UNL     1      -0.033   1.309   0.903  0.00  0.00    +0.267 C 
ATOM     11  O   UNL     1      -1.094   1.872   1.094  0.00  0.00    -0.268 OA
ATOM     12  N   UNL     1      -0.012  -0.003   0.595  0.00  0.00    -0.203 N 
ATOM     13  H   UNL     1       0.828  -0.437   0.379  0.00  0.00    +0.178 HD
BRANCH  10  17
ATOM     14  C   UNL     1       3.608   3.485   1.197  0.00  0.00    +0.049 A 
ATOM     15  C   UNL     1       2.406   4.128   1.418  0.00  0.00    +0.050 A 
ATOM     16  C   UNL     1       1.214   3.427   1.325  0.00  0.00    +0.129 A 
ATOM     17  C   UNL     1       1.231   2.063   1.004  0.00  0.00    +0.083 A 
ATOM     18  C   UNL     1       2.452   1.419   0.786  0.00  0.00    +0.062 A 
ATOM     19  C   UNL     1       3.632   2.133   0.879  0.00  0.00    +0.118 A 
BRANCH  19  20
ATOM     20  O   UNL     1       4.821   1.508   0.663  0.00  0.00    -0.507 OA
ATOM     21  H   UNL     1       5.215   1.127   1.460  0.00  0.00    +0.292 HD
ENDBRANCH  19  20
BRANCH  16  22
ATOM     22  O   UNL     1       0.033   4.060   1.544  0.00  0.00    -0.506 OA
ATOM     23  H   UNL     1      -0.258   4.042   2.466  0.00  0.00    +0.292 HD
ENDBRANCH  16  22
ENDBRANCH  10  17
ENDBRANCH   8  12
ENDBRANCH   1   9
BRANCH   6  24
ATOM     24  O   UNL     1      -3.691  -0.746   0.292  0.00  0.00    -0.487 OA
BRANCH  24  25
ATOM     25  C   UNL     1      -4.980  -0.134   0.377  0.00  0.00    +0.266 C 
BRANCH  25  26
ATOM     26  C   UNL     1      -4.835   1.361   0.250  0.00  0.00    +0.008 A 
ATOM     27  C   UNL     1      -3.606   1.912  -0.060  0.00  0.00    +0.011 A 
ATOM     28  C   UNL     1      -3.473   3.283  -0.178  0.00  0.00    +0.039 A 
ATOM     29  C   UNL     1      -4.571   4.104   0.015  0.00  0.00    +0.125 A 
ATOM     30  C   UNL     1      -5.801   3.552   0.325  0.00  0.00    +0.058 A 
ATOM     31  C   UNL     1      -5.934   2.180   0.438  0.00  0.00    +0.050 A 
ATOM     32 CL   UNL     1      -7.479   1.486   0.820  0.00  0.00    -0.083 Cl
ATOM     33  F   UNL     1      -4.441   5.444  -0.100  0.00  0.00    -0.205 F 
ENDBRANCH  25  26
ENDBRANCH  24  25
ENDBRANCH   6  24
TORSDOF 8
