REMARK  Name = ZINC22609679
REMARK  5 active torsions:
REMARK  status: ('A' for Active; 'I' for Inactive)
REMARK    1  A    between atoms: C_1  and  C_2
REMARK    2  A    between atoms: C_5  and  C_28
REMARK    3  A    between atoms: N_8  and  C_10
REMARK    4  A    between atoms: C_10  and  C_12
REMARK    5  A    between atoms: C_10  and  C_19
REMARK                            x       y       z     vdW  Elec       q    Type
REMARK                         _______ _______ _______ _____ _____    ______ ____
ROOT
ATOM      1  C   UNL     1      -1.356  -0.548  -0.128  0.00  0.00    +0.006 C 
ENDROOT
BRANCH   1   7
ATOM      2  C   UNL     1       1.904   1.421   1.666  0.00  0.00    +0.005 C 
ATOM      3  C   UNL     1       1.231   2.119   0.482  0.00  0.00    -0.031 C 
ATOM      4  C   UNL     1       2.077   1.916  -0.778  0.00  0.00    +0.003 C 
ATOM      5  C   UNL     1       2.150   0.421  -1.099  0.00  0.00    -0.031 C 
ATOM      6  C   UNL     1       0.733  -0.128  -1.276  0.00  0.00    -0.074 C 
ATOM      7  N   UNL     1      -0.035   0.089  -0.044  0.00  0.00    +0.388 N 
ATOM      8  C   UNL     1      -0.160   1.520   0.259  0.00  0.00    -0.074 C 
ATOM      9  C   UNL     1       2.943   0.214  -2.391  0.00  0.00    +0.005 C 
ATOM     10  H   UNL     1       0.517  -0.382   0.783  0.00  0.00    -0.080 HD
ENDBRANCH   1   7
BRANCH   1  11
ATOM     11  C   UNL     1      -2.110  -0.312   1.156  0.00  0.00    +0.050 A 
ATOM     12  C   UNL     1      -3.386   0.050   1.332  0.00  0.00    +0.282 A 
ATOM     13  N   UNL     1      -3.898   0.217   2.596  0.00  0.00    -0.170 N 
ATOM     14  C   UNL     1      -3.057  -0.001   3.644  0.00  0.00    +0.199 A 
ATOM     15  S   UNL     1      -1.536  -0.451   2.842  0.00  0.00    -0.050 S 
ATOM     16  N   UNL     1      -3.693   0.200   4.766  0.00  0.00    -0.208 NA
ATOM     17  C   UNL     1      -4.950   0.549   4.502  0.00  0.00    +0.246 A 
ATOM     18  N   UNL     1      -5.128   0.575   3.208  0.00  0.00    -0.150 NA
ATOM     19  O   UNL     1      -4.184   0.254   0.249  0.00  0.00    -0.265 OA
ENDBRANCH   1  11
BRANCH   1  20
ATOM     20  C   UNL     1      -1.187  -2.030  -0.345  0.00  0.00    -0.056 A 
ATOM     21  C   UNL     1      -0.266  -2.737   0.405  0.00  0.00    +0.005 A 
ATOM     22  C   UNL     1      -0.113  -4.097   0.209  0.00  0.00    +0.038 A 
ATOM     23  C   UNL     1      -0.874  -4.748  -0.746  0.00  0.00    +0.123 A 
ATOM     24  C   UNL     1      -1.793  -4.037  -1.501  0.00  0.00    +0.038 A 
ATOM     25  C   UNL     1      -1.948  -2.679  -1.300  0.00  0.00    +0.005 A 
ATOM     26  F   UNL     1      -0.722  -6.076  -0.942  0.00  0.00    -0.205 F 
ENDBRANCH   1  20
TORSDOF 3
