REMARK  Name = ZINC09487036
REMARK  10 active torsions:
REMARK  status: ('A' for Active; 'I' for Inactive)
REMARK    1  A    between atoms: C_1  and  C_2
REMARK    2  A    between atoms: C_5  and  S_8
REMARK    3  A    between atoms: S_8  and  N_11
REMARK    4  A    between atoms: N_11  and  C_12
REMARK    5  A    between atoms: N_11  and  C_18
REMARK    6  A    between atoms: C_12  and  C_13
REMARK    7  A    between atoms: C_18  and  C_19
REMARK    8  A    between atoms: N_21  and  C_22
REMARK    9  A    between atoms: C_27  and  C_28
REMARK   10  A    between atoms: C_27  and  N_65
REMARK                            x       y       z     vdW  Elec       q    Type
REMARK                         _______ _______ _______ _____ _____    ______ ____
ROOT
ATOM      1  C   UNL     1       2.441   5.722   0.371  0.00  0.00    +0.205 C 
ENDROOT
BRANCH   1   2
ATOM      2  C   UNL     1       2.455   4.216   0.423  0.00  0.00    +0.229 C 
ATOM      3  O   UNL     1       3.410   3.634   0.892  0.00  0.00    -0.274 OA
ATOM      4  N   UNL     1       1.406   3.515  -0.051  0.00  0.00    -0.311 N 
ATOM      5  H   UNL     1       0.642   3.981  -0.426  0.00  0.00    +0.149 HD
BRANCH   4   6
ATOM      6  C   UNL     1       1.420   2.051  -0.001  0.00  0.00    +0.069 C 
ATOM      7  C   UNL     1      -0.019   1.526   0.010  0.00  0.00    +0.003 C 
ATOM      8  C   UNL     1       0.002  -0.004   0.002  0.00  0.00    -0.077 C 
ATOM      9  C   UNL     1       2.103  -0.026  -1.205  0.00  0.00    -0.077 C 
ATOM     10  C   UNL     1       2.145   1.503  -1.232  0.00  0.00    +0.003 C 
ATOM     11  N   UNL     1       0.693  -0.468  -1.220  0.00  0.00    +0.382 N 
ATOM     12  H   UNL     1       0.226  -0.063  -2.040  0.00  0.00    -0.081 HD
BRANCH  11  13
ATOM     13  C   UNL     1       0.626  -1.941  -1.309  0.00  0.00    -0.043 C 
BRANCH  13  14
ATOM     14  C   UNL     1       1.139  -2.369  -2.660  0.00  0.00    -0.064 A 
ATOM     15  C   UNL     1       0.268  -2.476  -3.728  0.00  0.00    +0.002 A 
ATOM     16  C   UNL     1       0.739  -2.864  -4.968  0.00  0.00    +0.000 A 
ATOM     17  C   UNL     1       2.079  -3.155  -5.138  0.00  0.00    +0.000 A 
ATOM     18  C   UNL     1       2.949  -3.055  -4.069  0.00  0.00    +0.000 A 
ATOM     19  C   UNL     1       2.479  -2.661  -2.830  0.00  0.00    +0.002 A 
ENDBRANCH  13  14
ENDBRANCH  11  13
ENDBRANCH   4   6
ENDBRANCH   1   2
BRANCH   1  20
ATOM     20  N   UNL     1       3.685   6.242   0.943  0.00  0.00    -0.160 NA
BRANCH  20  21
ATOM     21  S   UNL     1       4.960   6.614  -0.046  0.00  0.00    +0.062 S 
ATOM     22  O   UNL     1       6.131   6.540   0.755  0.00  0.00    -0.153 OA
ATOM     23  O   UNL     1       4.795   5.842  -1.228  0.00  0.00    -0.153 OA
BRANCH  21  28
ATOM     24  C   UNL     1       4.338  12.394  -1.663  0.00  0.00    +0.044 C 
ATOM     25  C   UNL     1       4.493  10.950  -1.259  0.00  0.00    -0.050 A 
ATOM     26  C   UNL     1       5.206  10.624  -0.120  0.00  0.00    +0.005 A 
ATOM     27  C   UNL     1       5.348   9.300   0.250  0.00  0.00    +0.029 A 
ATOM     28  C   UNL     1       4.778   8.302  -0.518  0.00  0.00    +0.106 A 
ATOM     29  C   UNL     1       4.069   8.628  -1.659  0.00  0.00    +0.029 A 
ATOM     30  C   UNL     1       3.923   9.952  -2.027  0.00  0.00    +0.005 A 
ENDBRANCH  21  28
ENDBRANCH  20  21
BRANCH  20  31
ATOM     31  C   UNL     1       3.801   6.434   2.391  0.00  0.00    +0.184 C 
BRANCH  31  32
ATOM     32  C   UNL     1       4.216   5.137   3.038  0.00  0.00    +0.120 A 
ATOM     33  C   UNL     1       5.481   4.735   3.254  0.00  0.00    +0.046 A 
ATOM     34  C   UNL     1       5.407   3.469   3.878  0.00  0.00    +0.041 A 
ATOM     35  C   UNL     1       4.101   3.172   4.006  0.00  0.00    +0.195 A 
ATOM     36  O   UNL     1       3.384   4.189   3.500  0.00  0.00    -0.466 OA
ENDBRANCH  31  32
ENDBRANCH  20  31
ENDBRANCH   1  20
TORSDOF 9
