REMARK  Name = ZINC09438513
REMARK  9 active torsions:
REMARK  status: ('A' for Active; 'I' for Inactive)
REMARK    1  A    between atoms: C_1  and  C_2
REMARK    2  A    between atoms: C_7  and  N_12
REMARK    3  A    between atoms: C_9  and  C_11
REMARK    4  A    between atoms: C_13  and  C_15
REMARK    5  A    between atoms: C_15  and  O_16
REMARK    6  A    between atoms: O_16  and  C_17
REMARK    7  A    between atoms: C_17  and  C_19
REMARK    8  A    between atoms: C_23  and  S_25
REMARK    9  A    between atoms: S_25  and  N_28
REMARK                            x       y       z     vdW  Elec       q    Type
REMARK                         _______ _______ _______ _____ _____    ______ ____
ROOT
ATOM      1  C   UNL     1       3.655   1.769  -0.107  0.00  0.00    +0.340 C 
ATOM      2  O   UNL     1       3.841   2.967  -0.171  0.00  0.00    -0.245 OA
ENDROOT
BRANCH   1   3
ATOM      3  C   UNL     1       4.805   0.845  -0.059  0.00  0.00    +0.061 A 
ATOM      4  C   UNL     1       4.595  -0.534   0.015  0.00  0.00    +0.016 A 
ATOM      5  C   UNL     1       5.673  -1.392   0.059  0.00  0.00    +0.023 A 
ATOM      6  C   UNL     1       6.963  -0.889   0.031  0.00  0.00    +0.067 A 
ATOM      7  C   UNL     1       7.179   0.477  -0.042  0.00  0.00    +0.124 A 
ATOM      8  C   UNL     1       6.108   1.345  -0.092  0.00  0.00    +0.045 A 
ATOM      9 CL   UNL     1       8.316  -1.975   0.087  0.00  0.00    -0.082 Cl
BRANCH   7  10
ATOM     10  S   UNL     1       8.824   1.107  -0.078  0.00  0.00    +0.062 S 
ATOM     11  O   UNL     1       9.539   0.322  -1.021  0.00  0.00    -0.153 OA
ATOM     12  O   UNL     1       8.716   2.520  -0.189  0.00  0.00    -0.153 OA
BRANCH  10  13
ATOM     13  N   UNL     1       9.498   0.799   1.403  0.00  0.00    -0.177 NA
ATOM     14  C   UNL     1       9.256   1.700   2.538  0.00  0.00    +0.109 C 
ATOM     15  C   UNL     1       8.726   0.870   3.716  0.00  0.00    +0.017 C 
ATOM     16  C   UNL     1       9.706  -0.267   4.015  0.00  0.00    +0.003 C 
ATOM     17  C   UNL     1       9.817  -1.181   2.792  0.00  0.00    +0.017 C 
ATOM     18  C   UNL     1      10.355  -0.377   1.605  0.00  0.00    +0.109 C 
ENDBRANCH  10  13
ENDBRANCH   7  10
ENDBRANCH   1   3
BRANCH   1  19
ATOM     19  O   UNL     1       2.398   1.282  -0.080  0.00  0.00    -0.452 OA
BRANCH  19  20
ATOM     20  C   UNL     1       1.316   2.249  -0.130  0.00  0.00    +0.328 C 
BRANCH  20  22
ATOM     21  N   UNL     1      -1.157   2.224  -0.132  0.00  0.00    -0.309 N 
ATOM     22  C   UNL     1      -0.005   1.526  -0.090  0.00  0.00    +0.251 C 
ATOM     23  O   UNL     1      -0.033   0.315  -0.026  0.00  0.00    -0.272 OA
ATOM     24  H   UNL     1      -1.136   3.193  -0.183  0.00  0.00    +0.149 HD
BRANCH  21  30
ATOM     25  C   UNL     1      -5.939   2.651   1.048  0.00  0.00    +0.008 C 
ATOM     26  C   UNL     1      -4.862   1.719   0.491  0.00  0.00    -0.009 C 
ATOM     27  C   UNL     1      -5.243   1.288  -0.926  0.00  0.00    +0.003 C 
ATOM     28  C   UNL     1      -4.165   0.355  -1.483  0.00  0.00    +0.002 C 
ATOM     29  C   UNL     1      -2.823   1.090  -1.517  0.00  0.00    +0.022 C 
ATOM     30  C   UNL     1      -2.442   1.521  -0.100  0.00  0.00    +0.076 C 
ATOM     31  C   UNL     1      -3.520   2.453   0.457  0.00  0.00    +0.009 C 
ATOM     32  C   UNL     1      -3.139   2.885   1.875  0.00  0.00    +0.009 C 
ENDBRANCH  21  30
ENDBRANCH  20  22
ENDBRANCH  19  20
ENDBRANCH   1  19
TORSDOF 7
