REMARK  Name = ZINC42360430
REMARK  7 active torsions:
REMARK  status: ('A' for Active; 'I' for Inactive)
REMARK    1  A    between atoms: C_1  and  N_2
REMARK    2  A    between atoms: N_2  and  C_3
REMARK    3  A    between atoms: N_2  and  C_10
REMARK    4  A    between atoms: C_3  and  C_4
REMARK    5  A    between atoms: C_10  and  C_11
REMARK    6  A    between atoms: N_13  and  C_14
REMARK    7  A    between atoms: C_17  and  N_21
REMARK                            x       y       z     vdW  Elec       q    Type
REMARK                         _______ _______ _______ _____ _____    ______ ____
ROOT
ATOM      1  C   UNL     1      -2.066  -0.121  -1.270  0.00  0.00    +0.201 C 
ATOM      2  O   UNL     1      -1.471   0.525  -2.106  0.00  0.00    -0.278 OA
ATOM      3  N   UNL     1      -3.349  -0.476  -1.480  0.00  0.00    -0.286 N 
ATOM      4  H   UNL     1      -3.804  -1.047  -0.842  0.00  0.00    +0.155 HD
ENDROOT
BRANCH   3   5
ATOM      5  C   UNL     1      -4.025  -0.020  -2.620  0.00  0.00    +0.048 A 
ATOM      6  C   UNL     1      -3.338   0.140  -3.816  0.00  0.00    +0.026 A 
ATOM      7  C   UNL     1      -4.004   0.589  -4.939  0.00  0.00    +0.024 A 
ATOM      8  C   UNL     1      -5.360   0.882  -4.873  0.00  0.00    +0.026 A 
ATOM      9  C   UNL     1      -6.047   0.723  -3.676  0.00  0.00    +0.039 A 
ATOM     10  C   UNL     1      -5.382   0.267  -2.554  0.00  0.00    +0.041 A 
ATOM     11 BR   UNL     1      -6.319   0.043  -0.926  0.00  0.00    -0.048 Br
BRANCH   8  12
ATOM     12  N   UNL     1      -6.034   1.338  -6.011  0.00  0.00    -0.358 N 
ATOM     13  H   UNL     1      -5.554   1.450  -6.846  0.00  0.00    +0.142 HD
ATOM     14  H   UNL     1      -6.981   1.542  -5.964  0.00  0.00    +0.142 HD
ENDBRANCH   8  12
ENDBRANCH   3   5
BRANCH   1  15
ATOM     15  C   UNL     1      -1.370  -0.527   0.004  0.00  0.00    +0.019 C 
BRANCH  15  17
ATOM     16  C   UNL     1      -0.007   1.447   0.008  0.00  0.00    -0.095 C 
ATOM     17  N   UNL     1       0.009  -0.022  -0.008  0.00  0.00    +0.386 N 
ATOM     18  H   UNL     1       0.477  -0.344  -0.842  0.00  0.00    -0.081 HD
BRANCH  17  19
ATOM     19  C   UNL     1       0.723  -0.517   1.176  0.00  0.00    -0.042 C 
BRANCH  19  20
ATOM     20  C   UNL     1       2.170  -0.102   1.101  0.00  0.00    -0.056 A 
ATOM     21  C   UNL     1       3.102  -0.915   0.483  0.00  0.00    +0.024 A 
ATOM     22  C   UNL     1       4.396  -0.511   0.433  0.00  0.00    +0.055 A 
ATOM     23  S   UNL     1       4.324   1.061   1.276  0.00  0.00    -0.090 S 
ATOM     24  C   UNL     1       2.575   1.076   1.633  0.00  0.00    +0.048 A 
ATOM     25 BR   UNL     1       5.888  -1.386  -0.331  0.00  0.00    -0.043 Br
ENDBRANCH  19  20
ENDBRANCH  17  19
ENDBRANCH  15  17
ENDBRANCH   1  15
TORSDOF 6
