REMARK  Name = ZINC04549081
REMARK  5 active torsions:
REMARK  status: ('A' for Active; 'I' for Inactive)
REMARK    1  A    between atoms: C_5  and  C_7
REMARK    2  A    between atoms: C_10  and  S_17
REMARK    3  A    between atoms: N_11  and  C_12
REMARK    4  A    between atoms: S_17  and  C_18
REMARK    5  A    between atoms: C_18  and  C_19
REMARK                            x       y       z     vdW  Elec       q    Type
REMARK                         _______ _______ _______ _____ _____    ______ ____
ROOT
ATOM      1  C   UNL     1       2.420   3.944   0.078  0.00  0.00    +0.167 A 
ATOM      2  N   UNL     1       3.631   3.441   0.130  0.00  0.00    -0.128 NA
ATOM      3  N   UNL     1       4.501   4.378  -0.000  0.00  0.00    -0.122 NA
ATOM      4  C   UNL     1       3.898   5.538  -0.135  0.00  0.00    +0.193 A 
ATOM      5  N   UNL     1       2.554   5.303  -0.090  0.00  0.00    -0.299 N 
ENDROOT
BRANCH   1  10
ATOM      6  C   UNL     1      -1.034   2.926   1.147  0.00  0.00    +0.001 A 
ATOM      7  C   UNL     1      -1.224   1.782   0.391  0.00  0.00    +0.001 A 
ATOM      8  C   UNL     1      -0.237   1.345  -0.474  0.00  0.00    +0.021 A 
ATOM      9  C   UNL     1       0.951   2.041  -0.579  0.00  0.00    +0.052 A 
ATOM     10  C   UNL     1       1.151   3.193   0.185  0.00  0.00    +0.038 A 
ATOM     11  C   UNL     1       0.148   3.631   1.051  0.00  0.00    +0.013 A 
ATOM     12 CL   UNL     1       2.192   1.487  -1.659  0.00  0.00    -0.083 Cl
ENDBRANCH   1  10
BRANCH   5  13
ATOM     13  C   UNL     1       1.478   6.292  -0.198  0.00  0.00    +0.091 C 
ATOM     14  C   UNL     1       1.585   7.044  -1.541  0.00  0.00    +0.025 C 
ATOM     15  C   UNL     1       1.177   8.498  -1.194  0.00  0.00    +0.002 C 
ATOM     16  C   UNL     1       1.809   8.707   0.205  0.00  0.00    +0.002 C 
ATOM     17  C   UNL     1       1.620   7.348   0.911  0.00  0.00    +0.025 C 
ENDBRANCH   5  13
BRANCH   4  18
ATOM     18  S   UNL     1       4.679   7.104  -0.336  0.00  0.00    -0.071 S 
BRANCH  18  19
ATOM     19  C   UNL     1       6.417   6.597  -0.295  0.00  0.00    +0.195 C 
BRANCH  19  20
ATOM     20  C   UNL     1       7.277   7.781  -0.451  0.00  0.00    +0.074 C 
ATOM     21  N   UNL     1       7.941   8.695  -0.571  0.00  0.00    -0.196 NA
ENDBRANCH  19  20
ENDBRANCH  18  19
ENDBRANCH   4  18
TORSDOF 5
