REMARK  Name = ZINC06995682
REMARK  4 active torsions:
REMARK  status: ('A' for Active; 'I' for Inactive)
REMARK    1  A    between atoms: C_1  and  C_2
REMARK    2  A    between atoms: C_5  and  C_11
REMARK    3  A    between atoms: C_7  and  N_8
REMARK    4  A    between atoms: C_14  and  C_15
REMARK                            x       y       z     vdW  Elec       q    Type
REMARK                         _______ _______ _______ _____ _____    ______ ____
ROOT
ATOM      1  C   UNL     1      -2.505   1.017  -0.073  0.00  0.00    +0.232 C 
ATOM      2  N   UNL     1      -3.675   1.549   0.146  0.00  0.00    -0.205 NA
ATOM      3  C   UNL     1      -4.634   0.585   0.025  0.00  0.00    +0.152 C 
ATOM      4  C   UNL     1      -5.995   0.738   0.179  0.00  0.00    +0.046 C 
ATOM      5  C   UNL     1      -3.905  -0.653  -0.306  0.00  0.00    +0.364 C 
ATOM      6  O   UNL     1      -4.376  -1.758  -0.500  0.00  0.00    -0.243 OA
ATOM      7  O   UNL     1      -2.603  -0.297  -0.351  0.00  0.00    -0.402 OA
ENDROOT
BRANCH   4   8
ATOM      8  C   UNL     1      -6.553   2.051   0.511  0.00  0.00    +0.014 A 
ATOM      9  C   UNL     1      -6.027   2.792   1.580  0.00  0.00    +0.050 A 
ATOM     10  C   UNL     1      -6.556   4.030   1.881  0.00  0.00    +0.020 A 
ATOM     11  C   UNL     1      -7.608   4.538   1.139  0.00  0.00    +0.003 A 
ATOM     12  C   UNL     1      -8.137   3.812   0.085  0.00  0.00    +0.020 A 
ATOM     13  C   UNL     1      -7.619   2.574  -0.235  0.00  0.00    +0.050 A 
ATOM     14 CL   UNL     1      -8.286   1.667  -1.556  0.00  0.00    -0.083 Cl
ATOM     15 CL   UNL     1      -4.712   2.155   2.517  0.00  0.00    -0.083 Cl
ENDBRANCH   4   8
BRANCH   1  20
ATOM     16  C   UNL     1       2.455   3.927   0.094  0.00  0.00    +0.046 C 
ATOM     17  C   UNL     1       1.156   3.164   0.053  0.00  0.00    -0.020 A 
ATOM     18  C   UNL     1      -0.036   3.820   0.306  0.00  0.00    +0.006 A 
ATOM     19  C   UNL     1      -1.229   3.128   0.270  0.00  0.00    +0.013 A 
ATOM     20  C   UNL     1      -1.232   1.763  -0.027  0.00  0.00    +0.039 A 
ATOM     21  C   UNL     1      -0.025   1.107  -0.276  0.00  0.00    +0.046 A 
ATOM     22  C   UNL     1       1.161   1.811  -0.237  0.00  0.00    +0.130 A 
BRANCH  22  23
ATOM     23  N   UNL     1       2.441   1.118  -0.506  0.00  0.00    +0.057 N 
ATOM     24  O   UNL     1       2.461  -0.091  -0.645  0.00  0.00    -0.126 OA
ATOM     25  O   UNL     1       3.474   1.758  -0.588  0.00  0.00    -0.126 OA
ENDBRANCH  22  23
ENDBRANCH   1  20
TORSDOF 3
