REMARK  Name = ZINC13496437
REMARK  5 active torsions:
REMARK  status: ('A' for Active; 'I' for Inactive)
REMARK    1  A    between atoms: N_13  and  C_16
REMARK    2  A    between atoms: C_16  and  C_18
REMARK    3  A    between atoms: C_16  and  C_25
REMARK    4  A    between atoms: C_21  and  O_24
REMARK    5  A    between atoms: N_29  and  C_30
REMARK                            x       y       z     vdW  Elec       q    Type
REMARK                         _______ _______ _______ _____ _____    ______ ____
ROOT
ATOM      1  C   UNL     1      -2.513   0.977   0.019  0.00  0.00    +0.157 C 
ENDROOT
BRANCH   1  14
ATOM      2  C   UNL     1     -10.237   3.425  -6.175  0.00  0.00    +0.002 A 
ATOM      3  C   UNL     1      -9.594   4.497  -6.777  0.00  0.00    +0.001 A 
ATOM      4  C   UNL     1      -8.266   4.745  -6.479  0.00  0.00    +0.017 A 
ATOM      5  C   UNL     1      -7.607   3.928  -5.594  0.00  0.00    +0.041 A 
ATOM      6  C   UNL     1      -8.229   2.828  -4.962  0.00  0.00    +0.080 A 
ATOM      7  C   UNL     1      -9.586   2.605  -5.291  0.00  0.00    +0.029 A 
ATOM      8  N   UNL     1      -7.448   2.120  -4.117  0.00  0.00    -0.225 NA
ATOM      9  C   UNL     1      -6.191   2.429  -3.892  0.00  0.00    +0.162 A 
ATOM     10  S   UNL     1      -5.961   3.868  -4.927  0.00  0.00    -0.052 S 
ATOM     11  N   UNL     1      -5.281   1.804  -3.064  0.00  0.00    -0.307 N 
ATOM     12  C   UNL     1      -3.977   2.480  -3.110  0.00  0.00    +0.122 C 
ATOM     13  C   UNL     1      -2.977   1.713  -2.241  0.00  0.00    +0.104 C 
ATOM     14  N   UNL     1      -3.482   1.642  -0.863  0.00  0.00    -0.286 NA
ATOM     15  C   UNL     1      -4.786   0.966  -0.817  0.00  0.00    +0.104 C 
ATOM     16  C   UNL     1      -5.786   1.734  -1.685  0.00  0.00    +0.122 C 
ENDBRANCH   1  14
BRANCH   1  17
ATOM     17  C   UNL     1      -1.220   1.750   0.017  0.00  0.00    -0.023 A 
ATOM     18  C   UNL     1      -0.013   1.076   0.008  0.00  0.00    +0.009 A 
ATOM     19  C   UNL     1       1.175   1.782   0.000  0.00  0.00    +0.046 A 
ATOM     20  C   UNL     1       1.155   3.169   0.008  0.00  0.00    +0.117 A 
ATOM     21  C   UNL     1      -0.057   3.844   0.023  0.00  0.00    +0.046 A 
ATOM     22  C   UNL     1      -1.242   3.133   0.031  0.00  0.00    +0.009 A 
BRANCH  20  23
ATOM     23  O   UNL     1       2.322   3.866   0.000  0.00  0.00    -0.507 OA
ATOM     24  H   UNL     1       2.305   4.966   0.006  0.00  0.00    +0.292 HD
ENDBRANCH  20  23
ENDBRANCH   1  17
BRANCH   1  25
ATOM     25  C   UNL     1      -3.065   0.923   1.420  0.00  0.00    +0.173 A 
ATOM     26  N   UNL     1      -3.647   1.901   2.070  0.00  0.00    -0.111 NA
ATOM     27  N   UNL     1      -3.979   1.462   3.235  0.00  0.00    -0.023 NA
ATOM     28  N   UNL     1      -3.617   0.232   3.348  0.00  0.00    -0.044 NA
ATOM     29  N   UNL     1      -3.049  -0.137   2.250  0.00  0.00    -0.224 N 
BRANCH  29  30
ATOM     30  C   UNL     1      -2.493  -1.461   1.960  0.00  0.00    +0.111 C 
ATOM     31  C   UNL     1      -3.585  -2.539   2.116  0.00  0.00    +0.027 C 
ATOM     32  C   UNL     1      -2.837  -3.749   2.732  0.00  0.00    +0.002 C 
ATOM     33  C   UNL     1      -1.847  -3.075   3.714  0.00  0.00    +0.002 C 
ATOM     34  C   UNL     1      -1.388  -1.802   2.974  0.00  0.00    +0.027 C 
ENDBRANCH  29  30
ENDBRANCH   1  25
TORSDOF 5
