REMARK  Name = ZINC17288570
REMARK  12 active torsions:
REMARK  status: ('A' for Active; 'I' for Inactive)
REMARK    1  A    between atoms: C_1  and  O_2
REMARK    2  A    between atoms: O_2  and  C_3
REMARK    3  A    between atoms: C_6  and  C_9
REMARK    4  A    between atoms: C_14  and  C_15
REMARK    5  A    between atoms: C_14  and  N_66
REMARK    6  A    between atoms: N_17  and  C_18
REMARK    7  A    between atoms: C_18  and  C_19
REMARK    8  A    between atoms: C_18  and  C_27
REMARK    9  A    between atoms: C_22  and  O_25
REMARK   10  A    between atoms: O_25  and  C_26
REMARK   11  A    between atoms: C_30  and  O_33
REMARK   12  A    between atoms: O_33  and  C_34
REMARK                            x       y       z     vdW  Elec       q    Type
REMARK                         _______ _______ _______ _____ _____    ______ ____
ROOT
ATOM      1  C   UNL     1       1.147   1.655   0.000  0.00  0.00    +0.197 C 
ATOM      2  O   UNL     1       1.130   2.868   0.007  0.00  0.00    -0.278 OA
ATOM      3  N   UNL     1      -0.011   0.966   0.007  0.00  0.00    -0.306 N 
ATOM      4  H   UNL     1       0.002  -0.004   0.002  0.00  0.00    +0.150 HD
ENDROOT
BRANCH   1   5
ATOM      5  C   UNL     1       2.462   0.920  -0.017  0.00  0.00    +0.019 C 
BRANCH   5  10
ATOM      6  C   UNL     1       4.856   1.222  -0.294  0.00  0.00    -0.037 C 
ATOM      7  C   UNL     1       5.896   2.021   0.529  0.00  0.00    -0.013 C 
ATOM      8  C   UNL     1       5.090   2.357   1.812  0.00  0.00    -0.020 C 
ATOM      9  C   UNL     1       3.662   2.587   1.274  0.00  0.00    -0.077 C 
ATOM     10  N   UNL     1       3.575   1.905  -0.028  0.00  0.00    +0.390 N 
ATOM     11  H   UNL     1       3.400   2.599  -0.764  0.00  0.00    -0.080 HD
BRANCH   6  15
ATOM     12  C   UNL     1       5.785   1.424  -4.461  0.00  0.00    +0.120 A 
ATOM     13  C   UNL     1       6.047   0.265  -3.746  0.00  0.00    +0.046 A 
ATOM     14  C   UNL     1       5.745   0.202  -2.399  0.00  0.00    +0.005 A 
ATOM     15  C   UNL     1       5.184   1.293  -1.764  0.00  0.00    -0.061 A 
ATOM     16  C   UNL     1       4.917   2.449  -2.475  0.00  0.00    +0.005 A 
ATOM     17  C   UNL     1       5.221   2.518  -3.821  0.00  0.00    +0.046 A 
BRANCH  12  19
ATOM     18  C   UNL     1       5.784   2.715  -6.458  0.00  0.00    +0.277 C 
ATOM     19  O   UNL     1       6.081   1.489  -5.786  0.00  0.00    -0.495 OA
ENDBRANCH  12  19
ENDBRANCH   6  15
ENDBRANCH   5  10
ENDBRANCH   1   5
BRANCH   3  20
ATOM     20  C   UNL     1      -1.290   1.681   0.017  0.00  0.00    +0.133 C 
BRANCH  20  21
ATOM     21  C   UNL     1      -1.674   2.042  -1.394  0.00  0.00    -0.023 A 
ATOM     22  C   UNL     1      -1.453   1.143  -2.421  0.00  0.00    +0.009 A 
ATOM     23  C   UNL     1      -1.810   1.469  -3.715  0.00  0.00    +0.046 A 
ATOM     24  C   UNL     1      -2.380   2.705  -3.986  0.00  0.00    +0.120 A 
ATOM     25  C   UNL     1      -2.596   3.607  -2.954  0.00  0.00    +0.046 A 
ATOM     26  C   UNL     1      -2.242   3.274  -1.661  0.00  0.00    +0.009 A 
BRANCH  24  27
ATOM     27  O   UNL     1      -2.728   3.030  -5.259  0.00  0.00    -0.495 OA
ATOM     28  C   UNL     1      -2.477   2.052  -6.270  0.00  0.00    +0.277 C 
ENDBRANCH  24  27
ENDBRANCH  20  21
BRANCH  20  29
ATOM     29  C   UNL     1      -2.354   0.799   0.618  0.00  0.00    -0.023 A 
ATOM     30  C   UNL     1      -2.386  -0.549   0.313  0.00  0.00    +0.009 A 
ATOM     31  C   UNL     1      -3.357  -1.361   0.867  0.00  0.00    +0.046 A 
ATOM     32  C   UNL     1      -4.307  -0.820   1.721  0.00  0.00    +0.120 A 
ATOM     33  C   UNL     1      -4.276   0.534   2.021  0.00  0.00    +0.046 A 
ATOM     34  C   UNL     1      -3.299   1.341   1.469  0.00  0.00    +0.009 A 
BRANCH  32  35
ATOM     35  O   UNL     1      -5.267  -1.615   2.263  0.00  0.00    -0.495 OA
ATOM     36  C   UNL     1      -5.238  -2.999   1.909  0.00  0.00    +0.277 C 
ENDBRANCH  32  35
ENDBRANCH  20  29
ENDBRANCH   3  20
TORSDOF 9
