REMARK  Name = ZINC37151130
REMARK  5 active torsions:
REMARK  status: ('A' for Active; 'I' for Inactive)
REMARK    1  A    between atoms: C_9  and  C_11
REMARK    2  A    between atoms: N_13  and  C_14
REMARK    3  A    between atoms: C_14  and  C_15
REMARK    4  A    between atoms: C_15  and  S_16
REMARK    5  A    between atoms: S_16  and  C_17
REMARK                            x       y       z     vdW  Elec       q    Type
REMARK                         _______ _______ _______ _____ _____    ______ ____
ROOT
ATOM      1  C   UNL     1       1.224  -2.169  -0.021  0.00  0.00    +0.246 C 
ATOM      2  O   UNL     1       2.282  -2.768  -0.035  0.00  0.00    -0.270 OA
ATOM      3  N   UNL     1       0.063  -2.853  -0.013  0.00  0.00    -0.310 N 
ATOM      4  H   UNL     1      -0.781  -2.376  -0.003  0.00  0.00    +0.149 HD
ENDROOT
BRANCH   1  13
ATOM      5  C   UNL     1      -0.017   1.381   0.010  0.00  0.00    +0.001 A 
ATOM      6  C   UNL     1       1.158   2.099   0.002  0.00  0.00    +0.011 A 
ATOM      7  C   UNL     1       2.386   1.432  -0.013  0.00  0.00    +0.020 A 
ATOM      8  C   UNL     1       3.778   1.873  -0.025  0.00  0.00    +0.142 A 
ATOM      9  N   UNL     1       4.530   0.810  -0.038  0.00  0.00    -0.181 NA
ATOM     10  N   UNL     1       3.735  -0.340  -0.036  0.00  0.00    -0.276 N 
ATOM     11  H   UNL     1       4.065  -1.252  -0.044  0.00  0.00    +0.189 HD
ATOM     12  C   UNL     1       2.419   0.025  -0.021  0.00  0.00    +0.078 A 
ATOM     13  C   UNL     1       1.211  -0.694  -0.013  0.00  0.00    +0.062 A 
ATOM     14  C   UNL     1       0.002  -0.004   0.002  0.00  0.00    +0.015 A 
ENDBRANCH   1  13
BRANCH   3  15
ATOM     15  C   UNL     1       0.076  -4.318  -0.021  0.00  0.00    +0.115 C 
BRANCH  15  16
ATOM     16  C   UNL     1      -1.362  -4.841  -0.010  0.00  0.00    +0.093 C 
BRANCH  16  17
ATOM     17  S   UNL     1      -1.346  -6.655  -0.020  0.00  0.00    -0.124 S 
BRANCH  17  18
ATOM     18  C   UNL     1      -3.052  -7.096  -0.006  0.00  0.00    +0.008 A 
ATOM     19  C   UNL     1      -4.027  -6.107   0.004  0.00  0.00    +0.016 A 
ATOM     20  C   UNL     1      -5.363  -6.456   0.015  0.00  0.00    +0.021 A 
ATOM     21  C   UNL     1      -5.731  -7.790   0.017  0.00  0.00    +0.041 A 
ATOM     22  C   UNL     1      -4.762  -8.778   0.008  0.00  0.00    +0.021 A 
ATOM     23  C   UNL     1      -3.424  -8.435  -0.009  0.00  0.00    +0.016 A 
ATOM     24 CL   UNL     1      -7.411  -8.225   0.032  0.00  0.00    -0.084 Cl
ENDBRANCH  17  18
ENDBRANCH  16  17
ENDBRANCH  15  16
ENDBRANCH   3  15
TORSDOF 5
