REMARK  Name = ZINC24023107
REMARK  18 active torsions:
REMARK  status: ('A' for Active; 'I' for Inactive)
REMARK    1  A    between atoms: C_1  and  C_2
REMARK    2  A    between atoms: C_2  and  C_3
REMARK    3  A    between atoms: C_3  and  N_4
REMARK    4  A    between atoms: C_5  and  C_35
REMARK    5  A    between atoms: C_7  and  C_10
REMARK    6  A    between atoms: C_8  and  C_9
REMARK    7  A    between atoms: C_11  and  C_12
REMARK    8  A    between atoms: C_11  and  C_14
REMARK    9  A    between atoms: N_16  and  C_17
REMARK   10  A    between atoms: N_16  and  C_21
REMARK   11  A    between atoms: C_17  and  C_18
REMARK   12  A    between atoms: C_18  and  C_19
REMARK   13  A    between atoms: C_18  and  C_20
REMARK   14  A    between atoms: C_22  and  N_34
REMARK   15  A    between atoms: N_23  and  C_30
REMARK   16  A    between atoms: C_30  and  C_31
REMARK   17  A    between atoms: C_31  and  C_32
REMARK   18  A    between atoms: C_31  and  C_33
REMARK                            x       y       z     vdW  Elec       q    Type
REMARK                         _______ _______ _______ _____ _____    ______ ____
ROOT
ATOM      1  C   UNL     1       0.076   1.163  -0.242  0.00  0.00    +0.261 C 
ATOM      2  O   UNL     1       0.081  -0.054  -0.250  0.00  0.00    -0.269 OA
ATOM      3  N   UNL     1       1.177   1.840   0.140  0.00  0.00    -0.259 N 
ENDROOT
BRANCH   3   4
ATOM      4  C   UNL     1       2.319   1.137   0.579  0.00  0.00    +0.140 A 
ATOM      5  C   UNL     1       2.797   1.306   1.863  0.00  0.00    +0.127 A 
ATOM      6  N   UNL     1       3.913   0.608   2.262  0.00  0.00    -0.280 N 
ATOM      7  C   UNL     1       4.531  -0.231   1.411  0.00  0.00    +0.331 A 
ATOM      8  O   UNL     1       5.516  -0.840   1.782  0.00  0.00    -0.246 OA
ATOM      9  N   UNL     1       4.080  -0.409   0.156  0.00  0.00    -0.273 N 
ATOM     10  H   UNL     1       4.603  -1.096  -0.524  0.00  0.00    +0.173 HD
ATOM     11  C   UNL     1       2.988   0.247  -0.283  0.00  0.00    +0.277 A 
ATOM     12  O   UNL     1       2.584   0.075  -1.421  0.00  0.00    -0.266 OA
BRANCH   5  13
ATOM     13  N   UNL     1       2.165   2.164   2.732  0.00  0.00    -0.343 N 
ATOM     14  H   UNL     1       2.552   2.294   3.754  0.00  0.00    +0.144 HD
ATOM     15  H   UNL     1       1.274   2.719   2.406  0.00  0.00    +0.144 HD
ENDBRANCH   5  13
BRANCH   6  16
ATOM     16  C   UNL     1       4.431   0.778   3.621  0.00  0.00    +0.131 C 
BRANCH  16  17
ATOM     17  C   UNL     1       3.771  -0.244   4.550  0.00  0.00    +0.003 C 
ATOM     18  C   UNL     1       4.401  -0.151   5.941  0.00  0.00    +0.009 C 
ATOM     19  C   UNL     1       2.272   0.049   4.648  0.00  0.00    +0.009 C 
ENDBRANCH  16  17
ENDBRANCH   6  16
ENDBRANCH   3   4
BRANCH   1  21
ATOM     20  C   UNL     1      -2.302   1.211  -0.905  0.00  0.00    +0.033 C 
ATOM     21  C   UNL     1      -1.130   1.896  -0.655  0.00  0.00    +0.114 C 
BRANCH  20  25
ATOM     22  N   UNL     1      -5.567   2.415  -1.939  0.00  0.00    -0.348 N 
ATOM     23  C   UNL     1      -4.904   3.607  -1.885  0.00  0.00    +0.016 A 
ATOM     24  C   UNL     1      -3.635   3.390  -1.503  0.00  0.00    +0.030 A 
ATOM     25  C   UNL     1      -3.500   1.939  -1.316  0.00  0.00    -0.003 A 
ATOM     26  C   UNL     1      -4.745   1.404  -1.602  0.00  0.00    +0.023 A 
ATOM     27  C   UNL     1      -5.115  -0.056  -1.546  0.00  0.00    +0.064 C 
ATOM     28  C   UNL     1      -5.504   4.954  -2.196  0.00  0.00    +0.063 C 
BRANCH  22  29
ATOM     29  C   UNL     1      -6.975   2.258  -2.312  0.00  0.00    +0.121 C 
BRANCH  29  31
ATOM     30  C   UNL     1      -9.319   2.190  -1.448  0.00  0.00    +0.005 C 
ATOM     31  C   UNL     1      -7.848   2.353  -1.059  0.00  0.00    +0.018 C 
ENDBRANCH  29  31
ENDBRANCH  22  29
ENDBRANCH  20  25
BRANCH  21  32
ATOM     32  C   UNL     1      -1.088   3.320  -0.798  0.00  0.00    +0.104 C 
ATOM     33  N   UNL     1      -1.056   4.450  -0.911  0.00  0.00    -0.191 NA
ENDBRANCH  21  32
ENDBRANCH   1  21
BRANCH   3  34
ATOM     34  C   UNL     1       1.189   3.304   0.099  0.00  0.00    +0.117 C 
BRANCH  34  35
ATOM     35  C   UNL     1       1.496   3.772  -1.325  0.00  0.00    +0.001 C 
ATOM     36  C   UNL     1       1.508   5.302  -1.367  0.00  0.00    +0.009 C 
ATOM     37  C   UNL     1       2.866   3.240  -1.752  0.00  0.00    +0.009 C 
ENDBRANCH  34  35
ENDBRANCH   3  34
TORSDOF 11
