REMARK  Name = ZINC08833769
REMARK  9 active torsions:
REMARK  status: ('A' for Active; 'I' for Inactive)
REMARK    1  A    between atoms: C_1  and  O_2
REMARK    2  A    between atoms: O_2  and  C_3
REMARK    3  A    between atoms: C_6  and  S_12
REMARK    4  A    between atoms: C_8  and  N_9
REMARK    5  A    between atoms: S_12  and  N_15
REMARK    6  A    between atoms: N_15  and  C_16
REMARK    7  A    between atoms: C_19  and  O_33
REMARK    8  A    between atoms: C_20  and  C_22
REMARK    9  A    between atoms: C_31  and  O_32
REMARK                            x       y       z     vdW  Elec       q    Type
REMARK                         _______ _______ _______ _____ _____    ______ ____
ROOT
ATOM      1  C   UNL     1      -3.226   7.066  -1.120  0.00  0.00    +0.049 A 
ATOM      2  C   UNL     1      -3.856   7.366   0.083  0.00  0.00    +0.028 A 
ATOM      3  C   UNL     1      -3.251   7.048   1.284  0.00  0.00    +0.048 A 
ATOM      4  C   UNL     1      -2.016   6.423   1.297  0.00  0.00    +0.125 A 
ATOM      5  C   UNL     1      -1.374   6.121   0.090  0.00  0.00    +0.029 A 
ATOM      6  C   UNL     1      -1.988   6.444  -1.119  0.00  0.00    +0.036 A 
ENDROOT
BRANCH   5   7
ATOM      7  C   UNL     1      -0.051   5.457   0.098  0.00  0.00    +0.035 A 
ATOM      8  C   UNL     1       0.040   4.045   0.090  0.00  0.00    -0.007 A 
ATOM      9  C   UNL     1      -1.110   3.243   0.072  0.00  0.00    +0.009 A 
ATOM     10  C   UNL     1      -0.986   1.886   0.059  0.00  0.00    +0.001 A 
ATOM     11  C   UNL     1       0.269   1.282   0.073  0.00  0.00    +0.001 A 
ATOM     12  C   UNL     1       1.406   2.029   0.089  0.00  0.00    +0.008 A 
ATOM     13  C   UNL     1       1.317   3.432   0.098  0.00  0.00    -0.017 A 
ATOM     14  C   UNL     1       2.472   4.234   0.114  0.00  0.00    +0.012 A 
ATOM     15  C   UNL     1       2.363   5.590   0.123  0.00  0.00    +0.046 A 
ATOM     16  C   UNL     1       1.114   6.213   0.115  0.00  0.00    +0.125 A 
BRANCH  16  17
ATOM     17  O   UNL     1       1.037   7.569   0.123  0.00  0.00    -0.506 OA
ATOM     18  H   UNL     1       1.023   7.967  -0.758  0.00  0.00    +0.292 HD
ENDBRANCH  16  17
ENDBRANCH   5   7
BRANCH   1  19
ATOM     19  N   UNL     1      -3.845   7.391  -2.332  0.00  0.00    -0.216 N 
ATOM     20  H   UNL     1      -3.335   7.822  -3.036  0.00  0.00    +0.174 HD
BRANCH  19  21
ATOM     21  S   UNL     1      -5.446   7.038  -2.566  0.00  0.00    +0.072 S 
ATOM     22  O   UNL     1      -6.148   7.589  -1.460  0.00  0.00    -0.150 OA
ATOM     23  O   UNL     1      -5.746   7.388  -3.910  0.00  0.00    -0.150 OA
BRANCH  21  27
ATOM     24  C   UNL     1      -5.885   2.541  -2.268  0.00  0.00    +0.150 A 
ATOM     25  C   UNL     1      -5.519   3.126  -3.472  0.00  0.00    +0.050 A 
ATOM     26  C   UNL     1      -5.391   4.498  -3.562  0.00  0.00    +0.032 A 
ATOM     27  C   UNL     1      -5.617   5.289  -2.450  0.00  0.00    +0.111 A 
ATOM     28  C   UNL     1      -5.982   4.709  -1.249  0.00  0.00    +0.065 A 
ATOM     29  C   UNL     1      -6.116   3.337  -1.156  0.00  0.00    +0.169 A 
BRANCH  29  30
ATOM     30  N   UNL     1      -6.507   2.717   0.130  0.00  0.00    +0.060 N 
ATOM     31  O   UNL     1      -6.709   3.416   1.107  0.00  0.00    -0.126 OA
ATOM     32  O   UNL     1      -6.625   1.508   0.212  0.00  0.00    -0.126 OA
ENDBRANCH  29  30
BRANCH  24  34
ATOM     33  C   UNL     1      -5.763   0.435  -3.364  0.00  0.00    +0.277 C 
ATOM     34  O   UNL     1      -6.017   1.192  -2.179  0.00  0.00    -0.493 OA
ENDBRANCH  24  34
ENDBRANCH  21  27
ENDBRANCH  19  21
ENDBRANCH   1  19
BRANCH   4  35
ATOM     35  O   UNL     1      -1.425   6.106   2.479  0.00  0.00    -0.506 OA
ATOM     36  H   UNL     1      -0.858   6.803   2.836  0.00  0.00    +0.292 HD
ENDBRANCH   4  35
TORSDOF 8
