REMARK  Name = ZINC58872071
REMARK  13 active torsions:
REMARK  status: ('A' for Active; 'I' for Inactive)
REMARK    1  A    between atoms: C_1  and  C_2
REMARK    2  A    between atoms: C_2  and  C_3
REMARK    3  A    between atoms: C_3  and  C_4
REMARK    4  A    between atoms: C_5  and  C_33
REMARK    5  A    between atoms: C_6  and  C_24
REMARK    6  A    between atoms: C_12  and  C_13
REMARK    7  A    between atoms: C_18  and  O_19
REMARK    8  A    between atoms: C_27  and  C_30
REMARK    9  A    between atoms: C_30  and  C_31
REMARK   10  A    between atoms: C_30  and  C_32
REMARK   11  A    between atoms: C_33  and  O_35
REMARK   12  A    between atoms: O_35  and  C_36
REMARK   13  A    between atoms: C_36  and  C_37
REMARK                            x       y       z     vdW  Elec       q    Type
REMARK                         _______ _______ _______ _____ _____    ______ ____
ROOT
ATOM      1  C   UNL     1      -0.190  -1.629  -0.374  0.00  0.00    +0.056 C 
ATOM      2  C   UNL     1       0.261  -2.299   0.729  0.00  0.00    +0.085 C 
ATOM      3  C   UNL     1       0.312  -3.808   0.672  0.00  0.00    +0.162 C 
ATOM      4  N   UNL     1      -0.136  -4.457  -0.592  0.00  0.00    -0.275 N 
ATOM      5  C   UNL     1      -0.165  -5.774  -0.833  0.00  0.00    +0.268 A 
ATOM      6  O   UNL     1       0.194  -6.574   0.012  0.00  0.00    -0.266 OA
ATOM      7  C   UNL     1      -0.642  -6.225  -2.147  0.00  0.00    +0.081 A 
ATOM      8  C   UNL     1      -0.767  -7.487  -2.634  0.00  0.00    +0.032 C 
ATOM      9  S   UNL     1      -1.014  -4.664  -2.931  0.00  0.00    -0.046 S 
ATOM     10  C   UNL     1      -0.553  -3.596  -1.581  0.00  0.00    +0.178 A 
ATOM     11  N   UNL     1      -0.574  -2.293  -1.457  0.00  0.00    -0.227 NA
ENDROOT
BRANCH   8  12
ATOM     12  C   UNL     1      -0.537  -8.639  -1.755  0.00  0.00    +0.019 A 
ATOM     13  C   UNL     1      -0.994  -8.618  -0.431  0.00  0.00    +0.031 A 
ATOM     14  C   UNL     1      -0.773  -9.704   0.388  0.00  0.00    +0.042 A 
ATOM     15  C   UNL     1      -0.100 -10.817  -0.092  0.00  0.00    +0.023 A 
ATOM     16  C   UNL     1       0.356 -10.851  -1.396  0.00  0.00    +0.047 A 
ATOM     17  C   UNL     1       0.138  -9.772  -2.237  0.00  0.00    +0.124 A 
ATOM     18 CL   UNL     1      -1.339  -9.677   2.029  0.00  0.00    -0.084 Cl
BRANCH  17  19
ATOM     19  O   UNL     1       0.581  -9.808  -3.520  0.00  0.00    -0.506 OA
ATOM     20  H   UNL     1       1.479  -9.469  -3.635  0.00  0.00    +0.292 HD
ENDBRANCH  17  19
ENDBRANCH   8  12
BRANCH   3  21
ATOM     21  C   UNL     1       1.734  -4.234   0.932  0.00  0.00    -0.020 A 
ATOM     22  C   UNL     1       2.670  -4.174  -0.084  0.00  0.00    +0.006 A 
ATOM     23  C   UNL     1       3.975  -4.564   0.154  0.00  0.00    +0.004 A 
ATOM     24  C   UNL     1       4.344  -5.014   1.407  0.00  0.00    -0.045 A 
ATOM     25  C   UNL     1       3.408  -5.074   2.424  0.00  0.00    +0.004 A 
ATOM     26  C   UNL     1       2.105  -4.679   2.187  0.00  0.00    +0.006 A 
BRANCH  24  27
ATOM     27  C   UNL     1       5.766  -5.441   1.667  0.00  0.00    +0.013 C 
ATOM     28  C   UNL     1       6.366  -4.570   2.772  0.00  0.00    +0.012 C 
ATOM     29  C   UNL     1       5.787  -6.907   2.104  0.00  0.00    +0.012 C 
ENDBRANCH  24  27
ENDBRANCH   3  21
BRANCH   2  30
ATOM     30  C   UNL     1       0.665  -1.605   1.881  0.00  0.00    +0.339 C 
ATOM     31  O   UNL     1       0.743  -0.389   1.863  0.00  0.00    -0.245 OA
BRANCH  30  32
ATOM     32  O   UNL     1       0.968  -2.285   3.008  0.00  0.00    -0.462 OA
BRANCH  32  33
ATOM     33  C   UNL     1       1.371  -1.515   4.142  0.00  0.00    +0.229 C 
ATOM     34  C   UNL     1       1.670  -2.451   5.314  0.00  0.00    +0.048 C 
ENDBRANCH  32  33
ENDBRANCH  30  32
ENDBRANCH   2  30
BRANCH   1  35
ATOM     35  C   UNL     1      -0.256  -0.123  -0.358  0.00  0.00    +0.056 C 
BRANCH  35  37
ATOM     36  C   UNL     1       1.037   1.980  -0.739  0.00  0.00    +0.004 C 
ATOM     37  C   UNL     1       1.105   0.452  -0.756  0.00  0.00    +0.003 C 
ENDBRANCH  35  37
ENDBRANCH   1  35
TORSDOF 9
