REMARK  Name = ZINC21559265
REMARK  6 active torsions:
REMARK  status: ('A' for Active; 'I' for Inactive)
REMARK    1  A    between atoms: C_10  and  O_11
REMARK    2  A    between atoms: O_11  and  C_12
REMARK    3  A    between atoms: C_12  and  C_13
REMARK    4  A    between atoms: C_13  and  C_15
REMARK    5  A    between atoms: C_13  and  O_29
REMARK    6  A    between atoms: C_15  and  N_16
REMARK                            x       y       z     vdW  Elec       q    Type
REMARK                         _______ _______ _______ _____ _____    ______ ____
ROOT
ATOM      1  C   UNL     1       7.246   0.271  -0.066  0.00  0.00    +0.170 C 
ENDROOT
BRANCH   1   2
ATOM      2  O   UNL     1       7.254   1.018  -1.283  0.00  0.00    -0.387 OA
ATOM      3  H   UNL     1       7.317   0.473  -2.079  0.00  0.00    +0.210 HD
ENDBRANCH   1   2
BRANCH   1   4
ATOM      4  C   UNL     1       6.047  -0.680  -0.059  0.00  0.00    +0.262 C 
BRANCH   4   5
ATOM      5  O   UNL     1       4.837   0.080  -0.043  0.00  0.00    -0.489 OA
BRANCH   5  15
ATOM      6  C   UNL     1      -0.016   1.357   0.009  0.00  0.00    +0.001 A 
ATOM      7  C   UNL     1       1.169   2.090   0.002  0.00  0.00    +0.001 A 
ATOM      8  C   UNL     1       2.379   1.467  -0.013  0.00  0.00    +0.012 A 
ATOM      9  C   UNL     1       2.437   0.064  -0.021  0.00  0.00    +0.024 A 
ATOM     10  C   UNL     1       1.233  -0.683  -0.013  0.00  0.00    -0.014 A 
ATOM     11  C   UNL     1       0.002  -0.004   0.002  0.00  0.00    +0.008 A 
ATOM     12  C   UNL     1       1.292  -2.087  -0.021  0.00  0.00    +0.009 A 
ATOM     13  C   UNL     1       2.501  -2.713  -0.035  0.00  0.00    +0.004 A 
ATOM     14  C   UNL     1       3.687  -1.984  -0.043  0.00  0.00    +0.046 A 
ATOM     15  C   UNL     1       3.671  -0.617  -0.036  0.00  0.00    +0.128 A 
ENDBRANCH   5  15
ENDBRANCH   4   5
ENDBRANCH   1   4
BRANCH   1  16
ATOM     16  C   UNL     1       8.539  -0.539   0.044  0.00  0.00    +0.152 C 
BRANCH  16  17
ATOM     17  N   UNL     1       9.679   0.374   0.158  0.00  0.00    -0.222 N 
ATOM     18  C   UNL     1      10.367   0.863  -0.895  0.00  0.00    +0.247 C 
ATOM     19  O   UNL     1      10.169   0.638  -2.070  0.00  0.00    -0.273 OA
ATOM     20  C   UNL     1      11.437   1.748  -0.301  0.00  0.00    +0.113 C 
ATOM     21  C   UNL     1      12.816   1.296  -0.689  0.00  0.00    +0.035 C 
ATOM     22  C   UNL     1      13.844   1.502   0.445  0.00  0.00    +0.003 C 
ATOM     23  C   UNL     1      13.665   2.848   1.173  0.00  0.00    +0.000 C 
ATOM     24  C   UNL     1      13.376   3.980   0.225  0.00  0.00    +0.000 C 
ATOM     25  C   UNL     1      11.848   4.160   0.134  0.00  0.00    +0.003 C 
ATOM     26  C   UNL     1      11.226   3.201  -0.770  0.00  0.00    +0.035 C 
ATOM     27  N   UNL     1      11.216   1.656   1.147  0.00  0.00    -0.285 N 
ATOM     28  C   UNL     1      10.164   0.832   1.319  0.00  0.00    +0.309 C 
ATOM     29  O   UNL     1       9.708   0.535   2.405  0.00  0.00    -0.252 OA
ATOM     30  H   UNL     1      11.724   2.103   1.842  0.00  0.00    +0.151 HD
ENDBRANCH  16  17
ENDBRANCH   1  16
TORSDOF 6
