REMARK  Name = ZINC59856183
REMARK  11 active torsions:
REMARK  status: ('A' for Active; 'I' for Inactive)
REMARK    1  A    between atoms: C_1  and  N_2
REMARK    2  A    between atoms: C_3  and  C_19
REMARK    3  A    between atoms: C_6  and  S_7
REMARK    4  A    between atoms: S_7  and  C_8
REMARK    5  A    between atoms: C_8  and  C_9
REMARK    6  A    between atoms: C_9  and  O_10
REMARK    7  A    between atoms: O_10  and  C_11
REMARK    8  A    between atoms: C_16  and  C_17
REMARK    9  A    between atoms: C_22  and  N_25
REMARK   10  A    between atoms: C_26  and  C_28
REMARK   11  A    between atoms: C_28  and  C_29
REMARK                            x       y       z     vdW  Elec       q    Type
REMARK                         _______ _______ _______ _____ _____    ______ ____
ROOT
ATOM      1  C   UNL     1       0.128  -0.275  -2.471  0.00  0.00    +0.019 A 
ATOM      2  C   UNL     1      -0.024   1.081  -2.766  0.00  0.00    +0.013 A 
ATOM      3  C   UNL     1       0.084   1.518  -4.068  0.00  0.00    +0.024 A 
ATOM      4  C   UNL     1       0.344   0.610  -5.088  0.00  0.00    +0.033 A 
ATOM      5  C   UNL     1       0.496  -0.741  -4.798  0.00  0.00    +0.024 A 
ATOM      6  C   UNL     1       0.395  -1.184  -3.497  0.00  0.00    +0.013 A 
ENDROOT
BRANCH   1   9
ATOM      7  C   UNL     1       1.244  -2.963  -1.293  0.00  0.00    +0.153 C 
ATOM      8  N   UNL     1       0.505  -1.927  -0.567  0.00  0.00    -0.305 N 
ATOM      9  C   UNL     1       0.012  -0.747  -1.075  0.00  0.00    +0.165 A 
ATOM     10  N   UNL     1      -0.579  -0.119  -0.085  0.00  0.00    -0.128 NA
ATOM     11  N   UNL     1      -0.491  -0.815   0.991  0.00  0.00    -0.122 NA
ATOM     12  C   UNL     1       0.157  -1.934   0.754  0.00  0.00    +0.192 A 
BRANCH  12  13
ATOM     13  S   UNL     1       0.513  -3.203   1.922  0.00  0.00    -0.083 S 
BRANCH  13  14
ATOM     14  C   UNL     1      -0.218  -2.596   3.467  0.00  0.00    +0.118 C 
BRANCH  14  15
ATOM     15  C   UNL     1       0.022  -3.617   4.581  0.00  0.00    +0.240 C 
BRANCH  15  16
ATOM     16  O   UNL     1      -0.555  -3.138   5.798  0.00  0.00    -0.491 OA
BRANCH  16  17
ATOM     17  C   UNL     1      -0.429  -3.932   6.894  0.00  0.00    +0.128 A 
ATOM     18  C   UNL     1       0.239  -5.142   6.803  0.00  0.00    +0.046 A 
ATOM     19  C   UNL     1       0.366  -5.948   7.918  0.00  0.00    +0.004 A 
ATOM     20  C   UNL     1      -0.171  -5.554   9.131  0.00  0.00    +0.001 A 
ATOM     21  C   UNL     1      -0.839  -4.351   9.238  0.00  0.00    +0.011 A 
ATOM     22  C   UNL     1      -0.970  -3.527   8.120  0.00  0.00    +0.016 A 
BRANCH  22  23
ATOM     23  C   UNL     1      -1.679  -2.235   8.229  0.00  0.00    +0.004 C 
ATOM     24  C   UNL     1      -2.189  -1.855   9.392  0.00  0.00    +0.009 C 
ENDBRANCH  22  23
ENDBRANCH  16  17
ENDBRANCH  15  16
ENDBRANCH  14  15
ENDBRANCH  13  14
ENDBRANCH  12  13
ENDBRANCH   1   9
BRANCH   4  25
ATOM     25  N   UNL     1       0.453   1.056  -6.409  0.00  0.00    -0.285 N 
ATOM     26  C   UNL     1       1.005   2.257  -6.671  0.00  0.00    +0.222 C 
ATOM     27  O   UNL     1       1.341   2.982  -5.758  0.00  0.00    -0.275 OA
ATOM     28  H   UNL     1       0.131   0.501  -7.136  0.00  0.00    +0.155 HD
BRANCH  26  29
ATOM     29  C   UNL     1       1.204   2.700  -8.098  0.00  0.00    +0.131 C 
BRANCH  29  30
ATOM     30  C   UNL     1       1.834   4.069  -8.116  0.00  0.00    -0.031 A 
ATOM     31  C   UNL     1       1.054   5.180  -8.217  0.00  0.00    +0.005 A 
ATOM     32  C   UNL     1       1.618   6.453  -8.235  0.00  0.00    +0.001 A 
ATOM     33  C   UNL     1       2.966   6.624  -8.153  0.00  0.00    +0.008 A 
ATOM     34  C   UNL     1       3.804   5.501  -8.047  0.00  0.00    -0.018 A 
ATOM     35  C   UNL     1       3.229   4.205  -8.022  0.00  0.00    -0.014 A 
ATOM     36  C   UNL     1       4.066   3.082  -7.910  0.00  0.00    +0.009 A 
ATOM     37  C   UNL     1       5.414   3.253  -7.822  0.00  0.00    +0.001 A 
ATOM     38  C   UNL     1       5.978   4.527  -7.839  0.00  0.00    +0.001 A 
ATOM     39  C   UNL     1       5.200   5.637  -7.960  0.00  0.00    +0.008 A 
ENDBRANCH  29  30
ENDBRANCH  26  29
ENDBRANCH   4  25
TORSDOF 10
