REMARK  Name = ZINC14092802
REMARK  7 active torsions:
REMARK  status: ('A' for Active; 'I' for Inactive)
REMARK    1  A    between atoms: C_1  and  C_2
REMARK    2  A    between atoms: C_5  and  C_7
REMARK    3  A    between atoms: C_15  and  C_18
REMARK    4  A    between atoms: C_18  and  N_19
REMARK    5  A    between atoms: N_19  and  C_20
REMARK    6  A    between atoms: C_20  and  C_22
REMARK    7  A    between atoms: C_20  and  C_23
REMARK                            x       y       z     vdW  Elec       q    Type
REMARK                         _______ _______ _______ _____ _____    ______ ____
ROOT
ATOM      1  C   UNL     1       1.040  -4.034  -0.025  0.00  0.00    +0.010 A 
ATOM      2  C   UNL     1       0.587  -4.954   0.862  0.00  0.00    +0.057 A 
ATOM      3  S   UNL     1       1.514  -6.418   0.443  0.00  0.00    -0.078 S 
ATOM      4  C   UNL     1       2.475  -5.766  -0.896  0.00  0.00    +0.092 A 
ATOM      5  C   UNL     1       2.055  -4.436  -0.993  0.00  0.00    +0.080 A 
ATOM      6  C   UNL     1       2.709  -3.647  -2.059  0.00  0.00    +0.282 A 
ATOM      7  O   UNL     1       2.419  -2.473  -2.227  0.00  0.00    -0.265 OA
ATOM      8  N   UNL     1       3.627  -4.240  -2.838  0.00  0.00    -0.194 NA
ATOM      9  C   UNL     1       3.965  -5.490  -2.691  0.00  0.00    +0.126 A 
ATOM     10  N   UNL     1       3.418  -6.267  -1.734  0.00  0.00    -0.336 N 
ATOM     11  H   UNL     1       3.692  -7.194  -1.652  0.00  0.00    +0.168 HD
ENDROOT
BRANCH   1  16
ATOM     12  C   UNL     1      -0.018   1.503   0.010  0.00  0.00    +0.051 C 
ATOM     13  C   UNL     1       0.002  -0.004   0.002  0.00  0.00    -0.013 A 
ATOM     14  C   UNL     1      -1.042  -0.871   0.002  0.00  0.00    +0.011 A 
ATOM     15  C   UNL     1      -0.789  -2.227  -0.007  0.00  0.00    +0.016 A 
ATOM     16  C   UNL     1       0.512  -2.653  -0.015  0.00  0.00    +0.021 A 
ATOM     17  S   UNL     1       1.406  -1.107  -0.018  0.00  0.00    -0.093 S 
ENDBRANCH   1  16
BRANCH   9  18
ATOM     18  C   UNL     1       5.005  -6.080  -3.608  0.00  0.00    +0.156 C 
BRANCH  18  19
ATOM     19  N   UNL     1       5.462  -5.054  -4.554  0.00  0.00    -0.303 NA
ATOM     20  H   UNL     1       4.686  -4.664  -5.068  0.00  0.00    +0.123 HD
BRANCH  19  21
ATOM     21  C   UNL     1       6.479  -5.595  -5.467  0.00  0.00    +0.081 C 
ATOM     22  C   UNL     1       5.790  -6.282  -6.647  0.00  0.00    +0.029 C 
BRANCH  21  23
ATOM     23  C   UNL     1       7.346  -4.472  -5.975  0.00  0.00    -0.030 A 
ATOM     24  C   UNL     1       6.781  -3.253  -6.303  0.00  0.00    +0.005 A 
ATOM     25  C   UNL     1       7.580  -2.231  -6.770  0.00  0.00    +0.004 A 
ATOM     26  C   UNL     1       8.950  -2.416  -6.914  0.00  0.00    -0.044 A 
ATOM     27  C   UNL     1       9.513  -3.627  -6.583  0.00  0.00    -0.044 A 
ATOM     28  C   UNL     1       8.706  -4.655  -6.110  0.00  0.00    +0.009 A 
ATOM     29  C   UNL     1      10.991  -3.893  -6.698  0.00  0.00    +0.035 C 
ATOM     30  C   UNL     1      11.654  -2.858  -7.605  0.00  0.00    +0.005 C 
ATOM     31  C   UNL     1      11.244  -1.460  -7.126  0.00  0.00    +0.005 C 
ATOM     32  C   UNL     1       9.762  -1.260  -7.437  0.00  0.00    +0.035 C 
ENDBRANCH  21  23
ENDBRANCH  19  21
ENDBRANCH  18  19
ENDBRANCH   9  18
TORSDOF 5
