REMARK  Name = ZINC08089018
REMARK  8 active torsions:
REMARK  status: ('A' for Active; 'I' for Inactive)
REMARK    1  A    between atoms: C_1  and  C_2
REMARK    2  A    between atoms: C_2  and  C_4
REMARK    3  A    between atoms: C_2  and  S_19
REMARK    4  A    between atoms: N_6  and  C_7
REMARK    5  A    between atoms: C_10  and  N_13
REMARK    6  A    between atoms: S_19  and  C_20
REMARK    7  A    between atoms: C_23  and  C_26
REMARK    8  A    between atoms: N_24  and  N_25
REMARK                            x       y       z     vdW  Elec       q    Type
REMARK                         _______ _______ _______ _____ _____    ______ ____
ROOT
ATOM      1  C   UNL     1       4.880   4.861  -1.378  0.00  0.00    +0.230 C 
ATOM      2  O   UNL     1       5.231   5.666  -2.215  0.00  0.00    -0.274 OA
ATOM      3  N   UNL     1       5.794   4.281  -0.575  0.00  0.00    -0.285 N 
ATOM      4  H   UNL     1       5.507   3.689   0.138  0.00  0.00    +0.155 HD
ENDROOT
BRANCH   3   5
ATOM      5  C   UNL     1       7.158   4.534  -0.769  0.00  0.00    +0.034 A 
ATOM      6  C   UNL     1       8.090   3.532  -0.536  0.00  0.00    +0.025 A 
ATOM      7  C   UNL     1       9.434   3.779  -0.733  0.00  0.00    +0.025 A 
ATOM      8  C   UNL     1       9.855   5.034  -1.154  0.00  0.00    +0.030 A 
ATOM      9  C   UNL     1       8.923   6.038  -1.382  0.00  0.00    +0.025 A 
ATOM     10  C   UNL     1       7.579   5.789  -1.190  0.00  0.00    +0.025 A 
BRANCH   8  11
ATOM     11  N   UNL     1      11.217   5.286  -1.349  0.00  0.00    -0.330 N 
ATOM     12  C   UNL     1      11.472   5.773  -2.711  0.00  0.00    +0.105 C 
ATOM     13  C   UNL     1      12.943   6.175  -2.843  0.00  0.00    +0.019 C 
ATOM     14  C   UNL     1      13.828   4.963  -2.540  0.00  0.00    +0.003 C 
ATOM     15  C   UNL     1      13.508   4.445  -1.135  0.00  0.00    +0.019 C 
ATOM     16  C   UNL     1      12.021   4.093  -1.053  0.00  0.00    +0.105 C 
ENDBRANCH   8  11
ENDBRANCH   3   5
BRANCH   1  18
ATOM     17  C   UNL     1       3.146   3.181  -1.946  0.00  0.00    +0.029 C 
ATOM     18  C   UNL     1       3.421   4.509  -1.237  0.00  0.00    +0.137 C 
BRANCH  18  19
ATOM     19  S   UNL     1       2.411   5.812  -1.984  0.00  0.00    -0.072 S 
BRANCH  19  20
ATOM     20  C   UNL     1       0.802   5.237  -1.553  0.00  0.00    +0.209 A 
ATOM     21  N   UNL     1       0.518   4.149  -0.875  0.00  0.00    -0.121 NA
ATOM     22  N   UNL     1      -0.756   4.037  -0.744  0.00  0.00    -0.123 NA
ATOM     23  C   UNL     1      -1.355   5.037  -1.326  0.00  0.00    +0.255 A 
ATOM     24  N   UNL     1      -0.384   5.837  -1.862  0.00  0.00    -0.220 N 
BRANCH  23  25
ATOM     25  C   UNL     1      -2.842   5.269  -1.394  0.00  0.00    +0.454 C 
ATOM     26  F   UNL     1      -3.486   4.449  -0.461  0.00  0.00    -0.163 F 
ATOM     27  F   UNL     1      -3.119   6.610  -1.105  0.00  0.00    -0.163 F 
ATOM     28  F   UNL     1      -3.304   4.965  -2.679  0.00  0.00    -0.163 F 
ENDBRANCH  23  25
BRANCH  24  29
ATOM     29  N   UNL     1      -0.565   6.997  -2.561  0.00  0.00    -0.295 N 
ATOM     30  H   UNL     1      -0.573   7.794  -1.943  0.00  0.00    +0.163 HD
ATOM     31  H   UNL     1       0.140   7.101  -3.276  0.00  0.00    +0.163 HD
ENDBRANCH  24  29
ENDBRANCH  19  20
ENDBRANCH  18  19
ENDBRANCH   1  18
TORSDOF 7
