REMARK  Name = ZINC39206239
REMARK  21 active torsions:
REMARK  status: ('A' for Active; 'I' for Inactive)
REMARK    1  A    between atoms: C_1  and  C_2
REMARK    2  A    between atoms: C_2  and  O_39
REMARK    3  A    between atoms: C_5  and  C_11
REMARK    4  A    between atoms: C_5  and  C_12
REMARK    5  A    between atoms: C_7  and  C_9
REMARK    6  A    between atoms: C_7  and  C_10
REMARK    7  A    between atoms: N_16  and  C_17
REMARK    8  A    between atoms: C_17  and  C_18
REMARK    9  A    between atoms: C_18  and  N_19
REMARK   10  A    between atoms: C_20  and  C_22
REMARK   11  A    between atoms: C_22  and  C_23
REMARK   12  A    between atoms: C_23  and  C_24
REMARK   13  A    between atoms: C_26  and  C_35
REMARK   14  A    between atoms: C_27  and  O_34
REMARK   15  A    between atoms: C_28  and  C_30
REMARK   16  A    between atoms: C_30  and  C_31
REMARK   17  A    between atoms: C_30  and  C_32
REMARK   18  A    between atoms: C_30  and  C_33
REMARK   19  A    between atoms: C_35  and  C_36
REMARK   20  A    between atoms: C_35  and  C_37
REMARK   21  A    between atoms: C_35  and  C_38
REMARK                            x       y       z     vdW  Elec       q    Type
REMARK                         _______ _______ _______ _____ _____    ______ ____
ROOT
ATOM      1  C   UNL     1      -0.427  -0.709   3.311  0.00  0.00    +0.123 C 
ENDROOT
BRANCH   1   2
ATOM      2  N   UNL     1      -0.479  -0.184   4.678  0.00  0.00    -0.314 N 
ATOM      3  C   UNL     1      -1.393  -0.658   5.548  0.00  0.00    +0.213 C 
ATOM      4  O   UNL     1      -2.172  -1.519   5.199  0.00  0.00    -0.276 OA
ATOM      5  H   UNL     1       0.145   0.505   4.957  0.00  0.00    +0.149 HD
BRANCH   3   6
ATOM      6  C   UNL     1      -1.445  -0.119   6.954  0.00  0.00    +0.100 C 
BRANCH   6   7
ATOM      7  C   UNL     1      -2.563  -0.821   7.728  0.00  0.00    +0.044 C 
BRANCH   7   8
ATOM      8  C   UNL     1      -2.616  -0.281   9.134  0.00  0.00    -0.046 A 
ATOM      9  C   UNL     1      -1.862  -0.874  10.129  0.00  0.00    +0.011 A 
ATOM     10  C   UNL     1      -1.909  -0.382  11.419  0.00  0.00    -0.000 A 
ATOM     11  C   UNL     1      -2.714   0.709  11.715  0.00  0.00    +0.124 A 
ATOM     12  C   UNL     1      -3.469   1.303  10.714  0.00  0.00    -0.000 A 
ATOM     13  C   UNL     1      -3.414   0.810   9.425  0.00  0.00    +0.011 A 
BRANCH  12  14
ATOM     14  C   UNL     1      -4.344   2.488  11.032  0.00  0.00    -0.009 C 
ATOM     15  C   UNL     1      -5.063   2.946   9.762  0.00  0.00    +0.015 C 
ATOM     16  C   UNL     1      -5.378   2.090  12.088  0.00  0.00    +0.015 C 
ATOM     17  C   UNL     1      -3.480   3.630  11.569  0.00  0.00    +0.015 C 
ENDBRANCH  12  14
BRANCH  10  18
ATOM     18  C   UNL     1      -1.088  -1.030  12.504  0.00  0.00    -0.009 C 
ATOM     19  C   UNL     1      -0.299  -2.201  11.916  0.00  0.00    +0.015 C 
ATOM     20  C   UNL     1      -0.117  -0.003  13.090  0.00  0.00    +0.015 C 
ATOM     21  C   UNL     1      -2.015  -1.542  13.608  0.00  0.00    +0.015 C 
ENDBRANCH  10  18
BRANCH  11  22
ATOM     22  O   UNL     1      -2.762   1.195  12.983  0.00  0.00    -0.506 OA
ATOM     23  H   UNL     1      -2.105   1.880  13.167  0.00  0.00    +0.292 HD
ENDBRANCH  11  22
ENDBRANCH   7   8
ENDBRANCH   6   7
ENDBRANCH   3   6
ENDBRANCH   1   2
BRANCH   1  24
ATOM     24  C   UNL     1       0.691  -0.007   2.537  0.00  0.00    +0.132 C 
BRANCH  24  40
ATOM     25  C   UNL     1      -0.019   1.521   0.010  0.00  0.00    +0.068 C 
ATOM     26  C   UNL     1       0.002  -0.004   0.002  0.00  0.00    +0.175 C 
ATOM     27  C   UNL     1       0.826  -0.587  -1.165  0.00  0.00    +0.158 C 
ATOM     28  C   UNL     1       1.977   0.321  -1.553  0.00  0.00    +0.040 C 
ATOM     29  C   UNL     1       2.788  -0.295  -2.699  0.00  0.00    -0.070 C 
ATOM     30  N   UNL     1       1.942  -0.662  -3.824  0.00  0.00    +0.386 N 
ATOM     31  C   UNL     1       0.723  -1.403  -3.547  0.00  0.00    -0.070 C 
ATOM     32  C   UNL     1      -0.068  -0.861  -2.361  0.00  0.00    +0.040 C 
ATOM     33  C   UNL     1       1.002  -2.897  -3.360  0.00  0.00    -0.010 C 
ATOM     34  C   UNL     1      -0.186  -1.274  -4.796  0.00  0.00    -0.010 C 
ATOM     35  C   UNL     1       3.636  -1.463  -2.203  0.00  0.00    -0.010 C 
ATOM     36  C   UNL     1       3.766   0.798  -3.194  0.00  0.00    -0.010 C 
ATOM     37  O   UNL     1       1.297  -1.812  -0.576  0.00  0.00    -0.439 OA
ATOM     38  C   UNL     1       1.469  -1.581   0.741  0.00  0.00    +0.406 C 
ATOM     39  O   UNL     1       2.195  -2.241   1.454  0.00  0.00    -0.226 OA
ATOM     40  N   UNL     1       0.742  -0.530   1.172  0.00  0.00    -0.234 N 
ATOM     41  H   UNL     1       1.692   0.193  -4.328  0.00  0.00    -0.084 HD
ATOM     42  H   UNL     1       2.506  -1.204  -4.484  0.00  0.00    -0.084 HD
BRANCH  26  43
ATOM     43  O   UNL     1      -1.332  -0.525  -0.013  0.00  0.00    -0.368 OA
ATOM     44  H   UNL     1      -1.869  -0.252   0.743  0.00  0.00    +0.212 HD
ENDBRANCH  26  43
ENDBRANCH  24  40
ENDBRANCH   1  24
TORSDOF 10
