REMARK  Name = ZINC35642170
REMARK  12 active torsions:
REMARK  status: ('A' for Active; 'I' for Inactive)
REMARK    1  A    between atoms: C_1  and  C_2
REMARK    2  A    between atoms: C_2  and  N_3
REMARK    3  A    between atoms: C_4  and  C_23
REMARK    4  A    between atoms: C_5  and  C_18
REMARK    5  A    between atoms: C_6  and  C_11
REMARK    6  A    between atoms: C_18  and  O_20
REMARK    7  A    between atoms: O_20  and  C_21
REMARK    8  A    between atoms: C_21  and  C_22
REMARK    9  A    between atoms: C_23  and  N_24
REMARK   10  A    between atoms: C_31  and  C_33
REMARK   11  A    between atoms: C_33  and  C_34
REMARK   12  A    between atoms: C_33  and  C_35
REMARK                            x       y       z     vdW  Elec       q    Type
REMARK                         _______ _______ _______ _____ _____    ______ ____
ROOT
ATOM      1  N   UNL     1       0.094  -2.791  -3.233  0.00  0.00    -0.261 N 
ATOM      2  C   UNL     1      -0.921  -3.623  -3.612  0.00  0.00    +0.010 C 
ATOM      3  C   UNL     1      -0.670  -4.765  -4.288  0.00  0.00    +0.076 C 
ATOM      4  C   UNL     1       0.775  -5.090  -4.611  0.00  0.00    +0.143 C 
ATOM      5  N   UNL     1       1.793  -4.128  -4.157  0.00  0.00    -0.288 N 
ATOM      6  C   UNL     1       1.385  -3.027  -3.495  0.00  0.00    +0.307 C 
ATOM      7  O   UNL     1       2.218  -2.225  -3.120  0.00  0.00    -0.252 OA
ATOM      8  H   UNL     1       2.734  -4.281  -4.333  0.00  0.00    +0.151 HD
ENDROOT
BRANCH   4   9
ATOM      9  C   UNL     1       0.898  -5.225  -6.106  0.00  0.00    -0.021 A 
ATOM     10  C   UNL     1       0.998  -4.095  -6.896  0.00  0.00    +0.006 A 
ATOM     11  C   UNL     1       1.111  -4.218  -8.269  0.00  0.00    +0.002 A 
ATOM     12  C   UNL     1       1.124  -5.471  -8.852  0.00  0.00    +0.020 A 
ATOM     13  C   UNL     1       1.023  -6.603  -8.062  0.00  0.00    +0.041 A 
ATOM     14  C   UNL     1       0.916  -6.479  -6.688  0.00  0.00    +0.025 A 
ATOM     15 CL   UNL     1       1.039  -8.177  -8.794  0.00  0.00    -0.084 Cl
ENDBRANCH   4   9
BRANCH   1  17
ATOM     16  C   UNL     1      -0.449  -0.421  -3.494  0.00  0.00    +0.025 C 
ATOM     17  C   UNL     1      -0.251  -1.569  -2.502  0.00  0.00    +0.111 C 
ENDBRANCH   1  17
BRANCH   3  18
ATOM     18  C   UNL     1      -1.719  -5.628  -4.682  0.00  0.00    +0.339 C 
ATOM     19  O   UNL     1      -2.877  -5.295  -4.509  0.00  0.00    -0.245 OA
BRANCH  18  20
ATOM     20  O   UNL     1      -1.436  -6.819  -5.249  0.00  0.00    -0.462 OA
BRANCH  20  21
ATOM     21  C   UNL     1      -2.545  -7.640  -5.621  0.00  0.00    +0.229 C 
ATOM     22  C   UNL     1      -2.032  -8.940  -6.243  0.00  0.00    +0.048 C 
ENDBRANCH  20  21
ENDBRANCH  18  20
ENDBRANCH   3  18
BRANCH   2  23
ATOM     23  C   UNL     1      -2.343  -3.261  -3.272  0.00  0.00    -0.026 C 
BRANCH  23  24
ATOM     24  N   UNL     1      -2.776  -4.030  -2.098  0.00  0.00    +0.384 N 
ATOM     25  C   UNL     1      -4.225  -3.890  -1.963  0.00  0.00    -0.077 C 
ATOM     26  C   UNL     1      -4.788  -5.132  -1.310  0.00  0.00    +0.000 C 
ATOM     27  C   UNL     1      -4.880  -4.914   0.212  0.00  0.00    +0.106 C 
ATOM     28  N   UNL     1      -3.699  -4.185   0.716  0.00  0.00    -0.303 N 
ATOM     29  C   UNL     1      -2.356  -4.470   0.253  0.00  0.00    +0.089 C 
ATOM     30  C   UNL     1      -2.029  -3.597  -0.980  0.00  0.00    -0.059 C 
ATOM     31  C   UNL     1      -3.876  -3.220   1.639  0.00  0.00    +0.218 C 
ATOM     32  O   UNL     1      -2.933  -2.553   2.009  0.00  0.00    -0.275 OA
ATOM     33  H   UNL     1      -2.567  -5.004  -2.262  0.00  0.00    -0.081 HD
BRANCH  31  34
ATOM     34  C   UNL     1      -5.247  -2.970   2.214  0.00  0.00    +0.069 C 
ATOM     35  C   UNL     1      -5.119  -2.151   3.500  0.00  0.00    +0.017 C 
ATOM     36  C   UNL     1      -6.092  -2.197   1.199  0.00  0.00    +0.017 C 
ENDBRANCH  31  34
ENDBRANCH  23  24
ENDBRANCH   2  23
TORSDOF 8
