REMARK  Name = ZINC39791881
REMARK  8 active torsions:
REMARK  status: ('A' for Active; 'I' for Inactive)
REMARK    1  A    between atoms: C_1  and  C_2
REMARK    2  A    between atoms: C_5  and  N_8
REMARK    3  A    between atoms: C_9  and  C_31
REMARK    4  A    between atoms: C_11  and  C_17
REMARK    5  A    between atoms: C_17  and  O_19
REMARK    6  A    between atoms: O_19  and  C_20
REMARK    7  A    between atoms: C_20  and  C_21
REMARK    8  A    between atoms: C_24  and  C_26
REMARK                            x       y       z     vdW  Elec       q    Type
REMARK                         _______ _______ _______ _____ _____    ______ ____
ROOT
ATOM      1  N   UNL     1       0.059  -4.170  -0.021  0.00  0.00    -0.263 N 
ATOM      2  C   UNL     1       0.181  -4.858   1.258  0.00  0.00    +0.132 C 
ATOM      3  C   UNL     1      -0.281  -6.311   1.130  0.00  0.00    +0.124 C 
ATOM      4  C   UNL     1       0.433  -6.949  -0.067  0.00  0.00    +0.026 C 
ATOM      5  C   UNL     1      -0.079  -6.283  -1.347  0.00  0.00    +0.097 C 
ATOM      6  C   UNL     1      -0.042  -4.790  -1.197  0.00  0.00    +0.220 C 
ATOM      7  O   UNL     1      -0.102  -4.111  -2.201  0.00  0.00    -0.275 OA
ENDROOT
BRANCH   1  12
ATOM      8  C   UNL     1      -0.016   1.503   0.012  0.00  0.00    +0.044 C 
ATOM      9  C   UNL     1       0.004  -0.004   0.003  0.00  0.00    -0.050 A 
ATOM     10  C   UNL     1      -1.164  -0.711   0.224  0.00  0.00    +0.005 A 
ATOM     11  C   UNL     1      -1.149  -2.092   0.217  0.00  0.00    +0.024 A 
ATOM     12  C   UNL     1       0.040  -2.771  -0.013  0.00  0.00    +0.037 A 
ATOM     13  C   UNL     1       1.211  -2.058  -0.235  0.00  0.00    +0.024 A 
ATOM     14  C   UNL     1       1.189  -0.677  -0.231  0.00  0.00    +0.005 A 
ENDBRANCH   1  12
BRANCH   2  15
ATOM     15  C   UNL     1       1.621  -4.835   1.700  0.00  0.00    +0.011 A 
ATOM     16  C   UNL     1       2.129  -4.652   2.944  0.00  0.00    +0.013 A 
ATOM     17  C   UNL     1       3.500  -4.671   3.117  0.00  0.00    +0.008 A 
ATOM     18  C   UNL     1       4.296  -4.872   2.038  0.00  0.00    +0.045 A 
ATOM     19  S   UNL     1       3.101  -5.050   0.725  0.00  0.00    -0.100 S 
ENDBRANCH   2  15
BRANCH   3  20
ATOM     20  C   UNL     1       0.064  -7.063   2.389  0.00  0.00    +0.313 C 
ATOM     21  O   UNL     1       0.623  -6.497   3.298  0.00  0.00    -0.250 OA
BRANCH  20  22
ATOM     22  O   UNL     1      -0.250  -8.364   2.501  0.00  0.00    -0.455 OA
BRANCH  22  23
ATOM     23  C   UNL     1       0.107  -9.015   3.722  0.00  0.00    +0.328 C 
BRANCH  23  24
ATOM     24  C   UNL     1      -0.321 -10.458   3.665  0.00  0.00    +0.257 C 
ATOM     25  O   UNL     1      -0.877 -10.887   2.677  0.00  0.00    -0.272 OA
ATOM     26  N   UNL     1      -0.086 -11.273   4.713  0.00  0.00    -0.249 N 
ATOM     27  C   UNL     1      -0.469 -12.564   4.663  0.00  0.00    +0.265 C 
ATOM     28  O   UNL     1      -1.026 -12.994   3.672  0.00  0.00    -0.268 OA
ATOM     29  H   UNL     1       0.358 -10.929   5.504  0.00  0.00    +0.158 HD
BRANCH  27  30
ATOM     30  C   UNL     1      -0.213 -13.453   5.807  0.00  0.00    +0.107 C 
ATOM     31  N   UNL     1       0.364 -13.136   6.929  0.00  0.00    -0.255 NA
ATOM     32  C   UNL     1       0.459 -14.156   7.788  0.00  0.00    +0.107 C 
ATOM     33  C   UNL     1      -0.063 -15.286   7.301  0.00  0.00    -0.001 C 
ATOM     34  C   UNL     1      -0.574 -14.922   5.919  0.00  0.00    +0.089 C 
ENDBRANCH  27  30
ENDBRANCH  23  24
ENDBRANCH  22  23
ENDBRANCH  20  22
ENDBRANCH   3  20
TORSDOF 7
