REMARK  Name = ZINC06149182
REMARK  14 active torsions:
REMARK  status: ('A' for Active; 'I' for Inactive)
REMARK    1  A    between atoms: C_1  and  C_2
REMARK    2  A    between atoms: C_2  and  C_3
REMARK    3  A    between atoms: C_3  and  C_4
REMARK    4  A    between atoms: C_3  and  C_5
REMARK    5  A    between atoms: C_3  and  N_6
REMARK    6  A    between atoms: C_7  and  C_11
REMARK    7  A    between atoms: C_11  and  C_13
REMARK    8  A    between atoms: C_11  and  N_70
REMARK    9  A    between atoms: C_17  and  O_25
REMARK   10  A    between atoms: O_25  and  C_26
REMARK   11  A    between atoms: C_27  and  C_28
REMARK   12  A    between atoms: C_27  and  N_70
REMARK   13  A    between atoms: C_34  and  C_35
REMARK   14  A    between atoms: C_34  and  N_70
REMARK                            x       y       z     vdW  Elec       q    Type
REMARK                         _______ _______ _______ _____ _____    ______ ____
ROOT
ATOM      1  C   UNL     1       3.023   1.473  -0.284  0.00  0.00    +0.040 C 
ENDROOT
BRANCH   1   2
ATOM      2  C   UNL     1       1.561   1.839  -0.281  0.00  0.00    +0.011 A 
ATOM      3  C   UNL     1       0.656   1.004   0.286  0.00  0.00    +0.017 A 
ATOM      4  C   UNL     1      -0.757   1.386   0.268  0.00  0.00    +0.002 A 
ATOM      5  C   UNL     1      -1.735   0.560   0.833  0.00  0.00    +0.055 A 
ATOM      6  C   UNL     1      -3.059   0.951   0.798  0.00  0.00    +0.121 A 
ATOM      7  C   UNL     1      -3.420   2.158   0.204  0.00  0.00    +0.047 A 
ATOM      8  C   UNL     1      -2.465   2.984  -0.345  0.00  0.00    +0.030 A 
ATOM      9  C   UNL     1      -1.126   2.607  -0.325  0.00  0.00    +0.049 A 
ATOM     10  N   UNL     1      -0.156   3.413  -0.886  0.00  0.00    -0.322 N 
ATOM     11  H   UNL     1      -0.420   4.279  -1.311  0.00  0.00    +0.169 HD
ATOM     12  C   UNL     1       1.139   3.051  -0.869  0.00  0.00    +0.251 A 
ATOM     13  O   UNL     1       1.968   3.787  -1.374  0.00  0.00    -0.268 OA
BRANCH   6  14
ATOM     14  O   UNL     1      -4.014   0.153   1.345  0.00  0.00    -0.495 OA
ATOM     15  C   UNL     1      -5.364   0.616   1.275  0.00  0.00    +0.277 C 
ENDBRANCH   6  14
ENDBRANCH   1   2
BRANCH   1  17
ATOM     16  N   UNL     1       4.431   2.012   1.772  0.00  0.00    -0.225 N 
ATOM     17  C   UNL     1       3.770   2.380   0.659  0.00  0.00    +0.143 A 
ATOM     18  N   UNL     1       3.907   3.679   0.552  0.00  0.00    -0.115 NA
ATOM     19  N   UNL     1       4.609   4.089   1.552  0.00  0.00    -0.023 NA
ATOM     20  N   UNL     1       4.930   3.084   2.289  0.00  0.00    -0.043 NA
BRANCH  16  21
ATOM     21  C   UNL     1       4.561   0.651   2.298  0.00  0.00    +0.061 C 
ATOM     22  C   UNL     1       3.171   0.083   2.592  0.00  0.00    +0.036 C 
ATOM     23  C   UNL     1       5.263  -0.230   1.263  0.00  0.00    +0.036 C 
BRANCH  21  25
ATOM     24  C   UNL     1       5.519  -0.744   4.136  0.00  0.00    +0.006 C 
ATOM     25  C   UNL     1       5.384   0.678   3.587  0.00  0.00    +0.026 C 
ENDBRANCH  21  25
ENDBRANCH  16  21
ENDBRANCH   1  17
BRANCH   1  26
ATOM     26  N   UNL     1       3.554   1.651  -1.652  0.00  0.00    +0.395 N 
ATOM     27  H   UNL     1       3.216   2.546  -2.027  0.00  0.00    -0.079 HD
BRANCH  26  28
ATOM     28  C   UNL     1       5.031   1.670  -1.622  0.00  0.00    -0.041 C 
BRANCH  28  29
ATOM     29  C   UNL     1       5.540   2.071  -2.983  0.00  0.00    -0.064 A 
ATOM     30  C   UNL     1       5.818   1.103  -3.930  0.00  0.00    +0.002 A 
ATOM     31  C   UNL     1       6.279   1.471  -5.180  0.00  0.00    +0.000 A 
ATOM     32  C   UNL     1       6.474   2.807  -5.479  0.00  0.00    +0.000 A 
ATOM     33  C   UNL     1       6.202   3.774  -4.530  0.00  0.00    +0.000 A 
ATOM     34  C   UNL     1       5.735   3.406  -3.282  0.00  0.00    +0.002 A 
ENDBRANCH  28  29
ENDBRANCH  26  28
BRANCH  26  35
ATOM     35  C   UNL     1       3.080   0.556  -2.525  0.00  0.00    -0.034 C 
BRANCH  35  36
ATOM     36  C   UNL     1       1.669   0.861  -2.957  0.00  0.00    -0.027 A 
ATOM     37  C   UNL     1       1.232   1.750  -3.881  0.00  0.00    +0.009 A 
ATOM     38  C   UNL     1      -0.126   1.861  -4.117  0.00  0.00    +0.008 A 
ATOM     39  C   UNL     1      -0.980   1.075  -3.416  0.00  0.00    +0.045 A 
ATOM     40  S   UNL     1       0.139   0.137  -2.389  0.00  0.00    -0.103 S 
ENDBRANCH  35  36
ENDBRANCH  26  35
ENDBRANCH   1  26
TORSDOF 10
