REMARK  Name = ZINC44928703
REMARK  7 active torsions:
REMARK  status: ('A' for Active; 'I' for Inactive)
REMARK    1  A    between atoms: C_5  and  C_7
REMARK    2  A    between atoms: C_12  and  O_27
REMARK    3  A    between atoms: C_18  and  N_22
REMARK    4  A    between atoms: N_22  and  C_23
REMARK    5  A    between atoms: C_23  and  C_24
REMARK    6  A    between atoms: C_24  and  C_25
REMARK    7  A    between atoms: C_25  and  O_26
REMARK                            x       y       z     vdW  Elec       q    Type
REMARK                         _______ _______ _______ _____ _____    ______ ____
ROOT
ATOM      1  C   UNL     1       1.229  -2.186  -0.022  0.00  0.00    +0.092 C 
ATOM      2  C   UNL     1       0.521  -2.686  -1.253  0.00  0.00    +0.007 A 
ATOM      3  C   UNL     1       1.170  -2.634  -2.474  0.00  0.00    +0.012 A 
ATOM      4  C   UNL     1       0.541  -3.087  -3.617  0.00  0.00    +0.046 A 
ATOM      5  C   UNL     1      -0.747  -3.597  -3.544  0.00  0.00    +0.120 A 
ATOM      6  C   UNL     1      -1.399  -3.651  -2.323  0.00  0.00    +0.092 A 
ATOM      7  C   UNL     1      -0.766  -3.194  -1.173  0.00  0.00    +0.138 A 
ATOM      8  O   UNL     1      -1.423  -3.256   0.010  0.00  0.00    -0.437 OA
ATOM      9  C   UNL     1      -0.736  -3.206   1.170  0.00  0.00    +0.229 A 
ATOM     10  C   UNL     1       0.548  -2.699   1.214  0.00  0.00    +0.066 A 
ATOM     11  C   UNL     1       1.206  -2.671   2.441  0.00  0.00    +0.130 A 
ATOM     12  N   UNL     1       0.575  -3.133   3.519  0.00  0.00    -0.220 NA
ATOM     13  C   UNL     1      -0.650  -3.608   3.431  0.00  0.00    +0.227 A 
ATOM     14  N   UNL     1      -1.295  -3.649   2.295  0.00  0.00    -0.201 NA
ENDROOT
BRANCH   1  19
ATOM     15  C   UNL     1      -0.017   1.378   0.010  0.00  0.00    +0.000 A 
ATOM     16  C   UNL     1       1.171   2.086   0.002  0.00  0.00    +0.001 A 
ATOM     17  C   UNL     1       2.377   1.412  -0.013  0.00  0.00    +0.020 A 
ATOM     18  C   UNL     1       2.397   0.029  -0.021  0.00  0.00    +0.045 A 
ATOM     19  C   UNL     1       1.208  -0.679  -0.013  0.00  0.00    -0.017 A 
ATOM     20  C   UNL     1       0.002  -0.004   0.002  0.00  0.00    +0.006 A 
ATOM     21 CL   UNL     1       3.912  -0.818  -0.041  0.00  0.00    -0.083 Cl
ENDBRANCH   1  19
BRANCH  11  22
ATOM     22  N   UNL     1       2.496  -2.173   2.537  0.00  0.00    -0.329 N 
ATOM     23  H   UNL     1       2.947  -1.839   1.746  0.00  0.00    +0.147 HD
BRANCH  22  24
ATOM     24  C   UNL     1       3.177  -2.149   3.834  0.00  0.00    +0.105 C 
BRANCH  24  25
ATOM     25  C   UNL     1       4.576  -1.555   3.665  0.00  0.00    +0.046 C 
BRANCH  25  26
ATOM     26  C   UNL     1       5.287  -1.531   5.019  0.00  0.00    +0.157 C 
BRANCH  26  27
ATOM     27  O   UNL     1       6.595  -0.976   4.861  0.00  0.00    -0.395 OA
ATOM     28  H   UNL     1       7.104  -0.930   5.682  0.00  0.00    +0.209 HD
ENDBRANCH  26  27
ENDBRANCH  25  26
ENDBRANCH  24  25
ENDBRANCH  22  24
ENDBRANCH  11  22
BRANCH   5  29
ATOM     29  O   UNL     1      -1.368  -4.042  -4.667  0.00  0.00    -0.507 OA
ATOM     30  H   UNL     1      -1.220  -4.980  -4.854  0.00  0.00    +0.292 HD
ENDBRANCH   5  29
TORSDOF 7
