REMARK  Name = ZINC20927271
REMARK  5 active torsions:
REMARK  status: ('A' for Active; 'I' for Inactive)
REMARK    1  A    between atoms: C_1  and  N_2
REMARK    2  A    between atoms: C_8  and  N_22
REMARK    3  A    between atoms: C_9  and  C_10
REMARK    4  A    between atoms: C_10  and  N_11
REMARK    5  A    between atoms: N_14  and  C_15
REMARK                            x       y       z     vdW  Elec       q    Type
REMARK                         _______ _______ _______ _____ _____    ______ ____
ROOT
ATOM      1  C   UNL     1       6.340   3.312   4.339  0.00  0.00    -0.096 C 
ATOM      2  N   UNL     1       5.442   3.188   3.183  0.00  0.00    +0.381 N 
ATOM      3  C   UNL     1       4.988   1.800   3.014  0.00  0.00    -0.074 C 
ATOM      4  C   UNL     1       3.784   1.748   2.071  0.00  0.00    +0.018 C 
ATOM      5  C   UNL     1       4.149   2.495   0.790  0.00  0.00    -0.034 A 
ATOM      6  C   UNL     1       5.206   3.353   0.795  0.00  0.00    -0.021 A 
ATOM      7  S   UNL     1       5.258   3.972  -0.864  0.00  0.00    -0.077 S 
ATOM      8  C   UNL     1       3.864   3.057  -1.506  0.00  0.00    +0.089 A 
ATOM      9  C   UNL     1       3.461   2.357  -0.412  0.00  0.00    +0.004 A 
ATOM     10  C   UNL     1       6.094   3.675   1.952  0.00  0.00    -0.036 C 
ATOM     11  H   UNL     1       4.559   3.814   3.378  0.00  0.00    -0.082 HD
ENDROOT
BRANCH   8  12
ATOM     12  N   UNL     1       3.326   3.062  -2.798  0.00  0.00    -0.317 N 
ATOM     13  C   UNL     1       4.040   2.963  -3.958  0.00  0.00    +0.092 A 
ATOM     14  C   UNL     1       3.172   3.001  -4.991  0.00  0.00    +0.019 A 
ATOM     15  C   UNL     1       1.878   3.137  -4.451  0.00  0.00    +0.019 A 
ATOM     16  C   UNL     1       2.001   3.171  -3.108  0.00  0.00    +0.092 A 
ENDBRANCH   8  12
BRANCH   9  17
ATOM     17  C   UNL     1       2.276   1.429  -0.503  0.00  0.00    +0.144 C 
BRANCH  17  18
ATOM     18  N   UNL     1       1.073   2.127  -0.045  0.00  0.00    -0.295 N 
ATOM     19  C   UNL     1      -0.115   1.490  -0.038  0.00  0.00    +0.304 C 
ATOM     20  O   UNL     1      -0.187   0.335  -0.412  0.00  0.00    -0.252 OA
ATOM     21  N   UNL     1      -1.223   2.134   0.379  0.00  0.00    -0.269 N 
ATOM     22  H   UNL     1       1.138   3.172   0.294  0.00  0.00    +0.151 HD
ATOM     23  H   UNL     1      -1.146   3.152   0.787  0.00  0.00    +0.156 HD
BRANCH  21  24
ATOM     24  C   UNL     1      -2.471   1.507   0.292  0.00  0.00    +0.035 A 
ATOM     25  C   UNL     1      -3.604   2.251  -0.009  0.00  0.00    +0.024 A 
ATOM     26  C   UNL     1      -4.834   1.629  -0.100  0.00  0.00    +0.017 A 
ATOM     27  C   UNL     1      -4.939   0.267   0.119  0.00  0.00    +0.018 A 
ATOM     28  C   UNL     1      -3.813  -0.476   0.424  0.00  0.00    +0.017 A 
ATOM     29  C   UNL     1      -2.580   0.140   0.511  0.00  0.00    +0.024 A 
ATOM     30 BR   UNL     1      -6.626  -0.580   0.001  0.00  0.00    -0.050 Br
ENDBRANCH  21  24
ENDBRANCH  17  18
ENDBRANCH   9  17
TORSDOF 4
