REMARK  Name = ZINC12822196
REMARK  2 active torsions:
REMARK  status: ('A' for Active; 'I' for Inactive)
REMARK    1  A    between atoms: C_1  and  N_2
REMARK    2  A    between atoms: C_12  and  C_14
REMARK                            x       y       z     vdW  Elec       q    Type
REMARK                         _______ _______ _______ _____ _____    ______ ____
ROOT
ATOM      1  C   UNL     1      -1.180   3.251  -0.121  0.00  0.00    +0.140 C 
ATOM      2  N   UNL     1      -1.150   1.791  -0.005  0.00  0.00    -0.248 N 
ATOM      3  C   UNL     1      -2.333   1.081   0.101  0.00  0.00    +0.168 A 
ATOM      4  N   UNL     1      -3.566   1.532   0.116  0.00  0.00    -0.224 NA
ATOM      5  C   UNL     1      -4.636   0.716   0.225  0.00  0.00    +0.080 A 
ATOM      6  C   UNL     1      -6.005   1.070   0.253  0.00  0.00    +0.029 A 
ATOM      7  C   UNL     1      -6.975   0.109   0.370  0.00  0.00    +0.002 A 
ATOM      8  C   UNL     1      -6.654  -1.238   0.464  0.00  0.00    +0.001 A 
ATOM      9  C   UNL     1      -5.325  -1.620   0.440  0.00  0.00    +0.017 A 
ATOM     10  C   UNL     1      -4.347  -0.664   0.324  0.00  0.00    +0.041 A 
ATOM     11  S   UNL     1      -2.572  -0.684   0.245  0.00  0.00    -0.052 S 
ATOM     12  C   UNL     1       0.029   1.139  -0.002  0.00  0.00    +0.272 C 
ATOM     13  O   UNL     1       0.052  -0.079  -0.003  0.00  0.00    -0.268 OA
ENDROOT
BRANCH  12  14
ATOM     14  C   UNL     1       1.241   1.869  -0.002  0.00  0.00    +0.148 A 
ATOM     15  C   UNL     1       1.954   2.280   1.108  0.00  0.00    +0.161 A 
ATOM     16  N   UNL     1       3.030   2.934   0.682  0.00  0.00    -0.209 NA
ATOM     17  C   UNL     1       3.036   2.961  -0.627  0.00  0.00    +0.179 A 
ATOM     18  N   UNL     1       1.953   2.312  -1.132  0.00  0.00    -0.288 N 
ATOM     19  C   UNL     1       1.827   2.266  -2.500  0.00  0.00    +0.101 A 
ATOM     20  C   UNL     1       2.742   2.832  -3.289  0.00  0.00    +0.067 A 
ATOM     21  S   UNL     1       3.888   3.501  -2.093  0.00  0.00    -0.058 S 
ATOM     22 CL   UNL     1       1.524   1.990   2.764  0.00  0.00    -0.060 Cl
ENDBRANCH  12  14
TORSDOF 1
