REMARK  Name = ZINC36545168
REMARK  13 active torsions:
REMARK  status: ('A' for Active; 'I' for Inactive)
REMARK    1  A    between atoms: C_1  and  C_2
REMARK    2  A    between atoms: C_2  and  C_3
REMARK    3  A    between atoms: C_3  and  C_4
REMARK    4  A    between atoms: C_4  and  N_5
REMARK    5  A    between atoms: C_6  and  C_8
REMARK    6  A    between atoms: C_8  and  C_10
REMARK    7  A    between atoms: C_8  and  N_18
REMARK    8  A    between atoms: C_13  and  C_17
REMARK    9  A    between atoms: C_15  and  C_16
REMARK   10  A    between atoms: N_18  and  C_19
REMARK   11  A    between atoms: C_26  and  C_28
REMARK   12  A    between atoms: C_29  and  O_35
REMARK   13  A    between atoms: C_33  and  O_34
REMARK                            x       y       z     vdW  Elec       q    Type
REMARK                         _______ _______ _______ _____ _____    ______ ____
ROOT
ATOM      1  N   UNL     1       2.346  -5.913  -4.078  0.00  0.00    -0.250 N 
ATOM      2  C   UNL     1       2.019  -6.699  -5.123  0.00  0.00    +0.259 C 
ATOM      3  O   UNL     1       1.492  -6.215  -6.106  0.00  0.00    -0.269 OA
ENDROOT
BRANCH   1   4
ATOM      4  C   UNL     1       3.045  -6.449  -2.991  0.00  0.00    +0.056 A 
ATOM      5  C   UNL     1       2.353  -7.036  -1.939  0.00  0.00    +0.025 A 
ATOM      6  C   UNL     1       3.045  -7.564  -0.868  0.00  0.00    +0.002 A 
ATOM      7  C   UNL     1       4.427  -7.510  -0.841  0.00  0.00    +0.002 A 
ATOM      8  C   UNL     1       5.120  -6.927  -1.885  0.00  0.00    +0.022 A 
ATOM      9  C   UNL     1       4.434  -6.401  -2.963  0.00  0.00    +0.062 A 
ATOM     10 CL   UNL     1       5.304  -5.675  -4.278  0.00  0.00    -0.082 Cl
ENDBRANCH   1   4
BRANCH   2  11
ATOM     11  C   UNL     1       2.300  -8.143  -5.074  0.00  0.00    +0.120 A 
ATOM     12  C   UNL     1       1.410  -9.015  -4.429  0.00  0.00    +0.133 A 
ATOM     13  C   UNL     1       1.685 -10.372  -4.389  0.00  0.00    +0.046 A 
ATOM     14  C   UNL     1       2.831 -10.868  -4.981  0.00  0.00    +0.007 A 
ATOM     15  C   UNL     1       3.716 -10.018  -5.619  0.00  0.00    +0.046 A 
ATOM     16  C   UNL     1       3.458  -8.658  -5.676  0.00  0.00    +0.133 A 
BRANCH  16  17
ATOM     17  O   UNL     1       4.324  -7.827  -6.308  0.00  0.00    -0.506 OA
ATOM     18  H   UNL     1       5.059  -7.530  -5.753  0.00  0.00    +0.292 HD
ENDBRANCH  16  17
BRANCH  12  19
ATOM     19  O   UNL     1       0.285  -8.530  -3.847  0.00  0.00    -0.506 OA
ATOM     20  H   UNL     1      -0.481  -8.501  -4.436  0.00  0.00    +0.292 HD
ENDBRANCH  12  19
ENDBRANCH   2  11
BRANCH   1  21
ATOM     21  C   UNL     1       1.970  -4.497  -4.080  0.00  0.00    +0.198 C 
BRANCH  21  22
ATOM     22  C   UNL     1       3.193  -3.652  -3.832  0.00  0.00    -0.015 A 
ATOM     23  C   UNL     1       3.509  -3.256  -2.546  0.00  0.00    +0.006 A 
ATOM     24  C   UNL     1       4.631  -2.480  -2.318  0.00  0.00    +0.004 A 
ATOM     25  C   UNL     1       5.436  -2.102  -3.377  0.00  0.00    -0.050 A 
ATOM     26  C   UNL     1       5.120  -2.499  -4.662  0.00  0.00    +0.007 A 
ATOM     27  C   UNL     1       4.000  -3.278  -4.889  0.00  0.00    -0.045 A 
ATOM     28  C   UNL     1       3.659  -3.716  -6.290  0.00  0.00    +0.044 C 
ATOM     29  C   UNL     1       6.658  -1.256  -3.129  0.00  0.00    +0.044 C 
ENDBRANCH  21  22
BRANCH  21  31
ATOM     30  N   UNL     1       0.339  -3.049  -2.913  0.00  0.00    -0.313 N 
ATOM     31  C   UNL     1       0.956  -4.245  -2.994  0.00  0.00    +0.238 C 
ATOM     32  O   UNL     1       0.695  -5.118  -2.194  0.00  0.00    -0.273 OA
ATOM     33  H   UNL     1       0.600  -2.328  -3.506  0.00  0.00    +0.149 HD
BRANCH  30  34
ATOM     34  C   UNL     1      -0.725  -2.840  -1.928  0.00  0.00    +0.104 C 
BRANCH  34  35
ATOM     35  C   UNL     1      -1.252  -1.408  -2.044  0.00  0.00    +0.018 C 
BRANCH  35  37
ATOM     36  C   UNL     1      -2.891   0.242  -1.131  0.00  0.00    +0.004 C 
ATOM     37  C   UNL     1      -2.363  -1.189  -1.015  0.00  0.00    -0.002 C 
ENDBRANCH  35  37
ENDBRANCH  34  35
ENDBRANCH  30  34
ENDBRANCH  21  31
ENDBRANCH   1  21
TORSDOF 10
