REMARK  Name = ZINC14544778
REMARK  3 active torsions:
REMARK  status: ('A' for Active; 'I' for Inactive)
REMARK    1  A    between atoms: C_7  and  C_11
REMARK    2  A    between atoms: C_22  and  S_27
REMARK    3  A    between atoms: S_27  and  N_30
REMARK                            x       y       z     vdW  Elec       q    Type
REMARK                         _______ _______ _______ _____ _____    ______ ____
ROOT
ATOM      1  C   UNL     1       0.571   6.426   0.030  0.00  0.00    +0.107 C 
ATOM      2  C   UNL     1       0.975   6.746  -1.397  0.00  0.00    +0.029 C 
ATOM      3  C   UNL     1       1.861   8.013  -1.452  0.00  0.00    +0.033 C 
ATOM      4  C   UNL     1       1.575   8.566  -2.837  0.00  0.00    -0.030 C 
ATOM      5  C   UNL     1       0.427   8.119  -3.281  0.00  0.00    -0.023 C 
ATOM      6  C   UNL     1      -0.221   7.204  -2.251  0.00  0.00    +0.049 C 
ATOM      7  C   UNL     1      -1.212   8.016  -1.462  0.00  0.00    -0.018 A 
ATOM      8  C   UNL     1      -2.252   8.625  -2.152  0.00  0.00    +0.034 A 
ATOM      9  C   UNL     1      -3.188   9.385  -1.479  0.00  0.00    +0.106 A 
ATOM     10  C   UNL     1      -3.098   9.549  -0.108  0.00  0.00    +0.030 A 
ATOM     11  C   UNL     1      -2.069   8.947   0.587  0.00  0.00    +0.025 A 
ATOM     12  C   UNL     1      -1.128   8.180  -0.091  0.00  0.00    +0.031 A 
ATOM     13  N   UNL     1      -0.084   7.596   0.628  0.00  0.00    -0.336 N 
ATOM     14  H   UNL     1       0.188   7.934   1.495  0.00  0.00    +0.147 HD
ENDROOT
BRANCH   1  21
ATOM     15  C   UNL     1       1.184   1.779   0.000  0.00  0.00    +0.001 A 
ATOM     16  C   UNL     1      -0.013   1.076   0.008  0.00  0.00    +0.002 A 
ATOM     17  C   UNL     1      -1.219   1.741   0.017  0.00  0.00    +0.026 A 
ATOM     18  C   UNL     1      -1.240   3.132   0.030  0.00  0.00    +0.047 A 
ATOM     19  C   UNL     1      -0.025   3.840   0.022  0.00  0.00    +0.005 A 
ATOM     20  C   UNL     1       1.186   3.146   0.008  0.00  0.00    +0.010 A 
ATOM     21  C   UNL     1      -0.384   5.261   0.033  0.00  0.00    -0.002 A 
ATOM     22  C   UNL     1      -1.724   5.327   0.045  0.00  0.00    +0.089 A 
ATOM     23  N   UNL     1      -2.253   4.065   0.044  0.00  0.00    -0.360 N 
ATOM     24  H   UNL     1      -3.201   3.858   0.051  0.00  0.00    +0.165 HD
ENDBRANCH   1  21
BRANCH   9  25
ATOM     25  S   UNL     1      -4.502  10.149  -2.370  0.00  0.00    +0.061 S 
ATOM     26  O   UNL     1      -4.934  11.254  -1.588  0.00  0.00    -0.153 OA
ATOM     27  O   UNL     1      -4.053  10.294  -3.711  0.00  0.00    -0.153 OA
BRANCH  25  28
ATOM     28  N   UNL     1      -5.760   9.074  -2.405  0.00  0.00    -0.172 NA
ATOM     29  C   UNL     1      -5.893   8.099  -3.499  0.00  0.00    +0.137 C 
ATOM     30  C   UNL     1      -6.091   6.706  -2.879  0.00  0.00    +0.177 C 
ATOM     31  O   UNL     1      -7.170   6.759  -1.942  0.00  0.00    -0.377 OA
ATOM     32  C   UNL     1      -6.939   7.632  -0.834  0.00  0.00    +0.177 C 
ATOM     33  C   UNL     1      -6.782   9.068  -1.346  0.00  0.00    +0.137 C 
ENDBRANCH  25  28
ENDBRANCH   9  25
TORSDOF 3
