REMARK  Name = ZINC09531835
REMARK  4 active torsions:
REMARK  status: ('A' for Active; 'I' for Inactive)
REMARK    1  A    between atoms: C_1  and  C_2
REMARK    2  A    between atoms: C_2  and  C_3
REMARK    3  A    between atoms: C_2  and  N_4
REMARK    4  A    between atoms: C_6  and  C_7
REMARK                            x       y       z     vdW  Elec       q    Type
REMARK                         _______ _______ _______ _____ _____    ______ ____
ROOT
ATOM      1  N   UNL     1       2.542   9.510  -0.327  0.00  0.00    -0.197 N 
ATOM      2  C   UNL     1       2.454   8.103  -0.235  0.00  0.00    +0.099 C 
ATOM      3  C   UNL     1       1.287   7.476   0.093  0.00  0.00    +0.035 C 
ATOM      4  C   UNL     1       3.686   7.350  -0.504  0.00  0.00    +0.210 C 
ATOM      5  O   UNL     1       3.635   6.308  -1.132  0.00  0.00    -0.285 OA
ATOM      6  C   UNL     1       4.987   7.849  -0.022  0.00  0.00    +0.050 A 
ATOM      7  C   UNL     1       6.103   7.007  -0.083  0.00  0.00    +0.014 A 
ATOM      8  C   UNL     1       7.335   7.462   0.337  0.00  0.00    +0.001 A 
ATOM      9  C   UNL     1       7.472   8.752   0.818  0.00  0.00    +0.002 A 
ATOM     10  C   UNL     1       6.373   9.589   0.888  0.00  0.00    +0.029 A 
ATOM     11  C   UNL     1       5.134   9.144   0.475  0.00  0.00    +0.120 A 
ATOM     12  S   UNL     1       3.741  10.223   0.584  0.00  0.00    +0.076 S 
ATOM     13  O   UNL     1       4.101  11.427  -0.079  0.00  0.00    -0.150 OA
ATOM     14  O   UNL     1       3.302  10.194   1.936  0.00  0.00    -0.150 OA
ENDROOT
BRANCH   3  15
ATOM     15  C   UNL     1       1.267   6.082   0.287  0.00  0.00    -0.008 C 
ATOM     16  C   UNL     1       2.094   5.507   1.203  0.00  0.00    +0.018 C 
ATOM     17  C   UNL     1       2.045   4.045   1.349  0.00  0.00    +0.017 A 
ATOM     18  C   UNL     1       2.592   3.406   2.462  0.00  0.00    +0.011 A 
ATOM     19  C   UNL     1       2.518   2.032   2.560  0.00  0.00    +0.001 A 
ATOM     20  C   UNL     1       1.916   1.289   1.558  0.00  0.00    +0.004 A 
ATOM     21  C   UNL     1       1.370   1.913   0.450  0.00  0.00    +0.046 A 
ATOM     22  C   UNL     1       1.429   3.289   0.335  0.00  0.00    +0.128 A 
ATOM     23  O   UNL     1       0.904   3.930  -0.738  0.00  0.00    -0.487 OA
ATOM     24  C   UNL     1       0.330   5.219  -0.516  0.00  0.00    +0.264 C 
ENDBRANCH   3  15
BRANCH   1  26
ATOM     25  C   UNL     1       1.708   9.781  -2.610  0.00  0.00    +0.029 C 
ATOM     26  C   UNL     1       1.635  10.294  -1.170  0.00  0.00    +0.092 C 
ATOM     27  C   UNL     1       0.204  10.152  -0.649  0.00  0.00    +0.029 C 
ENDBRANCH   1  26
TORSDOF 2
