REMARK  Name = ZINC20518905
REMARK  7 active torsions:
REMARK  status: ('A' for Active; 'I' for Inactive)
REMARK    1  A    between atoms: C_1  and  O_2
REMARK    2  A    between atoms: O_2  and  C_3
REMARK    3  A    between atoms: C_8  and  C_9
REMARK    4  A    between atoms: C_9  and  C_11
REMARK    5  A    between atoms: C_9  and  N_22
REMARK    6  A    between atoms: C_11  and  O_12
REMARK    7  A    between atoms: O_12  and  C_13
REMARK                            x       y       z     vdW  Elec       q    Type
REMARK                         _______ _______ _______ _____ _____    ______ ____
ROOT
ATOM      1  C   UNL     1       1.145   5.607   1.093  0.00  0.00    -0.002 C 
ENDROOT
BRANCH   1   7
ATOM      2  C   UNL     1      -0.211   6.380   3.055  0.00  0.00    +0.122 A 
ATOM      3  C   UNL     1      -0.318   7.001   4.291  0.00  0.00    +0.046 A 
ATOM      4  C   UNL     1       0.807   7.521   4.900  0.00  0.00    +0.004 A 
ATOM      5  C   UNL     1       2.039   7.422   4.280  0.00  0.00    +0.000 A 
ATOM      6  C   UNL     1       2.149   6.799   3.051  0.00  0.00    +0.005 A 
ATOM      7  C   UNL     1       1.025   6.282   2.435  0.00  0.00    -0.017 A 
BRANCH   2   9
ATOM      8  C   UNL     1      -2.557   6.004   3.150  0.00  0.00    +0.277 C 
ATOM      9  O   UNL     1      -1.317   5.867   2.453  0.00  0.00    -0.495 OA
ENDBRANCH   2   9
ENDBRANCH   1   7
BRANCH   1  10
ATOM     10  N   UNL     1       2.389   6.033   0.439  0.00  0.00    +0.385 N 
ATOM     11  H   UNL     1       2.476   5.540  -0.540  0.00  0.00    -0.089 HD
ATOM     12  H   UNL     1       3.248   5.755   1.067  0.00  0.00    -0.089 HD
ATOM     13  H   UNL     1       2.375   7.125   0.300  0.00  0.00    -0.089 HD
ENDBRANCH   1  10
BRANCH   1  14
ATOM     14  C   UNL     1       1.165   4.089   1.286  0.00  0.00    +0.217 C 
BRANCH  14  15
ATOM     15  O   UNL     1       1.160   3.447   0.009  0.00  0.00    -0.491 OA
BRANCH  15  16
ATOM     16  C   UNL     1       1.176   2.087   0.002  0.00  0.00    +0.148 A 
ATOM     17  C   UNL     1      -0.017   1.378   0.010  0.00  0.00    +0.062 A 
ATOM     18  C   UNL     1       0.002  -0.004   0.002  0.00  0.00    +0.034 A 
ATOM     19  C   UNL     1       1.209  -0.680  -0.014  0.00  0.00    +0.020 A 
ATOM     20  C   UNL     1       2.399   0.024  -0.021  0.00  0.00    +0.034 A 
ATOM     21  C   UNL     1       2.385   1.407  -0.013  0.00  0.00    +0.062 A 
ATOM     22 BR   UNL     1       4.013   2.369  -0.022  0.00  0.00    -0.046 Br
ATOM     23 BR   UNL     1       1.231  -2.571  -0.025  0.00  0.00    -0.050 Br
ATOM     24 BR   UNL     1      -1.667   2.302   0.022  0.00  0.00    -0.046 Br
ENDBRANCH  15  16
ENDBRANCH  14  15
ENDBRANCH   1  14
TORSDOF 6
