REMARK  Name = ZINC08279675
REMARK  3 active torsions:
REMARK  status: ('A' for Active; 'I' for Inactive)
REMARK    1  A    between atoms: C_8  and  C_25
REMARK    2  A    between atoms: N_9  and  C_10
REMARK    3  A    between atoms: C_10  and  C_11
REMARK                            x       y       z     vdW  Elec       q    Type
REMARK                         _______ _______ _______ _____ _____    ______ ____
ROOT
ATOM      1  C   UNL     1      -8.162   0.406  -5.794  0.00  0.00    +0.002 A 
ATOM      2  C   UNL     1      -7.995   1.438  -4.882  0.00  0.00    +0.002 A 
ATOM      3  C   UNL     1      -7.482   1.186  -3.627  0.00  0.00    +0.028 A 
ATOM      4  C   UNL     1      -7.135  -0.110  -3.273  0.00  0.00    +0.070 A 
ATOM      5  C   UNL     1      -7.298  -1.155  -4.199  0.00  0.00    +0.090 A 
ATOM      6  C   UNL     1      -7.821  -0.876  -5.466  0.00  0.00    +0.030 A 
ATOM      7  N   UNL     1      -6.878  -2.295  -3.596  0.00  0.00    -0.226 NA
ATOM      8  C   UNL     1      -6.469  -2.024  -2.380  0.00  0.00    +0.161 A 
ATOM      9  N   UNL     1      -6.604  -0.684  -2.133  0.00  0.00    -0.313 N 
ENDROOT
BRANCH   8  10
ATOM     10  C   UNL     1      -5.941  -3.015  -1.421  0.00  0.00    +0.113 A 
ATOM     11  C   UNL     1      -5.841  -4.343  -1.756  0.00  0.00    +0.078 A 
ATOM     12  S   UNL     1      -5.160  -5.012  -0.245  0.00  0.00    -0.083 S 
ATOM     13  C   UNL     1      -5.077  -3.526   0.648  0.00  0.00    +0.156 A 
ATOM     14  N   UNL     1      -5.542  -2.652  -0.210  0.00  0.00    -0.244 NA
ENDBRANCH   8  10
BRANCH   9  15
ATOM     15  C   UNL     1      -6.258   0.011  -0.891  0.00  0.00    +0.219 C 
BRANCH  15  16
ATOM     16  C   UNL     1      -4.825   0.473  -0.957  0.00  0.00    +0.236 C 
ATOM     17  O   UNL     1      -4.159   0.244  -1.944  0.00  0.00    -0.274 OA
ATOM     18  N   UNL     1      -4.283   1.140   0.082  0.00  0.00    -0.297 N 
ATOM     19  C   UNL     1      -5.073   1.429   1.289  0.00  0.00    +0.108 C 
ATOM     20  C   UNL     1      -4.315   0.918   2.518  0.00  0.00    +0.019 C 
ATOM     21  C   UNL     1      -2.899   1.503   2.530  0.00  0.00    +0.007 C 
ATOM     22  C   UNL     1      -2.160   1.055   1.270  0.00  0.00    +0.010 C 
ATOM     23  C   UNL     1      -2.891   1.599   0.039  0.00  0.00    +0.079 C 
ATOM     24  C   UNL     1      -2.195   1.087  -1.222  0.00  0.00    +0.023 C 
ATOM     25  C   UNL     1      -0.749   1.591  -1.233  0.00  0.00    +0.002 C 
ATOM     26  C   UNL     1      -0.013   1.086   0.008  0.00  0.00    +0.000 C 
ATOM     27  C   UNL     1      -0.726   1.578   1.270  0.00  0.00    +0.005 C 
ENDBRANCH  15  16
ENDBRANCH   9  15
TORSDOF 3
