REMARK  Name = ZINC09542629
REMARK  11 active torsions:
REMARK  status: ('A' for Active; 'I' for Inactive)
REMARK    1  A    between atoms: C_1  and  C_2
REMARK    2  A    between atoms: C_2  and  C_3
REMARK    3  A    between atoms: C_6  and  C_9
REMARK    4  A    between atoms: C_11  and  C_26
REMARK    5  A    between atoms: C_13  and  C_16
REMARK    6  A    between atoms: C_20  and  O_23
REMARK    7  A    between atoms: C_21  and  O_22
REMARK    8  A    between atoms: O_23  and  C_24
REMARK    9  A    between atoms: C_24  and  C_25
REMARK   10  A    between atoms: C_30  and  O_32
REMARK   11  A    between atoms: O_32  and  C_33
REMARK                            x       y       z     vdW  Elec       q    Type
REMARK                         _______ _______ _______ _____ _____    ______ ____
ROOT
ATOM      1  C   UNL     1       1.108   6.314  -1.848  0.00  0.00    +0.040 C 
ATOM      2  N   UNL     1       1.108   5.854  -0.655  0.00  0.00    -0.299 NA
ATOM      3  C   UNL     1      -0.076   5.351   0.030  0.00  0.00    +0.081 C 
ATOM      4  C   UNL     1      -1.231   5.528  -2.080  0.00  0.00    -0.028 C 
ATOM      5  C   UNL     1      -0.132   6.401  -2.693  0.00  0.00    +0.044 C 
ATOM      6  N   UNL     1      -1.301   5.820  -0.635  0.00  0.00    +0.401 N 
ATOM      7  H   UNL     1      -1.397   6.832  -0.496  0.00  0.00    -0.081 HD
ATOM      8  H   UNL     1      -2.114   5.340  -0.229  0.00  0.00    -0.081 HD
ENDROOT
BRANCH   1  12
ATOM      9  C   UNL     1       4.780   7.659  -3.500  0.00  0.00    -0.048 A 
ATOM     10  C   UNL     1       4.748   7.156  -2.211  0.00  0.00    +0.004 A 
ATOM     11  C   UNL     1       3.558   6.717  -1.668  0.00  0.00    +0.010 A 
ATOM     12  C   UNL     1       2.385   6.782  -2.422  0.00  0.00    -0.004 A 
ATOM     13  C   UNL     1       2.425   7.285  -3.724  0.00  0.00    +0.010 A 
ATOM     14  C   UNL     1       3.621   7.726  -4.252  0.00  0.00    +0.004 A 
BRANCH   9  16
ATOM     15  C   UNL     1       6.781   6.974  -4.795  0.00  0.00    +0.009 C 
ATOM     16  C   UNL     1       6.084   8.137  -4.086  0.00  0.00    +0.032 C 
ENDBRANCH   9  16
ENDBRANCH   1  12
BRANCH   4  17
ATOM     17  C   UNL     1      -2.555   5.848  -2.724  0.00  0.00    -0.016 A 
ATOM     18  C   UNL     1      -3.402   6.773  -2.141  0.00  0.00    +0.006 A 
ATOM     19  C   UNL     1      -4.615   7.073  -2.732  0.00  0.00    +0.004 A 
ATOM     20  C   UNL     1      -4.992   6.441  -3.902  0.00  0.00    +0.049 A 
ATOM     21  C   UNL     1      -4.151   5.509  -4.489  0.00  0.00    +0.162 A 
ATOM     22  C   UNL     1      -2.927   5.211  -3.897  0.00  0.00    +0.160 A 
BRANCH  22  23
ATOM     23  O   UNL     1      -2.098   4.297  -4.468  0.00  0.00    -0.503 OA
ATOM     24  H   UNL     1      -2.243   3.391  -4.163  0.00  0.00    +0.292 HD
ENDBRANCH  22  23
BRANCH  21  25
ATOM     25  O   UNL     1      -4.521   4.887  -5.640  0.00  0.00    -0.489 OA
BRANCH  25  26
ATOM     26  C   UNL     1      -5.790   5.242  -6.191  0.00  0.00    +0.226 C 
ATOM     27  C   UNL     1      -6.030   4.446  -7.475  0.00  0.00    +0.048 C 
ENDBRANCH  25  26
ENDBRANCH  21  25
ENDBRANCH   4  17
BRANCH   3  28
ATOM     28  C   UNL     1      -0.051   3.844   0.022  0.00  0.00    -0.037 A 
ATOM     29  C   UNL     1      -1.237   3.133   0.029  0.00  0.00    +0.004 A 
ATOM     30  C   UNL     1      -1.218   1.751   0.017  0.00  0.00    +0.004 A 
ATOM     31  C   UNL     1      -0.013   1.076   0.008  0.00  0.00    +0.045 A 
ATOM     32  C   UNL     1       1.179   1.786   0.000  0.00  0.00    +0.120 A 
ATOM     33  C   UNL     1       1.157   3.174   0.008  0.00  0.00    +0.049 A 
BRANCH  32  34
ATOM     34  O   UNL     1       2.366   1.125  -0.014  0.00  0.00    -0.495 OA
ATOM     35  C   UNL     1       2.312  -0.303  -0.020  0.00  0.00    +0.277 C 
ENDBRANCH  32  34
ENDBRANCH   3  28
TORSDOF 8
