REMARK  Name = ZINC39372024
REMARK  8 active torsions:
REMARK  status: ('A' for Active; 'I' for Inactive)
REMARK    1  A    between atoms: C_1  and  C_2
REMARK    2  A    between atoms: C_6  and  C_8
REMARK    3  A    between atoms: C_13  and  C_14
REMARK    4  A    between atoms: N_19  and  C_21
REMARK    5  A    between atoms: C_21  and  C_22
REMARK    6  A    between atoms: C_26  and  O_29
REMARK    7  A    between atoms: C_27  and  O_28
REMARK    8  A    between atoms: O_29  and  C_30
REMARK                            x       y       z     vdW  Elec       q    Type
REMARK                         _______ _______ _______ _____ _____    ______ ____
ROOT
ATOM      1  C   UNL     1      -2.592  -3.406   2.563  0.00  0.00    +0.020 C 
ATOM      2  C   UNL     1      -2.919  -2.593   3.818  0.00  0.00    +0.006 C 
ATOM      3  C   UNL     1      -4.419  -2.281   3.837  0.00  0.00    -0.018 C 
ATOM      4  C   UNL     1      -5.207  -3.592   3.773  0.00  0.00    -0.078 C 
ATOM      5  N   UNL     1      -4.870  -4.310   2.538  0.00  0.00    +0.383 N 
ATOM      6  C   UNL     1      -3.448  -4.675   2.546  0.00  0.00    -0.069 C 
ATOM      7  H   UNL     1      -5.059  -3.718   1.744  0.00  0.00    -0.081 HD
ENDROOT
BRANCH   1  12
ATOM      8  C   UNL     1       0.054  -2.845   2.489  0.00  0.00    +0.108 C 
ATOM      9  C   UNL     1       1.247  -3.778   2.547  0.00  0.00    +0.121 C 
ATOM     10  N   UNL     1       0.759  -4.971   2.643  0.00  0.00    -0.161 NA
ATOM     11  N   UNL     1      -0.632  -4.976   2.657  0.00  0.00    -0.158 NA
ATOM     12  C   UNL     1      -1.133  -3.784   2.574  0.00  0.00    +0.055 C 
BRANCH   8  18
ATOM     13  C   UNL     1      -0.018   1.503   0.010  0.00  0.00    +0.044 C 
ATOM     14  C   UNL     1       0.002  -0.004   0.002  0.00  0.00    -0.050 A 
ATOM     15  C   UNL     1       0.006  -0.689  -1.199  0.00  0.00    +0.003 A 
ATOM     16  C   UNL     1       0.025  -2.071  -1.207  0.00  0.00    +0.001 A 
ATOM     17  C   UNL     1       0.040  -2.768  -0.013  0.00  0.00    +0.004 A 
ATOM     18  C   UNL     1       0.037  -2.084   1.188  0.00  0.00    -0.033 A 
ATOM     19  C   UNL     1       0.023  -0.702   1.195  0.00  0.00    +0.008 A 
ENDBRANCH   8  18
ENDBRANCH   1  12
BRANCH   5  20
ATOM     20  C   UNL     1      -5.686  -5.528   2.444  0.00  0.00    -0.039 C 
BRANCH  20  21
ATOM     21  C   UNL     1      -7.138  -5.151   2.303  0.00  0.00    -0.019 A 
ATOM     22  C   UNL     1      -7.971  -5.185   3.405  0.00  0.00    +0.005 A 
ATOM     23  C   UNL     1      -9.304  -4.840   3.279  0.00  0.00    +0.004 A 
ATOM     24  C   UNL     1      -9.809  -4.458   2.050  0.00  0.00    +0.049 A 
ATOM     25  C   UNL     1      -8.979  -4.421   0.941  0.00  0.00    +0.161 A 
ATOM     26  C   UNL     1      -7.636  -4.763   1.070  0.00  0.00    +0.160 A 
BRANCH  26  27
ATOM     27  O   UNL     1      -6.815  -4.723  -0.015  0.00  0.00    -0.503 OA
ATOM     28  H   UNL     1      -6.779  -5.552  -0.511  0.00  0.00    +0.292 HD
ENDBRANCH  26  27
BRANCH  25  29
ATOM     29  O   UNL     1      -9.474  -4.045  -0.269  0.00  0.00    -0.491 OA
ATOM     30  C   UNL     1     -10.860  -3.702  -0.324  0.00  0.00    +0.277 C 
ENDBRANCH  25  29
ENDBRANCH  20  21
ENDBRANCH   5  20
TORSDOF 6
