REMARK  Name = ZINC08719726
REMARK  6 active torsions:
REMARK  status: ('A' for Active; 'I' for Inactive)
REMARK    1  A    between atoms: C_1  and  C_2
REMARK    2  A    between atoms: C_5  and  N_8
REMARK    3  A    between atoms: C_17  and  S_18
REMARK    4  A    between atoms: S_18  and  C_19
REMARK    5  A    between atoms: C_19  and  C_20
REMARK    6  A    between atoms: N_24  and  C_25
REMARK                            x       y       z     vdW  Elec       q    Type
REMARK                         _______ _______ _______ _____ _____    ______ ____
ROOT
ATOM      1  N   UNL     1       0.002  -0.004   0.002  0.00  0.00    -0.255 N 
ATOM      2  C   UNL     1      -1.155  -0.681   0.117  0.00  0.00    +0.268 A 
ATOM      3  O   UNL     1      -2.212  -0.083   0.228  0.00  0.00    -0.267 OA
ATOM      4  C   UNL     1      -1.129  -2.111   0.103  0.00  0.00    +0.076 A 
ATOM      5  C   UNL     1      -2.256  -3.040   0.207  0.00  0.00    -0.023 A 
ATOM      6  C   UNL     1      -1.970  -4.357   0.174  0.00  0.00    -0.004 A 
ATOM      7  S   UNL     1      -0.207  -4.440   0.004  0.00  0.00    -0.073 S 
ATOM      8  C   UNL     1       0.141  -2.700  -0.022  0.00  0.00    +0.117 A 
ATOM      9  N   UNL     1       1.248  -1.975  -0.127  0.00  0.00    -0.215 NA
ATOM     10  C   UNL     1       1.196  -0.658  -0.117  0.00  0.00    +0.178 A 
ATOM     11  C   UNL     1      -2.936  -5.499   0.262  0.00  0.00    +0.043 C 
ATOM     12  C   UNL     1      -4.280  -4.958   0.769  0.00  0.00    +0.005 C 
ATOM     13  C   UNL     1      -4.639  -3.703  -0.032  0.00  0.00    +0.005 C 
ATOM     14  C   UNL     1      -3.698  -2.559   0.348  0.00  0.00    +0.037 C 
ENDROOT
BRANCH   1  19
ATOM     15  C   UNL     1      -0.074   5.670   0.033  0.00  0.00    +0.044 C 
ATOM     16  C   UNL     1      -0.054   4.163   0.025  0.00  0.00    -0.050 A 
ATOM     17  C   UNL     1       0.076   3.469   1.213  0.00  0.00    +0.005 A 
ATOM     18  C   UNL     1       0.095   2.088   1.209  0.00  0.00    +0.026 A 
ATOM     19  C   UNL     1      -0.017   1.397   0.010  0.00  0.00    +0.052 A 
ATOM     20  C   UNL     1      -0.142   2.098  -1.183  0.00  0.00    +0.026 A 
ATOM     21  C   UNL     1      -0.166   3.478  -1.171  0.00  0.00    +0.005 A 
ENDBRANCH   1  19
BRANCH  10  22
ATOM     22  S   UNL     1       2.687   0.272  -0.258  0.00  0.00    -0.079 S 
BRANCH  22  23
ATOM     23  C   UNL     1       3.888  -1.077  -0.380  0.00  0.00    +0.151 C 
BRANCH  23  24
ATOM     24  C   UNL     1       5.275  -0.503  -0.512  0.00  0.00    +0.120 A 
ATOM     25  N   UNL     1       5.875  -0.214  -1.635  0.00  0.00    -0.240 NA
ATOM     26  C   UNL     1       7.094   0.278  -1.371  0.00  0.00    +0.130 A 
ATOM     27  C   UNL     1       7.260   0.288  -0.034  0.00  0.00    +0.106 A 
ATOM     28  N   UNL     1       6.106  -0.208   0.511  0.00  0.00    -0.337 N 
ATOM     29  C   UNL     1       5.825  -0.385   1.938  0.00  0.00    +0.150 C 
ENDBRANCH  23  24
ENDBRANCH  22  23
ENDBRANCH  10  22
TORSDOF 4
