REMARK  Name = ZINC64002734
REMARK  8 active torsions:
REMARK  status: ('A' for Active; 'I' for Inactive)
REMARK    1  A    between atoms: C_1  and  C_2
REMARK    2  A    between atoms: C_5  and  C_8
REMARK    3  A    between atoms: C_11  and  C_14
REMARK    4  A    between atoms: C_14  and  C_15
REMARK    5  A    between atoms: C_15  and  N_16
REMARK    6  A    between atoms: C_17  and  C_19
REMARK    7  A    between atoms: C_19  and  C_20
REMARK    8  A    between atoms: C_20  and  C_21
REMARK                            x       y       z     vdW  Elec       q    Type
REMARK                         _______ _______ _______ _____ _____    ______ ____
ROOT
ATOM      1  N   UNL     1      -9.084  -3.425   2.465  0.00  0.00    -0.315 N 
ATOM      2  C   UNL     1      -9.975  -2.879   3.316  0.00  0.00    +0.213 C 
ATOM      3  O   UNL     1      -9.657  -1.927   3.997  0.00  0.00    -0.276 OA
ATOM      4  H   UNL     1      -9.338  -4.187   1.920  0.00  0.00    +0.149 HD
ENDROOT
BRANCH   1   5
ATOM      5  C   UNL     1      -7.733  -2.869   2.362  0.00  0.00    +0.109 C 
BRANCH   5   6
ATOM      6  C   UNL     1      -6.930  -3.667   1.332  0.00  0.00    +0.054 C 
BRANCH   6  10
ATOM      7  C   UNL     1      -2.986  -2.043   1.031  0.00  0.00    -0.003 A 
ATOM      8  C   UNL     1      -3.258  -3.057   1.951  0.00  0.00    +0.010 A 
ATOM      9  C   UNL     1      -4.533  -3.576   2.043  0.00  0.00    +0.004 A 
ATOM     10  C   UNL     1      -5.540  -3.095   1.226  0.00  0.00    -0.046 A 
ATOM     11  C   UNL     1      -5.277  -2.090   0.311  0.00  0.00    +0.004 A 
ATOM     12  C   UNL     1      -4.008  -1.558   0.213  0.00  0.00    +0.010 A 
BRANCH   7  16
ATOM     13  C   UNL     1      -0.019   1.526   0.010  0.00  0.00    +0.044 C 
ATOM     14  C   UNL     1       0.002  -0.004   0.002  0.00  0.00    +0.160 C 
ATOM     15  N   UNL     1      -1.364  -0.556   0.098  0.00  0.00    -0.273 NA
ATOM     16  C   UNL     1      -1.624  -1.483   0.927  0.00  0.00    +0.054 C 
ATOM     17  C   UNL     1      -0.499  -2.001   1.811  0.00  0.00    +0.126 C 
ATOM     18  S   UNL     1       0.755  -0.669   1.552  0.00  0.00    -0.128 S 
ENDBRANCH   7  16
ENDBRANCH   6  10
ENDBRANCH   5   6
ENDBRANCH   1   5
BRANCH   2  19
ATOM     19  C   UNL     1     -11.365  -3.451   3.422  0.00  0.00    +0.100 C 
BRANCH  19  20
ATOM     20  C   UNL     1     -12.168  -2.654   4.452  0.00  0.00    +0.042 C 
BRANCH  20  21
ATOM     21  C   UNL     1     -13.558  -3.226   4.558  0.00  0.00    -0.041 C 
ATOM     22  C   UNL     1     -13.997  -4.133   5.460  0.00  0.00    -0.001 A 
ATOM     23  C   UNL     1     -13.338  -4.832   6.570  0.00  0.00    +0.010 A 
ATOM     24  C   UNL     1     -14.054  -5.704   7.314  0.00  0.00    +0.001 A 
ATOM     25  C   UNL     1     -15.408  -5.957   7.053  0.00  0.00    +0.002 A 
ATOM     26  C   UNL     1     -16.083  -5.353   6.052  0.00  0.00    +0.026 A 
ATOM     27  C   UNL     1     -15.428  -4.417   5.206  0.00  0.00    +0.043 A 
ATOM     28  N   UNL     1     -15.856  -3.713   4.186  0.00  0.00    -0.380 N 
ATOM     29  C   UNL     1     -14.745  -2.897   3.681  0.00  0.00    +0.144 C 
ATOM     30  H   UNL     1     -16.757  -3.727   3.827  0.00  0.00    +0.160 HD
ENDBRANCH  20  21
ENDBRANCH  19  20
ENDBRANCH   2  19
TORSDOF 7
