REMARK  Name = ZINC09082268
REMARK  10 active torsions:
REMARK  status: ('A' for Active; 'I' for Inactive)
REMARK    1  A    between atoms: C_1  and  C_2
REMARK    2  A    between atoms: C_5  and  O_33
REMARK    3  A    between atoms: C_6  and  S_8
REMARK    4  A    between atoms: S_8  and  N_11
REMARK    5  A    between atoms: N_11  and  C_12
REMARK    6  A    between atoms: C_12  and  C_13
REMARK    7  A    between atoms: C_13  and  C_15
REMARK    8  A    between atoms: C_13  and  S_20
REMARK    9  A    between atoms: S_20  and  C_23
REMARK   10  A    between atoms: O_33  and  C_34
REMARK                            x       y       z     vdW  Elec       q    Type
REMARK                         _______ _______ _______ _____ _____    ______ ____
ROOT
ATOM      1  C   UNL     1       4.314  -1.060  -1.812  0.00  0.00    +0.217 C 
ENDROOT
BRANCH   1   2
ATOM      2  C   UNL     1       4.425   0.290  -2.473  0.00  0.00    +0.131 A 
ATOM      3  C   UNL     1       3.671   0.730  -3.496  0.00  0.00    +0.046 A 
ATOM      4  C   UNL     1       4.110   2.040  -3.795  0.00  0.00    +0.041 A 
ATOM      5  C   UNL     1       5.111   2.320  -2.942  0.00  0.00    +0.195 A 
ATOM      6  O   UNL     1       5.298   1.256  -2.143  0.00  0.00    -0.466 OA
ENDBRANCH   1   2
BRANCH   1   7
ATOM      7  S   UNL     1       3.931  -0.843  -0.053  0.00  0.00    +0.008 S 
ATOM      8  O   UNL     1       4.862   0.050   0.544  0.00  0.00    -0.169 OA
ATOM      9  O   UNL     1       3.648  -2.100   0.545  0.00  0.00    -0.169 OA
BRANCH   7  10
ATOM     10  C   UNL     1       2.397   0.024  -0.027  0.00  0.00    +0.093 A 
ATOM     11  C   UNL     1       1.207  -0.680  -0.016  0.00  0.00    +0.031 A 
ATOM     12  C   UNL     1       0.002  -0.004   0.002  0.00  0.00    +0.051 A 
ATOM     13  C   UNL     1      -0.017   1.383   0.010  0.00  0.00    +0.162 A 
ATOM     14  C   UNL     1       1.179   2.090   0.002  0.00  0.00    +0.164 A 
ATOM     15  C   UNL     1       2.385   1.406  -0.018  0.00  0.00    +0.076 A 
ATOM     16  O   UNL     1       1.184   3.451   0.018  0.00  0.00    -0.485 OA
ATOM     17  C   UNL     1      -0.040   4.103  -0.340  0.00  0.00    +0.270 C 
ATOM     18  C   UNL     1      -1.189   3.413   0.408  0.00  0.00    +0.270 C 
ATOM     19  O   UNL     1      -1.212   2.035   0.019  0.00  0.00    -0.485 OA
ENDBRANCH   7  10
ENDBRANCH   1   7
BRANCH   1  20
ATOM     20  C   UNL     1       5.640  -1.809  -1.957  0.00  0.00    +0.140 C 
BRANCH  20  21
ATOM     21  N   UNL     1       5.532  -3.122  -1.315  0.00  0.00    -0.188 NA
ATOM     22  H   UNL     1       4.799  -3.306  -0.708  0.00  0.00    +0.148 HD
BRANCH  21  23
ATOM     23  S   UNL     1       6.663  -4.291  -1.626  0.00  0.00    +0.062 S 
ATOM     24  O   UNL     1       6.303  -5.422  -0.845  0.00  0.00    -0.153 OA
ATOM     25  O   UNL     1       6.805  -4.354  -3.038  0.00  0.00    -0.153 OA
BRANCH  23  31
ATOM     26  C   UNL     1      10.681  -4.642   1.697  0.00  0.00    +0.044 C 
ATOM     27  C   UNL     1      10.018  -3.917   0.555  0.00  0.00    -0.048 A 
ATOM     28  C   UNL     1      10.618  -2.799   0.005  0.00  0.00    +0.007 A 
ATOM     29  C   UNL     1      10.012  -2.133  -1.042  0.00  0.00    +0.048 A 
ATOM     30  C   UNL     1       8.803  -2.591  -1.547  0.00  0.00    +0.146 A 
ATOM     31  C   UNL     1       8.201  -3.710  -0.991  0.00  0.00    +0.147 A 
ATOM     32  C   UNL     1       8.811  -4.372   0.057  0.00  0.00    +0.035 A 
BRANCH  30  33
ATOM     33  O   UNL     1       8.208  -1.941  -2.582  0.00  0.00    -0.493 OA
ATOM     34  C   UNL     1       8.885  -0.796  -3.105  0.00  0.00    +0.277 C 
ENDBRANCH  30  33
ENDBRANCH  23  31
ENDBRANCH  21  23
ENDBRANCH  20  21
ENDBRANCH   1  20
TORSDOF 8
