REMARK  Name = ZINC08881388
REMARK  12 active torsions:
REMARK  status: ('A' for Active; 'I' for Inactive)
REMARK    1  A    between atoms: C_1  and  C_2
REMARK    2  A    between atoms: C_5  and  C_37
REMARK    3  A    between atoms: N_8  and  S_10
REMARK    4  A    between atoms: S_10  and  C_13
REMARK    5  A    between atoms: C_16  and  C_19
REMARK    6  A    between atoms: N_21  and  C_22
REMARK    7  A    between atoms: C_23  and  C_33
REMARK    8  A    between atoms: C_30  and  C_31
REMARK    9  A    between atoms: C_30  and  C_32
REMARK   10  A    between atoms: C_30  and  N_71
REMARK   11  A    between atoms: C_33  and  O_35
REMARK   12  A    between atoms: O_35  and  C_36
REMARK                            x       y       z     vdW  Elec       q    Type
REMARK                         _______ _______ _______ _____ _____    ______ ____
ROOT
ATOM      1  C   UNL     1      -7.644   1.502   0.083  0.00  0.00    +0.249 C 
ATOM      2  O   UNL     1      -8.149   1.173   1.139  0.00  0.00    -0.270 OA
ATOM      3  N   UNL     1      -8.227   1.151  -1.081  0.00  0.00    -0.275 N 
ATOM      4  H   UNL     1      -7.824   1.413  -1.923  0.00  0.00    +0.156 HD
ENDROOT
BRANCH   3   5
ATOM      5  C   UNL     1      -9.401   0.416  -1.074  0.00  0.00    +0.086 A 
ATOM      6  C   UNL     1     -10.146  -0.031  -2.158  0.00  0.00    +0.091 A 
ATOM      7  C   UNL     1     -11.348  -0.793  -1.874  0.00  0.00    -0.025 A 
ATOM      8  C   UNL     1     -11.619  -0.977  -0.562  0.00  0.00    -0.021 A 
ATOM      9  S   UNL     1     -10.301  -0.162   0.290  0.00  0.00    -0.079 S 
ATOM     10  C   UNL     1     -12.790  -1.714   0.008  0.00  0.00    -0.035 C 
ATOM     11  C   UNL     1     -13.153  -2.438  -2.275  0.00  0.00    -0.073 C 
ATOM     12  C   UNL     1     -12.280  -1.366  -2.935  0.00  0.00    +0.018 C 
ATOM     13  N   UNL     1     -13.795  -1.873  -1.071  0.00  0.00    +0.384 N 
ATOM     14  H   UNL     1     -14.187  -0.952  -1.301  0.00  0.00    -0.081 HD
BRANCH  13  15
ATOM     15  C   UNL     1     -14.888  -2.760  -0.617  0.00  0.00    -0.074 C 
ATOM     16  C   UNL     1     -14.339  -4.138  -0.246  0.00  0.00    -0.014 C 
ATOM     17  C   UNL     1     -15.562  -2.133   0.605  0.00  0.00    -0.014 C 
ENDBRANCH  13  15
BRANCH   6  18
ATOM     18  C   UNL     1      -9.733   0.253  -3.534  0.00  0.00    +0.342 C 
ATOM     19  O   UNL     1      -9.003  -0.522  -4.122  0.00  0.00    -0.245 OA
BRANCH  18  20
ATOM     20  O   UNL     1     -10.162   1.374  -4.150  0.00  0.00    -0.464 OA
ATOM     21  C   UNL     1      -9.712   1.590  -5.513  0.00  0.00    +0.280 C 
ENDBRANCH  18  20
ENDBRANCH   6  18
ENDBRANCH   3   5
BRANCH   1  25
ATOM     22  C   UNL     1      -4.043   3.754   0.061  0.00  0.00    +0.106 A 
ATOM     23  C   UNL     1      -4.642   3.400  -1.135  0.00  0.00    +0.029 A 
ATOM     24  C   UNL     1      -5.809   2.664  -1.135  0.00  0.00    +0.015 A 
ATOM     25  C   UNL     1      -6.391   2.286   0.075  0.00  0.00    +0.037 A 
ATOM     26  C   UNL     1      -5.785   2.651   1.279  0.00  0.00    +0.015 A 
ATOM     27  C   UNL     1      -4.616   3.382   1.264  0.00  0.00    +0.029 A 
BRANCH  22  28
ATOM     28  S   UNL     1      -2.550   4.688   0.052  0.00  0.00    +0.061 S 
ATOM     29  O   UNL     1      -2.485   5.364   1.300  0.00  0.00    -0.153 OA
ATOM     30  O   UNL     1      -2.509   5.377  -1.190  0.00  0.00    -0.153 OA
BRANCH  28  36
ATOM     31  C   UNL     1      -2.198   1.093  -1.204  0.00  0.00    +0.009 C 
ATOM     32  C   UNL     1      -0.752   1.593  -1.232  0.00  0.00    +0.002 C 
ATOM     33  C   UNL     1      -0.013   1.086   0.008  0.00  0.00    +0.009 C 
ATOM     34  C   UNL     1      -0.729   1.579   1.268  0.00  0.00    +0.002 C 
ATOM     35  C   UNL     1      -0.717   3.111   1.290  0.00  0.00    +0.112 C 
ATOM     36  N   UNL     1      -1.296   3.606   0.034  0.00  0.00    -0.176 NA
ATOM     37  C   UNL     1      -0.741   3.124  -1.238  0.00  0.00    +0.112 C 
ATOM     38  C   UNL     1      -0.008   1.045   2.507  0.00  0.00    +0.009 C 
ENDBRANCH  28  36
ENDBRANCH  22  28
ENDBRANCH   1  25
TORSDOF 7
