REMARK  Name = ZINC36727696
REMARK  12 active torsions:
REMARK  status: ('A' for Active; 'I' for Inactive)
REMARK    1  A    between atoms: C_1  and  C_2
REMARK    2  A    between atoms: C_5  and  S_8
REMARK    3  A    between atoms: S_8  and  N_11
REMARK    4  A    between atoms: N_11  and  C_12
REMARK    5  A    between atoms: C_12  and  C_14
REMARK    6  A    between atoms: C_12  and  C_18
REMARK    7  A    between atoms: C_14  and  C_15
REMARK    8  A    between atoms: C_15  and  C_16
REMARK    9  A    between atoms: C_15  and  C_17
REMARK   10  A    between atoms: N_20  and  C_21
REMARK   11  A    between atoms: C_21  and  C_22
REMARK   12  A    between atoms: C_25  and  C_28
REMARK                            x       y       z     vdW  Elec       q    Type
REMARK                         _______ _______ _______ _____ _____    ______ ____
ROOT
ATOM      1  C   UNL     1       2.592  -4.634   1.018  0.00  0.00    +0.162 C 
ENDROOT
BRANCH   1   2
ATOM      2  C   UNL     1       3.711  -5.636   1.134  0.00  0.00    +0.232 C 
ATOM      3  O   UNL     1       3.741  -6.600   0.398  0.00  0.00    -0.274 OA
ATOM      4  N   UNL     1       4.679  -5.463   2.056  0.00  0.00    -0.310 N 
ATOM      5  H   UNL     1       4.655  -4.692   2.644  0.00  0.00    +0.149 HD
BRANCH   4   6
ATOM      6  C   UNL     1       5.767  -6.437   2.169  0.00  0.00    +0.139 C 
BRANCH   6   7
ATOM      7  C   UNL     1       6.709  -6.014   3.266  0.00  0.00    -0.030 A 
ATOM      8  C   UNL     1       7.780  -5.189   2.974  0.00  0.00    +0.006 A 
ATOM      9  C   UNL     1       8.646  -4.798   3.974  0.00  0.00    +0.013 A 
ATOM     10  C   UNL     1       8.440  -5.236   5.283  0.00  0.00    +0.037 A 
ATOM     11  C   UNL     1       7.357  -6.068   5.571  0.00  0.00    +0.013 A 
ATOM     12  C   UNL     1       6.495  -6.447   4.563  0.00  0.00    +0.006 A 
BRANCH  10  13
ATOM     13  C   UNL     1       9.364  -4.821   6.359  0.00  0.00    +0.242 C 
ATOM     14  O   UNL     1      10.307  -4.097   6.106  0.00  0.00    -0.270 OA
ATOM     15  N   UNL     1       9.162  -5.246   7.622  0.00  0.00    -0.325 N 
ATOM     16  H   UNL     1       8.410  -5.824   7.825  0.00  0.00    +0.145 HD
ATOM     17  H   UNL     1       9.768  -4.973   8.329  0.00  0.00    +0.145 HD
ENDBRANCH  10  13
ENDBRANCH   6   7
ENDBRANCH   4   6
ENDBRANCH   1   2
BRANCH   1  18
ATOM     18  N   UNL     1       1.677  -5.045  -0.049  0.00  0.00    -0.178 NA
ATOM     19  H   UNL     1       1.859  -4.795  -0.968  0.00  0.00    +0.149 HD
BRANCH  18  20
ATOM     20  S   UNL     1       0.330  -5.938   0.314  0.00  0.00    +0.059 S 
ATOM     21  O   UNL     1       0.765  -7.012   1.137  0.00  0.00    -0.153 OA
ATOM     22  O   UNL     1      -0.361  -6.147  -0.910  0.00  0.00    -0.153 OA
BRANCH  20  27
ATOM     23  C   UNL     1      -3.237  -2.480   3.737  0.00  0.00    +0.044 C 
ATOM     24  C   UNL     1      -2.346  -3.343   2.882  0.00  0.00    -0.050 A 
ATOM     25  C   UNL     1      -2.405  -3.246   1.505  0.00  0.00    +0.005 A 
ATOM     26  C   UNL     1      -1.587  -4.038   0.721  0.00  0.00    +0.029 A 
ATOM     27  C   UNL     1      -0.711  -4.927   1.314  0.00  0.00    +0.105 A 
ATOM     28  C   UNL     1      -0.652  -5.024   2.692  0.00  0.00    +0.029 A 
ATOM     29  C   UNL     1      -1.467  -4.229   3.476  0.00  0.00    +0.005 A 
ENDBRANCH  20  27
ENDBRANCH  18  20
ENDBRANCH   1  18
BRANCH   1  30
ATOM     30  C   UNL     1       3.174  -3.257   0.688  0.00  0.00    +0.032 C 
BRANCH  30  31
ATOM     31  C   UNL     1       2.052  -2.216   0.693  0.00  0.00    -0.015 C 
ATOM     32  C   UNL     1       1.501  -2.066   2.112  0.00  0.00    +0.007 C 
ATOM     33  C   UNL     1       2.604  -0.871   0.215  0.00  0.00    +0.007 C 
ENDBRANCH  30  31
ENDBRANCH   1  30
TORSDOF 9
