REMARK  Name = ZINC31056399
REMARK  9 active torsions:
REMARK  status: ('A' for Active; 'I' for Inactive)
REMARK    1  A    between atoms: C_3  and  C_6
REMARK    2  A    between atoms: C_8  and  C_11
REMARK    3  A    between atoms: C_11  and  N_12
REMARK    4  A    between atoms: C_16  and  C_19
REMARK    5  A    between atoms: N_21  and  C_22
REMARK    6  A    between atoms: C_22  and  C_23
REMARK    7  A    between atoms: C_23  and  S_24
REMARK    8  A    between atoms: S_24  and  C_25
REMARK    9  A    between atoms: C_25  and  C_26
REMARK                            x       y       z     vdW  Elec       q    Type
REMARK                         _______ _______ _______ _____ _____    ______ ____
ROOT
ATOM      1  N   UNL     1      11.443  -5.010  -5.122  0.00  0.00    +0.386 N 
ATOM      2  C   UNL     1      12.436  -4.172  -4.437  0.00  0.00    -0.078 C 
ATOM      3  C   UNL     1      11.953  -3.861  -3.019  0.00  0.00    -0.018 C 
ATOM      4  C   UNL     1      10.607  -3.134  -3.091  0.00  0.00    +0.009 C 
ATOM      5  C   UNL     1       9.605  -4.007  -3.851  0.00  0.00    +0.058 C 
ATOM      6  C   UNL     1      10.156  -4.314  -5.245  0.00  0.00    -0.065 C 
ATOM      7  H   UNL     1      11.281  -5.908  -4.507  0.00  0.00    -0.081 HD
ENDROOT
BRANCH   5   8
ATOM      8  C   UNL     1       8.294  -3.274  -3.978  0.00  0.00    +0.214 C 
ATOM      9  O   UNL     1       7.844  -3.022  -5.076  0.00  0.00    -0.276 OA
ATOM     10  N   UNL     1       7.623  -2.897  -2.872  0.00  0.00    -0.314 N 
ATOM     11  H   UNL     1       8.031  -3.125  -1.876  0.00  0.00    +0.149 HD
BRANCH  10  12
ATOM     12  C   UNL     1       6.349  -2.184  -2.995  0.00  0.00    +0.115 C 
BRANCH  12  13
ATOM     13  C   UNL     1       5.799  -1.876  -1.601  0.00  0.00    +0.088 C 
BRANCH  13  14
ATOM     14  S   UNL     1       4.222  -0.994  -1.754  0.00  0.00    -0.155 S 
BRANCH  14  15
ATOM     15  C   UNL     1       3.711  -0.707  -0.038  0.00  0.00    +0.104 C 
BRANCH  15  16
ATOM     16  C   UNL     1       2.396   0.029  -0.021  0.00  0.00    -0.037 A 
ATOM     17  C   UNL     1       1.208  -0.678  -0.013  0.00  0.00    +0.006 A 
ATOM     18  C   UNL     1       0.002  -0.004   0.002  0.00  0.00    +0.020 A 
ATOM     19  C   UNL     1      -0.017   1.379   0.010  0.00  0.00    +0.041 A 
ATOM     20  C   UNL     1       1.172   2.087   0.002  0.00  0.00    +0.020 A 
ATOM     21  C   UNL     1       2.378   1.411  -0.013  0.00  0.00    +0.006 A 
ATOM     22 CL   UNL     1      -1.532   2.227   0.021  0.00  0.00    -0.084 Cl
ENDBRANCH  15  16
ENDBRANCH  14  15
ENDBRANCH  13  14
ENDBRANCH  12  13
ENDBRANCH  10  12
ENDBRANCH   5   8
BRANCH   1  23
ATOM     23  C   UNL     1      11.936  -5.443  -6.436  0.00  0.00    +0.022 C 
BRANCH  23  26
ATOM     24  C   UNL     1      14.371  -8.049  -5.987  0.00  0.00    +0.209 A 
ATOM     25  N   UNL     1      13.082  -7.660  -6.121  0.00  0.00    -0.192 NA
ATOM     26  C   UNL     1      13.119  -6.358  -6.253  0.00  0.00    +0.211 A 
ATOM     27  O   UNL     1      14.403  -5.991  -6.188  0.00  0.00    -0.340 OA
ATOM     28  N   UNL     1      15.108  -6.966  -6.036  0.00  0.00    -0.056 NA
BRANCH  24  31
ATOM     29  C   UNL     1      16.355 -11.237  -5.518  0.00  0.00    +0.008 A 
ATOM     30  C   UNL     1      16.142  -9.886  -5.673  0.00  0.00    +0.019 A 
ATOM     31  C   UNL     1      14.857  -9.434  -5.813  0.00  0.00    +0.060 A 
ATOM     32  S   UNL     1      13.922 -10.953  -5.738  0.00  0.00    -0.093 S 
ATOM     33  C   UNL     1      15.289 -12.080  -5.520  0.00  0.00    +0.046 A 
ENDBRANCH  24  31
ENDBRANCH  23  26
ENDBRANCH   1  23
TORSDOF 9
