REMARK  Name = ZINC15906453
REMARK  5 active torsions:
REMARK  status: ('A' for Active; 'I' for Inactive)
REMARK    1  A    between atoms: C_1  and  C_2
REMARK    2  A    between atoms: C_2  and  C_3
REMARK    3  A    between atoms: C_2  and  C_4
REMARK    4  A    between atoms: C_4  and  C_5
REMARK    5  A    between atoms: C_5  and  N_7
REMARK                            x       y       z     vdW  Elec       q    Type
REMARK                         _______ _______ _______ _____ _____    ______ ____
ROOT
ATOM      1  N   UNL     1      -1.498   4.192  -2.135  0.00  0.00    -0.161 NA
ATOM      2  C   UNL     1      -1.611   5.525  -2.073  0.00  0.00    +0.155 C 
ATOM      3  C   UNL     1      -2.296   6.182  -3.195  0.00  0.00    +0.022 A 
ATOM      4  C   UNL     1      -3.380   5.539  -3.809  0.00  0.00    +0.012 A 
ATOM      5  C   UNL     1      -4.048   6.153  -4.847  0.00  0.00    +0.001 A 
ATOM      6  C   UNL     1      -3.656   7.407  -5.281  0.00  0.00    +0.000 A 
ATOM      7  C   UNL     1      -2.586   8.046  -4.681  0.00  0.00    +0.006 A 
ATOM      8  C   UNL     1      -1.904   7.437  -3.646  0.00  0.00    -0.019 A 
ATOM      9  C   UNL     1      -0.730   8.129  -3.015  0.00  0.00    +0.147 C 
ATOM     10  N   UNL     1      -0.973   8.393  -1.599  0.00  0.00    -0.286 N 
ATOM     11  C   UNL     1      -1.042   9.688  -1.200  0.00  0.00    +0.091 C 
ATOM     12  C   UNL     1      -1.205  10.016   0.103  0.00  0.00    +0.027 C 
ATOM     13  C   UNL     1      -1.317   9.005   1.065  0.00  0.00    +0.019 C 
ATOM     14  C   UNL     1      -1.273   7.701   0.667  0.00  0.00    +0.045 C 
ATOM     15  C   UNL     1      -1.111   7.389  -0.698  0.00  0.00    +0.128 C 
ATOM     16  N   UNL     1      -1.102   6.104  -1.034  0.00  0.00    -0.215 NA
ATOM     17  I   UNL     1      -1.289  12.028   0.678  0.00  0.00    -0.043 I 
ENDROOT
BRANCH   1  18
ATOM     18  C   UNL     1      -0.887   3.533  -1.159  0.00  0.00    +0.238 C 
ATOM     19  O   UNL     1      -0.429   4.138  -0.209  0.00  0.00    -0.274 OA
BRANCH  18  20
ATOM     20  C   UNL     1      -0.759   2.033  -1.229  0.00  0.00    +0.101 C 
BRANCH  20  22
ATOM     21  C   UNL     1       0.002  -0.004   0.002  0.00  0.00    +0.008 C 
ATOM     22  C   UNL     1      -0.019   1.526   0.010  0.00  0.00    -0.008 C 
ATOM     23  C   UNL     1       1.417   2.055  -0.000  0.00  0.00    +0.008 C 
ENDBRANCH  20  22
ENDBRANCH  18  20
ENDBRANCH   1  18
TORSDOF 3
