REMARK  Name = ZINC04116309
REMARK  5 active torsions:
REMARK  status: ('A' for Active; 'I' for Inactive)
REMARK    1  A    between atoms: C_1  and  C_2
REMARK    2  A    between atoms: C_7  and  C_17
REMARK    3  A    between atoms: C_29  and  C_31
REMARK    4  A    between atoms: C_31  and  O_33
REMARK    5  A    between atoms: O_33  and  C_34
REMARK                            x       y       z     vdW  Elec       q    Type
REMARK                         _______ _______ _______ _____ _____    ______ ____
ROOT
ATOM      1  C   UNL     1      -3.516   1.446   1.094  0.00  0.00    +0.009 C 
ATOM      2  C   UNL     1      -2.826   1.179   2.433  0.00  0.00    +0.013 C 
ATOM      3  C   UNL     1      -3.806   1.426   3.579  0.00  0.00    +0.055 C 
ATOM      4  C   UNL     1      -4.293   2.865   3.545  0.00  0.00    +0.017 C 
ATOM      5  C   UNL     1      -3.487   3.845   3.102  0.00  0.00    +0.037 C 
ATOM      6  C   UNL     1      -3.841   5.311   3.013  0.00  0.00    +0.138 C 
ATOM      7  N   UNL     1      -5.067   5.672   3.693  0.00  0.00    -0.331 N 
ATOM      8  C   UNL     1      -6.295   5.172   3.269  0.00  0.00    +0.049 A 
ATOM      9  C   UNL     1      -7.260   6.002   2.718  0.00  0.00    +0.025 A 
ATOM     10  C   UNL     1      -8.435   5.454   2.236  0.00  0.00    +0.002 A 
ATOM     11  C   UNL     1      -8.650   4.089   2.302  0.00  0.00    +0.002 A 
ATOM     12  C   UNL     1      -7.699   3.260   2.873  0.00  0.00    +0.025 A 
ATOM     13  C   UNL     1      -6.533   3.810   3.373  0.00  0.00    +0.052 A 
ATOM     14  N   UNL     1      -5.558   3.045   4.005  0.00  0.00    -0.316 N 
ATOM     15  C   UNL     1      -2.180   3.545   2.651  0.00  0.00    +0.177 C 
ATOM     16  O   UNL     1      -1.464   4.455   2.281  0.00  0.00    -0.291 OA
ATOM     17  C   UNL     1      -1.647   2.144   2.612  0.00  0.00    +0.171 C 
ATOM     18  H   UNL     1      -5.032   6.272   4.455  0.00  0.00    +0.147 HD
ATOM     19  H   UNL     1      -5.800   2.606   4.835  0.00  0.00    +0.152 HD
ENDROOT
BRANCH   6  20
ATOM     20  C   UNL     1      -3.975   5.680   1.558  0.00  0.00    +0.002 A 
ATOM     21  C   UNL     1      -5.023   5.417   0.761  0.00  0.00    +0.089 A 
ATOM     22  N   UNL     1      -4.787   5.904  -0.496  0.00  0.00    -0.360 N 
ATOM     23  H   UNL     1      -5.399   5.834  -1.244  0.00  0.00    +0.165 HD
ATOM     24  C   UNL     1      -3.550   6.507  -0.539  0.00  0.00    +0.047 A 
ATOM     25  C   UNL     1      -2.990   6.399   0.747  0.00  0.00    +0.005 A 
ATOM     26  C   UNL     1      -1.721   6.922   1.000  0.00  0.00    +0.010 A 
ATOM     27  C   UNL     1      -1.034   7.550  -0.001  0.00  0.00    +0.001 A 
ATOM     28  C   UNL     1      -1.584   7.664  -1.270  0.00  0.00    +0.002 A 
ATOM     29  C   UNL     1      -2.832   7.149  -1.543  0.00  0.00    +0.026 A 
ENDBRANCH   6  20
BRANCH  17  30
ATOM     30  C   UNL     1      -0.693   1.997   1.456  0.00  0.00    +0.318 C 
ATOM     31  O   UNL     1      -0.927   1.203   0.576  0.00  0.00    -0.250 OA
BRANCH  30  32
ATOM     32  O   UNL     1       0.418   2.748   1.403  0.00  0.00    -0.467 OA
ATOM     33  C   UNL     1       1.292   2.553   0.259  0.00  0.00    +0.280 C 
ENDBRANCH  30  32
ENDBRANCH  17  30
TORSDOF 3
