REMARK  Name = ZINC02348047
REMARK  9 active torsions:
REMARK  status: ('A' for Active; 'I' for Inactive)
REMARK    1  A    between atoms: C_4  and  C_7
REMARK    2  A    between atoms: C_7  and  N_8
REMARK    3  A    between atoms: C_15  and  S_24
REMARK    4  A    between atoms: C_16  and  C_17
REMARK    5  A    between atoms: C_17  and  C_18
REMARK    6  A    between atoms: N_20  and  C_21
REMARK    7  A    between atoms: C_21  and  C_22
REMARK    8  A    between atoms: C_22  and  O_23
REMARK    9  A    between atoms: S_24  and  C_25
REMARK                            x       y       z     vdW  Elec       q    Type
REMARK                         _______ _______ _______ _____ _____    ______ ____
ROOT
ATOM      1  N   UNL     1       4.152  -0.952   1.338  0.00  0.00    -0.338 N 
ATOM      2  C   UNL     1       4.935  -0.099   2.082  0.00  0.00    +0.051 A 
ATOM      3  C   UNL     1       5.511   1.141   1.821  0.00  0.00    +0.026 A 
ATOM      4  C   UNL     1       6.262   1.764   2.793  0.00  0.00    +0.002 A 
ATOM      5  C   UNL     1       6.452   1.168   4.032  0.00  0.00    +0.001 A 
ATOM      6  C   UNL     1       5.895  -0.049   4.309  0.00  0.00    +0.011 A 
ATOM      7  C   UNL     1       5.130  -0.698   3.339  0.00  0.00    +0.014 A 
ATOM      8  C   UNL     1       4.407  -1.975   3.299  0.00  0.00    +0.042 A 
ATOM      9  C   UNL     1       3.840  -2.067   2.081  0.00  0.00    +0.043 A 
ENDROOT
BRANCH   1  10
ATOM     10  C   UNL     1       3.711  -0.707  -0.038  0.00  0.00    +0.157 C 
BRANCH  10  14
ATOM     11  C   UNL     1      -0.017   1.378   0.010  0.00  0.00    +0.000 A 
ATOM     12  C   UNL     1       1.171   2.086   0.002  0.00  0.00    +0.000 A 
ATOM     13  C   UNL     1       2.377   1.411  -0.013  0.00  0.00    +0.005 A 
ATOM     14  C   UNL     1       2.396   0.029  -0.020  0.00  0.00    -0.028 A 
ATOM     15  C   UNL     1       1.208  -0.679  -0.012  0.00  0.00    +0.005 A 
ATOM     16  C   UNL     1       0.002  -0.004   0.002  0.00  0.00    +0.000 A 
ENDBRANCH  10  14
ENDBRANCH   1  10
BRANCH   9  17
ATOM     17  C   UNL     1       2.994  -3.219   1.603  0.00  0.00    +0.150 C 
BRANCH  17  18
ATOM     18  C   UNL     1       3.876  -4.255   0.954  0.00  0.00    +0.219 C 
ATOM     19  O   UNL     1       5.074  -4.075   0.887  0.00  0.00    -0.275 OA
ATOM     20  N   UNL     1       3.334  -5.380   0.449  0.00  0.00    -0.313 N 
ATOM     21  H   UNL     1       2.377  -5.524   0.502  0.00  0.00    +0.149 HD
BRANCH  20  22
ATOM     22  C   UNL     1       4.192  -6.387  -0.182  0.00  0.00    +0.132 C 
BRANCH  22  23
ATOM     23  C   UNL     1       3.333  -7.557  -0.667  0.00  0.00    +0.174 C 
BRANCH  23  24
ATOM     24  O   UNL     1       2.456  -7.106  -1.701  0.00  0.00    -0.393 OA
ATOM     25  H   UNL     1       1.880  -7.797  -2.057  0.00  0.00    +0.209 HD
ENDBRANCH  23  24
ENDBRANCH  22  23
ENDBRANCH  20  22
ENDBRANCH  17  18
ENDBRANCH   9  17
BRANCH   8  26
ATOM     26  S   UNL     1       4.297  -3.160   4.599  0.00  0.00    -0.087 S 
BRANCH  26  27
ATOM     27  C   UNL     1       2.866  -2.670   5.502  0.00  0.00    +0.013 A 
ATOM     28  C   UNL     1       2.130  -1.564   5.094  0.00  0.00    +0.015 A 
ATOM     29  C   UNL     1       1.008  -1.183   5.804  0.00  0.00    +0.001 A 
ATOM     30  C   UNL     1       0.616  -1.902   6.919  0.00  0.00    +0.000 A 
ATOM     31  C   UNL     1       1.346  -3.003   7.327  0.00  0.00    +0.001 A 
ATOM     32  C   UNL     1       2.466  -3.393   6.620  0.00  0.00    +0.015 A 
ENDBRANCH  26  27
ENDBRANCH   8  26
TORSDOF 9
