REMARK  Name = ZINC40733281
REMARK  12 active torsions:
REMARK  status: ('A' for Active; 'I' for Inactive)
REMARK    1  A    between atoms: C_1  and  C_2
REMARK    2  A    between atoms: C_2  and  C_3
REMARK    3  A    between atoms: C_3  and  C_5
REMARK    4  A    between atoms: C_3  and  N_6
REMARK    5  A    between atoms: N_6  and  C_7
REMARK    6  A    between atoms: C_7  and  C_8
REMARK    7  A    between atoms: C_10  and  O_24
REMARK    8  A    between atoms: C_11  and  O_15
REMARK    9  A    between atoms: O_15  and  C_16
REMARK   10  A    between atoms: C_16  and  C_17
REMARK   11  A    between atoms: C_21  and  C_23
REMARK   12  A    between atoms: O_24  and  C_25
REMARK                            x       y       z     vdW  Elec       q    Type
REMARK                         _______ _______ _______ _____ _____    ______ ____
ROOT
ATOM      1  C   UNL     1       4.235  -0.040  -2.421  0.00  0.00    -0.060 A 
ATOM      2  C   UNL     1       4.604   1.219  -2.857  0.00  0.00    +0.051 A 
ATOM      3  C   UNL     1       5.934   1.605  -2.813  0.00  0.00    +0.163 A 
ATOM      4  C   UNL     1       6.896   0.724  -2.329  0.00  0.00    +0.176 A 
ATOM      5  C   UNL     1       6.519  -0.536  -1.892  0.00  0.00    +0.063 A 
ATOM      6  C   UNL     1       5.189  -0.914  -1.934  0.00  0.00    +0.021 A 
ATOM      7 BR   UNL     1       7.822  -1.737  -1.233  0.00  0.00    -0.046 Br
ENDROOT
BRANCH   3   8
ATOM      8  O   UNL     1       6.298   2.843  -3.243  0.00  0.00    -0.491 OA
ATOM      9  C   UNL     1       5.258   3.694  -3.728  0.00  0.00    +0.277 C 
ENDBRANCH   3   8
BRANCH   1  10
ATOM     10  C   UNL     1       2.788  -0.458  -2.470  0.00  0.00    -0.046 C 
BRANCH  10  11
ATOM     11  N   UNL     1       2.129  -0.090  -1.209  0.00  0.00    +0.383 N 
ATOM     12  H   UNL     1       2.186   0.909  -1.079  0.00  0.00    -0.085 HD
ATOM     13  H   UNL     1       2.588  -0.556  -0.441  0.00  0.00    -0.085 HD
BRANCH  11  14
ATOM     14  C   UNL     1       0.718  -0.497  -1.257  0.00  0.00    -0.075 C 
ATOM     15  C   UNL     1       0.630  -2.023  -1.329  0.00  0.00    -0.014 C 
BRANCH  14  17
ATOM     16  C   UNL     1      -0.019   1.526   0.010  0.00  0.00    +0.002 C 
ATOM     17  C   UNL     1       0.002  -0.004   0.002  0.00  0.00    -0.019 C 
ENDBRANCH  14  17
ENDBRANCH  11  14
ENDBRANCH  10  11
ENDBRANCH   1  10
BRANCH   4  18
ATOM     18  O   UNL     1       8.202   1.099  -2.284  0.00  0.00    -0.483 OA
BRANCH  18  19
ATOM     19  C   UNL     1       8.654   1.736  -1.087  0.00  0.00    +0.264 C 
BRANCH  19  20
ATOM     20  C   UNL     1      10.116   2.076  -1.220  0.00  0.00    -0.010 A 
ATOM     21  C   UNL     1      11.077   1.163  -0.828  0.00  0.00    +0.007 A 
ATOM     22  C   UNL     1      12.418   1.475  -0.950  0.00  0.00    +0.001 A 
ATOM     23  C   UNL     1      12.798   2.701  -1.465  0.00  0.00    +0.003 A 
ATOM     24  C   UNL     1      11.838   3.613  -1.859  0.00  0.00    -0.050 A 
ATOM     25  C   UNL     1      10.496   3.299  -1.740  0.00  0.00    +0.010 A 
ATOM     26  C   UNL     1      12.252   4.949  -2.420  0.00  0.00    +0.044 C 
ENDBRANCH  19  20
ENDBRANCH  18  19
ENDBRANCH   4  18
TORSDOF 8
