REMARK  Name = ZINC07883912
REMARK  4 active torsions:
REMARK  status: ('A' for Active; 'I' for Inactive)
REMARK    1  A    between atoms: C_1  and  O_2
REMARK    2  A    between atoms: O_2  and  C_3
REMARK    3  A    between atoms: C_6  and  N_9
REMARK    4  A    between atoms: C_10  and  C_21
REMARK                            x       y       z     vdW  Elec       q    Type
REMARK                         _______ _______ _______ _____ _____    ______ ____
ROOT
ATOM      1  N   UNL     1       0.002  -0.004   0.002  0.00  0.00    -0.243 N 
ATOM      2  C   UNL     1       1.246  -0.744   0.218  0.00  0.00    +0.216 C 
ATOM      3  N   UNL     1       2.376  -0.026  -0.383  0.00  0.00    -0.320 N 
ATOM      4  C   UNL     1       2.461   1.351  -0.215  0.00  0.00    +0.041 A 
ATOM      5  C   UNL     1       3.678   2.012  -0.212  0.00  0.00    +0.024 A 
ATOM      6  C   UNL     1       3.711   3.384  -0.051  0.00  0.00    +0.002 A 
ATOM      7  C   UNL     1       2.537   4.103   0.106  0.00  0.00    +0.001 A 
ATOM      8  C   UNL     1       1.317   3.461   0.111  0.00  0.00    +0.015 A 
ATOM      9  C   UNL     1       1.268   2.077  -0.046  0.00  0.00    +0.058 A 
ATOM     10  C   UNL     1      -0.009   1.343  -0.038  0.00  0.00    +0.254 C 
ATOM     11  O   UNL     1      -1.064   1.948  -0.073  0.00  0.00    -0.270 OA
ATOM     12  H   UNL     1       3.051  -0.504  -0.890  0.00  0.00    +0.148 HD
ENDROOT
BRANCH   1  16
ATOM     13  C   UNL     1      -3.568  -2.098  -0.499  0.00  0.00    +0.120 A 
ATOM     14  C   UNL     1      -3.374  -1.319   0.633  0.00  0.00    +0.047 A 
ATOM     15  C   UNL     1      -2.192  -0.625   0.799  0.00  0.00    +0.027 A 
ATOM     16  C   UNL     1      -1.197  -0.708  -0.166  0.00  0.00    +0.039 A 
ATOM     17  C   UNL     1      -1.394  -1.484  -1.301  0.00  0.00    +0.027 A 
ATOM     18  C   UNL     1      -2.575  -2.181  -1.464  0.00  0.00    +0.047 A 
BRANCH  13  20
ATOM     19  C   UNL     1      -4.864  -3.564  -1.850  0.00  0.00    +0.277 C 
ATOM     20  O   UNL     1      -4.732  -2.781  -0.662  0.00  0.00    -0.495 OA
ENDBRANCH  13  20
ENDBRANCH   1  16
BRANCH   2  21
ATOM     21  C   UNL     1       1.484  -0.899   1.698  0.00  0.00    +0.080 A 
ATOM     22  C   UNL     1       2.778  -0.978   2.177  0.00  0.00    +0.027 A 
ATOM     23  C   UNL     1       2.986  -1.114   3.541  0.00  0.00    +0.003 A 
ATOM     24  C   UNL     1       1.879  -1.178   4.374  0.00  0.00    +0.020 A 
ATOM     25  C   UNL     1       0.615  -1.098   3.822  0.00  0.00    +0.111 A 
ATOM     26  N   UNL     1       0.455  -0.963   2.520  0.00  0.00    -0.256 NA
ENDBRANCH   2  21
TORSDOF 3
