REMARK  Name = ZINC04590376
REMARK  4 active torsions:
REMARK  status: ('A' for Active; 'I' for Inactive)
REMARK    1  A    between atoms: C_1  and  O_2
REMARK    2  A    between atoms: O_2  and  C_3
REMARK    3  A    between atoms: C_6  and  C_10
REMARK    4  A    between atoms: C_13  and  C_14
REMARK                            x       y       z     vdW  Elec       q    Type
REMARK                         _______ _______ _______ _____ _____    ______ ____
ROOT
ATOM      1  C   UNL     1      -3.361   2.496   0.032  0.00  0.00    +0.233 C 
ATOM      2  N   UNL     1      -2.477   1.536   0.016  0.00  0.00    -0.205 NA
ATOM      3  C   UNL     1      -1.227   2.080   0.019  0.00  0.00    +0.155 C 
ATOM      4  C   UNL     1      -0.017   1.403   0.010  0.00  0.00    +0.081 C 
ATOM      5  C   UNL     1      -1.432   3.536   0.028  0.00  0.00    +0.364 C 
ATOM      6  O   UNL     1      -0.576   4.402   0.029  0.00  0.00    -0.243 OA
ATOM      7  O   UNL     1      -2.771   3.708   0.035  0.00  0.00    -0.402 OA
ENDROOT
BRANCH   1  11
ATOM      8  C   UNL     1      -7.563   1.881   0.049  0.00  0.00    +0.121 A 
ATOM      9  C   UNL     1      -7.051   3.173   0.054  0.00  0.00    +0.046 A 
ATOM     10  C   UNL     1      -5.689   3.377   0.048  0.00  0.00    +0.018 A 
ATOM     11  C   UNL     1      -4.820   2.283   0.038  0.00  0.00    +0.051 A 
ATOM     12  C   UNL     1      -5.339   0.984   0.028  0.00  0.00    +0.034 A 
ATOM     13  C   UNL     1      -6.704   0.789   0.039  0.00  0.00    +0.061 A 
ATOM     14 BR   UNL     1      -4.170  -0.503   0.006  0.00  0.00    -0.049 Br
BRANCH   8  16
ATOM     15  C   UNL     1      -9.365   0.331   0.049  0.00  0.00    +0.277 C 
ATOM     16  O   UNL     1      -8.906   1.685   0.054  0.00  0.00    -0.495 OA
ENDBRANCH   8  16
ENDBRANCH   1  11
BRANCH   4  17
ATOM     17  C   UNL     1       0.002  -0.004   0.002  0.00  0.00    +0.130 A 
ATOM     18  C   UNL     1       1.131  -0.805  -0.013  0.00  0.00    +0.049 A 
ATOM     19  C   UNL     1       0.678  -2.131  -0.015  0.00  0.00    +0.042 A 
ATOM     20  C   UNL     1      -0.674  -2.093  -0.002  0.00  0.00    +0.195 A 
ATOM     21  O   UNL     1      -1.077  -0.815   0.014  0.00  0.00    -0.463 OA
ENDBRANCH   4  17
TORSDOF 3
