REMARK  Name = ZINC09729949
REMARK  8 active torsions:
REMARK  status: ('A' for Active; 'I' for Inactive)
REMARK    1  A    between atoms: C_1  and  C_2
REMARK    2  A    between atoms: C_2  and  C_3
REMARK    3  A    between atoms: C_3  and  N_4
REMARK    4  A    between atoms: C_8  and  S_24
REMARK    5  A    between atoms: C_12  and  C_13
REMARK    6  A    between atoms: C_13  and  N_68
REMARK    7  A    between atoms: C_14  and  N_68
REMARK    8  A    between atoms: S_24  and  N_27
REMARK                            x       y       z     vdW  Elec       q    Type
REMARK                         _______ _______ _______ _____ _____    ______ ____
ROOT
ATOM      1  N   UNL     1      -3.176   7.878  -0.507  0.00  0.00    -0.329 N 
ATOM      2  C   UNL     1      -2.813   9.198  -0.678  0.00  0.00    +0.069 A 
ATOM      3  C   UNL     1      -3.378  10.412  -0.309  0.00  0.00    +0.030 A 
ATOM      4  C   UNL     1      -2.748  11.590  -0.648  0.00  0.00    +0.030 A 
ATOM      5  C   UNL     1      -1.554  11.570  -1.355  0.00  0.00    +0.108 A 
ATOM      6  C   UNL     1      -0.983  10.386  -1.726  0.00  0.00    +0.058 A 
ATOM      7  C   UNL     1      -1.604   9.179  -1.393  0.00  0.00    +0.091 A 
ATOM      8  N   UNL     1      -1.296   7.875  -1.613  0.00  0.00    -0.234 NA
ATOM      9  C   UNL     1      -2.214   7.115  -1.091  0.00  0.00    +0.094 A 
ENDROOT
BRANCH   5  10
ATOM     10  S   UNL     1      -0.765  13.088  -1.779  0.00  0.00    +0.061 S 
ATOM     11  O   UNL     1       0.051  12.820  -2.910  0.00  0.00    -0.153 OA
ATOM     12  O   UNL     1      -1.780  14.083  -1.790  0.00  0.00    -0.153 OA
BRANCH  10  13
ATOM     13  N   UNL     1       0.259  13.471  -0.535  0.00  0.00    -0.172 NA
ATOM     14  C   UNL     1      -0.199  14.292   0.598  0.00  0.00    +0.137 C 
ATOM     15  C   UNL     1       0.178  13.565   1.899  0.00  0.00    +0.177 C 
ATOM     16  O   UNL     1       1.571  13.244   1.869  0.00  0.00    -0.377 OA
ATOM     17  C   UNL     1       1.944  12.347   0.820  0.00  0.00    +0.177 C 
ATOM     18  C   UNL     1       1.655  13.007  -0.533  0.00  0.00    +0.137 C 
ENDBRANCH  10  13
ENDBRANCH   5  10
BRANCH   1  19
ATOM     19  C   UNL     1      -4.375   7.388   0.179  0.00  0.00    +0.123 C 
BRANCH  19  21
ATOM     20  C   UNL     1      -5.316   6.671   2.379  0.00  0.00    +0.005 C 
ATOM     21  C   UNL     1      -4.065   7.182   1.663  0.00  0.00    +0.018 C 
ENDBRANCH  19  21
ENDBRANCH   1  19
BRANCH   9  22
ATOM     22  C   UNL     1      -2.214   5.608  -1.135  0.00  0.00    -0.006 C 
BRANCH  22  23
ATOM     23  N   UNL     1      -1.505   5.091   0.051  0.00  0.00    +0.387 N 
ATOM     24  H   UNL     1      -1.983   5.415   0.900  0.00  0.00    -0.084 HD
ATOM     25  H   UNL     1      -0.539   5.440   0.048  0.00  0.00    -0.084 HD
BRANCH  23  26
ATOM     26  C   UNL     1      -1.490   3.616   0.036  0.00  0.00    -0.067 C 
ATOM     27  C   UNL     1      -0.773   3.123  -1.223  0.00  0.00    -0.009 C 
ATOM     28  C   UNL     1      -0.753   1.593  -1.232  0.00  0.00    -0.012 C 
ATOM     29  C   UNL     1      -0.013   1.086   0.008  0.00  0.00    +0.007 C 
ATOM     30  C   UNL     1      -0.729   1.579   1.267  0.00  0.00    -0.012 C 
ATOM     31  C   UNL     1      -0.750   3.109   1.275  0.00  0.00    -0.009 C 
ATOM     32  C   UNL     1      -2.164   1.050   1.278  0.00  0.00    +0.007 C 
ATOM     33  C   UNL     1      -2.904   1.556   0.038  0.00  0.00    -0.012 C 
ATOM     34  C   UNL     1      -2.188   1.063  -1.221  0.00  0.00    +0.007 C 
ATOM     35  C   UNL     1      -2.925   3.086   0.047  0.00  0.00    -0.009 C 
ENDBRANCH  23  26
ENDBRANCH  22  23
ENDBRANCH   9  22
TORSDOF 7
