REMARK  Name = ZINC40642496
REMARK  8 active torsions:
REMARK  status: ('A' for Active; 'I' for Inactive)
REMARK    1  A    between atoms: C_1  and  C_2
REMARK    2  A    between atoms: C_2  and  N_3
REMARK    3  A    between atoms: N_3  and  C_4
REMARK    4  A    between atoms: C_12  and  C_14
REMARK    5  A    between atoms: C_14  and  C_16
REMARK    6  A    between atoms: C_14  and  C_22
REMARK    7  A    between atoms: C_16  and  C_17
REMARK    8  A    between atoms: C_25  and  C_28
REMARK                            x       y       z     vdW  Elec       q    Type
REMARK                         _______ _______ _______ _____ _____    ______ ____
ROOT
ATOM      1  C   UNL     1       2.618  -0.703  -0.044  0.00  0.00    +0.110 C 
ENDROOT
BRANCH   1   2
ATOM      2  C   UNL     1       4.043  -1.186   0.038  0.00  0.00    -0.035 A 
ATOM      3  C   UNL     1       4.943  -0.545   0.870  0.00  0.00    +0.004 A 
ATOM      4  C   UNL     1       6.250  -0.989   0.946  0.00  0.00    +0.003 A 
ATOM      5  C   UNL     1       6.657  -2.072   0.190  0.00  0.00    -0.050 A 
ATOM      6  C   UNL     1       5.758  -2.713  -0.641  0.00  0.00    +0.003 A 
ATOM      7  C   UNL     1       4.449  -2.272  -0.713  0.00  0.00    +0.004 A 
ATOM      8  C   UNL     1       8.083  -2.555   0.272  0.00  0.00    +0.044 C 
ENDBRANCH   1   2
BRANCH   1  10
ATOM      9  N   UNL     1       0.639  -0.757   1.438  0.00  0.00    -0.297 N 
ATOM     10  C   UNL     1       1.981  -0.781   1.319  0.00  0.00    +0.224 C 
ATOM     11  O   UNL     1       2.676  -0.866   2.309  0.00  0.00    -0.275 OA
BRANCH   9  12
ATOM     12  C   UNL     1      -0.197  -0.532   0.257  0.00  0.00    +0.098 C 
ATOM     13  C   UNL     1      -1.187  -1.698   0.101  0.00  0.00    +0.046 C 
ATOM     14  C   UNL     1      -2.255  -1.290  -0.953  0.00  0.00    +0.168 C 
ATOM     15  S   UNL     1      -2.538   0.469  -0.483  0.00  0.00    -0.029 S 
ATOM     16  O   UNL     1      -2.568   1.264  -1.661  0.00  0.00    -0.174 OA
ATOM     17  O   UNL     1      -3.623   0.534   0.432  0.00  0.00    -0.174 OA
ATOM     18  C   UNL     1      -0.972   0.798   0.422  0.00  0.00    +0.188 C 
ENDBRANCH   9  12
BRANCH   9  20
ATOM     19  C   UNL     1      -0.125  -2.456   3.023  0.00  0.00    +0.024 C 
ATOM     20  C   UNL     1       0.016  -0.957   2.749  0.00  0.00    +0.105 C 
ENDBRANCH   9  20
ENDBRANCH   1  10
BRANCH   1  21
ATOM     21  C   UNL     1       2.599   0.747  -0.534  0.00  0.00    +0.060 C 
BRANCH  21  22
ATOM     22  C   UNL     1       3.071   0.801  -1.964  0.00  0.00    -0.009 A 
ATOM     23  C   UNL     1       2.347   0.712  -3.106  0.00  0.00    +0.011 A 
ATOM     24  C   UNL     1       3.001   0.789  -4.322  0.00  0.00    +0.008 A 
ATOM     25  C   UNL     1       4.346   0.952  -4.335  0.00  0.00    +0.045 A 
ATOM     26  S   UNL     1       4.729   1.008  -2.592  0.00  0.00    -0.102 S 
ENDBRANCH  21  22
ENDBRANCH   1  21
TORSDOF 6
