REMARK  Name = ZINC01980133
REMARK  14 active torsions:
REMARK  status: ('A' for Active; 'I' for Inactive)
REMARK    1  A    between atoms: C_1  and  C_2
REMARK    2  A    between atoms: C_2  and  O_3
REMARK    3  A    between atoms: O_3  and  C_4
REMARK    4  A    between atoms: C_4  and  C_6
REMARK    5  A    between atoms: C_7  and  C_28
REMARK    6  A    between atoms: C_8  and  C_27
REMARK    7  A    between atoms: C_10  and  N_11
REMARK    8  A    between atoms: C_12  and  C_14
REMARK    9  A    between atoms: C_14  and  C_15
REMARK   10  A    between atoms: C_15  and  C_16
REMARK   11  A    between atoms: C_16  and  O_17
REMARK   12  A    between atoms: O_17  and  C_18
REMARK   13  A    between atoms: C_20  and  C_26
REMARK   14  A    between atoms: C_22  and  C_24
REMARK                            x       y       z     vdW  Elec       q    Type
REMARK                         _______ _______ _______ _____ _____    ______ ____
ROOT
ATOM      1  C   UNL     1       1.357  -0.309  -0.013  0.00  0.00    +0.095 A 
ATOM      2  C   UNL     1       2.278   0.812  -0.015  0.00  0.00    +0.008 A 
ATOM      3  C   UNL     1       1.729   2.053  -0.003  0.00  0.00    -0.003 A 
ATOM      4  S   UNL     1      -0.021   1.727   0.011  0.00  0.00    -0.077 S 
ATOM      5  C   UNL     1       0.002  -0.004   0.002  0.00  0.00    +0.087 A 
ATOM      6  C   UNL     1       2.432   3.386  -0.003  0.00  0.00    +0.052 C 
ENDROOT
BRANCH   2   7
ATOM      7  C   UNL     1       3.747   0.611  -0.030  0.00  0.00    -0.016 A 
ATOM      8  C   UNL     1       4.381   0.011   1.057  0.00  0.00    +0.010 A 
ATOM      9  C   UNL     1       5.748  -0.177   1.036  0.00  0.00    +0.020 A 
ATOM     10  C   UNL     1       6.490   0.237  -0.057  0.00  0.00    +0.041 A 
ATOM     11  C   UNL     1       5.865   0.838  -1.136  0.00  0.00    +0.020 A 
ATOM     12  C   UNL     1       4.498   1.027  -1.128  0.00  0.00    +0.010 A 
ATOM     13 CL   UNL     1       8.210   0.003  -0.073  0.00  0.00    -0.084 Cl
ENDBRANCH   2   7
BRANCH   5  14
ATOM     14  N   UNL     1      -1.074  -0.877   0.007  0.00  0.00    -0.279 N 
ATOM     15  C   UNL     1      -2.333  -0.395   0.022  0.00  0.00    +0.218 C 
ATOM     16  O   UNL     1      -2.523   0.803   0.030  0.00  0.00    -0.275 OA
ATOM     17  H   UNL     1      -0.901  -1.963  -0.001  0.00  0.00    +0.155 HD
BRANCH  15  18
ATOM     18  C   UNL     1      -3.503  -1.344   0.028  0.00  0.00    +0.099 C 
BRANCH  18  19
ATOM     19  C   UNL     1      -4.808  -0.545   0.044  0.00  0.00    +0.050 C 
BRANCH  19  20
ATOM     20  C   UNL     1      -5.996  -1.509   0.050  0.00  0.00    +0.229 C 
BRANCH  20  21
ATOM     21  O   UNL     1      -7.215  -0.763   0.066  0.00  0.00    -0.492 OA
BRANCH  21  22
ATOM     22  C   UNL     1      -8.373  -1.473   0.073  0.00  0.00    +0.121 A 
ATOM     23  C   UNL     1      -8.338  -2.860   0.059  0.00  0.00    +0.050 A 
ATOM     24  C   UNL     1      -9.517  -3.580   0.071  0.00  0.00    -0.028 A 
ATOM     25  C   UNL     1     -10.732  -2.919   0.086  0.00  0.00    +0.047 A 
ATOM     26  C   UNL     1     -10.770  -1.536   0.095  0.00  0.00    -0.028 A 
ATOM     27  C   UNL     1      -9.593  -0.812   0.088  0.00  0.00    +0.050 A 
ATOM     28  C   UNL     1     -12.095  -0.819   0.111  0.00  0.00    +0.045 C 
ATOM     29 CL   UNL     1     -12.212  -3.827   0.095  0.00  0.00    -0.083 Cl
ATOM     30  C   UNL     1      -9.478  -5.087   0.061  0.00  0.00    +0.045 C 
ENDBRANCH  21  22
ENDBRANCH  20  21
ENDBRANCH  19  20
ENDBRANCH  18  19
ENDBRANCH  15  18
ENDBRANCH   5  14
BRANCH   1  31
ATOM     31  C   UNL     1       1.832  -1.693  -0.024  0.00  0.00    +0.342 C 
ATOM     32  O   UNL     1       2.019  -2.263  -1.082  0.00  0.00    -0.245 OA
BRANCH  31  33
ATOM     33  O   UNL     1       2.061  -2.337   1.139  0.00  0.00    -0.461 OA
BRANCH  33  35
ATOM     34  C   UNL     1       2.734  -4.268   2.461  0.00  0.00    +0.048 C 
ATOM     35  C   UNL     1       2.531  -3.708   1.052  0.00  0.00    +0.229 C 
ENDBRANCH  33  35
ENDBRANCH  31  33
ENDBRANCH   1  31
TORSDOF 10
