REMARK  Name = ZINC38686165
REMARK  16 active torsions:
REMARK  status: ('A' for Active; 'I' for Inactive)
REMARK    1  A    between atoms: C_1  and  C_2
REMARK    2  A    between atoms: C_2  and  C_3
REMARK    3  A    between atoms: C_3  and  C_4
REMARK    4  A    between atoms: C_4  and  C_5
REMARK    5  A    between atoms: C_5  and  O_6
REMARK    6  A    between atoms: O_6  and  C_7
REMARK    7  A    between atoms: C_12  and  C_13
REMARK    8  A    between atoms: C_18  and  O_27
REMARK    9  A    between atoms: C_22  and  N_26
REMARK   10  A    between atoms: C_23  and  C_24
REMARK   11  A    between atoms: O_27  and  C_28
REMARK   12  A    between atoms: C_28  and  C_30
REMARK   13  A    between atoms: C_30  and  O_31
REMARK   14  A    between atoms: O_31  and  C_32
REMARK   15  A    between atoms: C_35  and  C_39
REMARK   16  A    between atoms: C_36  and  C_38
REMARK                            x       y       z     vdW  Elec       q    Type
REMARK                         _______ _______ _______ _____ _____    ______ ____
ROOT
ATOM      1  C   UNL     1      -2.852  -6.890  -0.035  0.00  0.00    +0.101 C 
ATOM      2  C   UNL     1      -2.786  -7.746   1.202  0.00  0.00    +0.008 A 
ATOM      3  C   UNL     1      -2.363  -7.187   2.395  0.00  0.00    +0.012 A 
ATOM      4  C   UNL     1      -2.296  -7.957   3.539  0.00  0.00    +0.047 A 
ATOM      5  C   UNL     1      -2.653  -9.297   3.495  0.00  0.00    +0.135 A 
ATOM      6  C   UNL     1      -3.077  -9.860   2.302  0.00  0.00    +0.093 A 
ATOM      7  C   UNL     1      -3.145  -9.084   1.153  0.00  0.00    +0.138 A 
ATOM      8  O   UNL     1      -3.561  -9.650  -0.007  0.00  0.00    -0.441 OA
ATOM      9  C   UNL     1      -3.275  -9.061  -1.181  0.00  0.00    +0.199 C 
ATOM     10  C   UNL     1      -2.934  -7.757  -1.260  0.00  0.00    +0.098 C 
ENDROOT
BRANCH   1  16
ATOM     11  C   UNL     1      -3.932  -4.627   0.019  0.00  0.00    +0.125 A 
ATOM     12  C   UNL     1      -5.057  -3.817   0.077  0.00  0.00    +0.046 A 
ATOM     13  C   UNL     1      -6.313  -4.386   0.155  0.00  0.00    +0.004 A 
ATOM     14  C   UNL     1      -6.449  -5.762   0.176  0.00  0.00    +0.001 A 
ATOM     15  C   UNL     1      -5.330  -6.571   0.118  0.00  0.00    +0.008 A 
ATOM     16  C   UNL     1      -4.072  -6.007   0.034  0.00  0.00    +0.007 A 
BRANCH  11  17
ATOM     17  O   UNL     1      -2.695  -4.069  -0.059  0.00  0.00    -0.492 OA
BRANCH  17  18
ATOM     18  C   UNL     1      -2.626  -2.642  -0.070  0.00  0.00    +0.229 C 
BRANCH  18  19
ATOM     19  C   UNL     1      -1.163  -2.202  -0.161  0.00  0.00    +0.041 C 
BRANCH  19  20
ATOM     20  C   UNL     1      -1.090  -0.674  -0.173  0.00  0.00    +0.003 C 
BRANCH  20  22
ATOM     21  C   UNL     1       0.446   1.294  -0.276  0.00  0.00    +0.004 C 
ATOM     22  C   UNL     1       0.373  -0.235  -0.264  0.00  0.00    -0.003 C 
ENDBRANCH  20  22
ENDBRANCH  19  20
ENDBRANCH  18  19
ENDBRANCH  17  18
ENDBRANCH  11  17
ENDBRANCH   1  16
BRANCH   9  23
ATOM     23  N   UNL     1      -3.333  -9.807  -2.331  0.00  0.00    -0.328 N 
ATOM     24  H   UNL     1      -3.577 -10.745  -2.290  0.00  0.00    +0.145 HD
ATOM     25  H   UNL     1      -3.129  -9.397  -3.186  0.00  0.00    +0.145 HD
ENDBRANCH   9  23
BRANCH  10  26
ATOM     26  C   UNL     1      -2.643  -7.189  -2.542  0.00  0.00    +0.101 C 
ATOM     27  N   UNL     1      -2.412  -6.739  -3.559  0.00  0.00    -0.191 NA
ENDBRANCH  10  26
BRANCH   5  28
ATOM     28  O   UNL     1      -2.587 -10.057   4.620  0.00  0.00    -0.423 OA
BRANCH  28  29
ATOM     29  C   UNL     1      -1.647 -11.013   4.681  0.00  0.00    +0.350 C 
ATOM     30  O   UNL     1      -0.826 -11.110   3.800  0.00  0.00    -0.247 OA
BRANCH  29  31
ATOM     31  C   UNL     1      -1.615 -11.965   5.849  0.00  0.00    +0.349 C 
BRANCH  31  32
ATOM     32  O   UNL     1      -0.531 -12.883   5.686  0.00  0.00    -0.481 OA
BRANCH  32  33
ATOM     33  C   UNL     1      -0.361 -13.816   6.659  0.00  0.00    +0.122 A 
ATOM     34  C   UNL     1      -1.222 -13.851   7.746  0.00  0.00    +0.046 A 
ATOM     35  C   UNL     1      -1.047 -14.800   8.734  0.00  0.00    +0.007 A 
ATOM     36  C   UNL     1      -0.014 -15.715   8.640  0.00  0.00    -0.047 A 
ATOM     37  C   UNL     1       0.845 -15.682   7.558  0.00  0.00    -0.044 A 
ATOM     38  C   UNL     1       0.671 -14.738   6.565  0.00  0.00    +0.049 A 
ATOM     39  C   UNL     1       1.970 -16.680   7.460  0.00  0.00    +0.044 C 
ATOM     40  C   UNL     1       0.174 -16.750   9.720  0.00  0.00    +0.044 C 
ENDBRANCH  32  33
ENDBRANCH  31  32
ENDBRANCH  29  31
ENDBRANCH  28  29
ENDBRANCH   5  28
TORSDOF 13
