REMARK  Name = ZINC12852365
REMARK  3 active torsions:
REMARK  status: ('A' for Active; 'I' for Inactive)
REMARK    1  A    between atoms: C_6  and  C_7
REMARK    2  A    between atoms: C_8  and  C_9
REMARK    3  A    between atoms: C_15  and  C_17
REMARK                            x       y       z     vdW  Elec       q    Type
REMARK                         _______ _______ _______ _____ _____    ______ ____
ROOT
ATOM      1  C   UNL     1      -1.124   2.240   0.020  0.00  0.00    +0.240 C 
ATOM      2  O   UNL     1      -1.020   3.453   0.025  0.00  0.00    -0.271 OA
ATOM      3  N   UNL     1      -0.018   1.470   0.010  0.00  0.00    -0.291 N 
ATOM      4  C   UNL     1       0.002  -0.004   0.002  0.00  0.00    +0.109 C 
ATOM      5  C   UNL     1       1.380  -0.385   0.599  0.00  0.00    +0.021 C 
ATOM      6  C   UNL     1       2.292   0.724   0.011  0.00  0.00    +0.029 C 
ATOM      7  C   UNL     1       1.368   1.960  -0.001  0.00  0.00    +0.107 C 
ENDROOT
BRANCH   7   8
ATOM      8  C   UNL     1       1.615   2.773  -1.246  0.00  0.00    -0.023 A 
ATOM      9  C   UNL     1       1.065   2.374  -2.450  0.00  0.00    +0.009 A 
ATOM     10  C   UNL     1       1.285   3.119  -3.593  0.00  0.00    +0.050 A 
ATOM     11  C   UNL     1       2.069   4.262  -3.537  0.00  0.00    +0.162 A 
ATOM     12  C   UNL     1       2.624   4.660  -2.328  0.00  0.00    +0.162 A 
ATOM     13  C   UNL     1       2.396   3.911  -1.183  0.00  0.00    +0.055 A 
ATOM     14  O   UNL     1       3.389   5.784  -2.249  0.00  0.00    -0.485 OA
ATOM     15  C   UNL     1       3.902   6.301  -3.482  0.00  0.00    +0.270 C 
ATOM     16  C   UNL     1       2.759   6.320  -4.507  0.00  0.00    +0.270 C 
ATOM     17  O   UNL     1       2.285   4.980  -4.673  0.00  0.00    -0.485 OA
ENDBRANCH   7   8
BRANCH   1  19
ATOM     18  C   UNL     1      -3.555   2.390   0.033  0.00  0.00    +0.013 C 
ATOM     19  C   UNL     1      -2.449   1.619   0.023  0.00  0.00    +0.068 C 
BRANCH  18  25
ATOM     20  C   UNL     1      -5.010   0.371   0.025  0.00  0.00    +0.009 A 
ATOM     21  C   UNL     1      -6.262  -0.207   0.033  0.00  0.00    +0.016 A 
ATOM     22  C   UNL     1      -7.396   0.588   0.044  0.00  0.00    +0.018 A 
ATOM     23  C   UNL     1      -7.282   1.969   0.050  0.00  0.00    +0.016 A 
ATOM     24  C   UNL     1      -6.037   2.561   0.047  0.00  0.00    +0.009 A 
ATOM     25  C   UNL     1      -4.888   1.765   0.037  0.00  0.00    -0.025 A 
ATOM     26 BR   UNL     1      -9.108  -0.215   0.049  0.00  0.00    -0.050 Br
ENDBRANCH  18  25
ENDBRANCH   1  19
TORSDOF 3
