REMARK  Name = ZINC64604225
REMARK  10 active torsions:
REMARK  status: ('A' for Active; 'I' for Inactive)
REMARK    1  A    between atoms: C_1  and  C_2
REMARK    2  A    between atoms: C_5  and  C_8
REMARK    3  A    between atoms: C_11  and  N_14
REMARK    4  A    between atoms: C_15  and  C_17
REMARK    5  A    between atoms: C_17  and  C_18
REMARK    6  A    between atoms: C_18  and  C_19
REMARK    7  A    between atoms: C_21  and  C_24
REMARK    8  A    between atoms: C_24  and  S_25
REMARK    9  A    between atoms: S_25  and  C_26
REMARK   10  A    between atoms: C_32  and  C_36
REMARK                            x       y       z     vdW  Elec       q    Type
REMARK                         _______ _______ _______ _____ _____    ______ ____
ROOT
ATOM      1  C   UNL     1       3.095 -10.801  -4.297  0.00  0.00    +0.228 A 
ATOM      2  N   UNL     1       4.292 -11.203  -3.969  0.00  0.00    -0.195 NA
ATOM      3  C   UNL     1       4.952 -11.615  -5.056  0.00  0.00    +0.182 A 
ATOM      4  N   UNL     1       4.179 -11.480  -6.096  0.00  0.00    -0.060 NA
ATOM      5  O   UNL     1       2.950 -10.952  -5.620  0.00  0.00    -0.338 OA
ENDROOT
BRANCH   1   6
ATOM      6  C   UNL     1       2.052 -10.266  -3.350  0.00  0.00    +0.108 C 
BRANCH   6   7
ATOM      7  C   UNL     1       2.198  -8.747  -3.236  0.00  0.00    +0.105 C 
BRANCH   7   9
ATOM      8  N   UNL     1       1.093  -6.890  -2.033  0.00  0.00    -0.285 N 
ATOM      9  C   UNL     1       1.155  -8.212  -2.289  0.00  0.00    +0.216 C 
ATOM     10  O   UNL     1       0.373  -8.970  -1.757  0.00  0.00    -0.276 OA
ATOM     11  H   UNL     1       1.719  -6.283  -2.458  0.00  0.00    +0.152 HD
BRANCH   8  15
ATOM     12  C   UNL     1       0.059  -4.249  -0.021  0.00  0.00    +0.056 C 
ATOM     13  C   UNL     1       0.076  -5.035   1.282  0.00  0.00    +0.128 C 
ATOM     14  S   UNL     1       0.540  -6.705   0.644  0.00  0.00    -0.109 S 
ATOM     15  C   UNL     1       0.079  -6.370  -1.112  0.00  0.00    +0.251 C 
ATOM     16  N   UNL     1       0.057  -4.893  -1.117  0.00  0.00    -0.254 NA
BRANCH  12  21
ATOM     17  C   UNL     1      -0.018   1.503   0.010  0.00  0.00    +0.044 C 
ATOM     18  C   UNL     1       0.002  -0.004   0.002  0.00  0.00    -0.050 A 
ATOM     19  C   UNL     1       0.006  -0.686  -1.202  0.00  0.00    +0.004 A 
ATOM     20  C   UNL     1       0.024  -2.065  -1.217  0.00  0.00    +0.010 A 
ATOM     21  C   UNL     1       0.040  -2.773  -0.013  0.00  0.00    -0.003 A 
ATOM     22  C   UNL     1       0.036  -2.079   1.198  0.00  0.00    +0.010 A 
ATOM     23  C   UNL     1       0.023  -0.699   1.198  0.00  0.00    +0.004 A 
ENDBRANCH  12  21
ENDBRANCH   8  15
ENDBRANCH   7   9
ENDBRANCH   6   7
ENDBRANCH   1   6
BRANCH   3  24
ATOM     24  C   UNL     1       6.362 -12.148  -5.076  0.00  0.00    +0.152 C 
BRANCH  24  25
ATOM     25  S   UNL     1       6.330 -13.947  -4.845  0.00  0.00    -0.107 S 
BRANCH  25  26
ATOM     26  C   UNL     1       8.079 -14.426  -4.893  0.00  0.00    +0.236 C 
ATOM     27  N   UNL     1       8.827 -13.709  -3.852  0.00  0.00    -0.355 N 
ATOM     28  C   UNL     1       9.736 -12.993  -4.447  0.00  0.00    +0.061 A 
ATOM     29  C   UNL     1      10.772 -12.078  -3.947  0.00  0.00    +0.028 A 
ATOM     30  C   UNL     1      11.592 -11.461  -4.822  0.00  0.00    +0.005 A 
ATOM     31  C   UNL     1      11.501 -11.653  -6.212  0.00  0.00    -0.048 A 
ATOM     32  C   UNL     1      10.587 -12.470  -6.774  0.00  0.00    +0.030 A 
ATOM     33  C   UNL     1       9.640 -13.197  -5.918  0.00  0.00    +0.061 A 
ATOM     34  N   UNL     1       8.675 -14.033  -6.176  0.00  0.00    -0.355 N 
ATOM     35  C   UNL     1      12.462 -10.917  -7.109  0.00  0.00    +0.044 C 
ATOM     36  H   UNL     1       8.671 -13.760  -2.895  0.00  0.00    +0.162 HD
ATOM     37  H   UNL     1       8.400 -14.340  -7.054  0.00  0.00    +0.162 HD
ENDBRANCH  25  26
ENDBRANCH  24  25
ENDBRANCH   3  24
TORSDOF 8
