REMARK  Name = ZINC44400082
REMARK  11 active torsions:
REMARK  status: ('A' for Active; 'I' for Inactive)
REMARK    1  A    between atoms: C_1  and  C_2
REMARK    2  A    between atoms: C_2  and  C_3
REMARK    3  A    between atoms: C_3  and  C_5
REMARK    4  A    between atoms: C_3  and  N_30
REMARK    5  A    between atoms: C_5  and  C_6
REMARK    6  A    between atoms: C_7  and  O_29
REMARK    7  A    between atoms: C_9  and  C_28
REMARK    8  A    between atoms: C_14  and  C_25
REMARK    9  A    between atoms: C_16  and  O_23
REMARK   10  A    between atoms: C_17  and  C_22
REMARK   11  A    between atoms: O_23  and  C_24
REMARK                            x       y       z     vdW  Elec       q    Type
REMARK                         _______ _______ _______ _____ _____    ______ ____
ROOT
ATOM      1  C   UNL     1       1.661  -2.496  -2.382  0.00  0.00    +0.036 A 
ATOM      2  C   UNL     1       1.033  -2.819  -3.579  0.00  0.00    +0.124 A 
ATOM      3  C   UNL     1       1.776  -3.262  -4.669  0.00  0.00    +0.050 A 
ATOM      4  C   UNL     1       3.142  -3.418  -4.562  0.00  0.00    -0.029 A 
ATOM      5  C   UNL     1       3.775  -3.118  -3.357  0.00  0.00    +0.105 A 
ATOM      6  C   UNL     1       3.033  -2.606  -2.280  0.00  0.00    +0.149 A 
ATOM      7  O   UNL     1       3.706  -2.174  -1.194  0.00  0.00    -0.450 OA
ATOM      8  C   UNL     1       4.447  -2.991  -0.415  0.00  0.00    +0.185 A 
ATOM      9  C   UNL     1       4.247  -2.861   0.977  0.00  0.00    +0.112 A 
ATOM     10  C   UNL     1       4.972  -3.646   1.874  0.00  0.00    +0.065 A 
ATOM     11  C   UNL     1       5.895  -4.555   1.393  0.00  0.00    +0.127 A 
ATOM     12  C   UNL     1       6.088  -4.684   0.027  0.00  0.00    +0.037 A 
ATOM     13  C   UNL     1       5.364  -3.913  -0.882  0.00  0.00    +0.181 A 
ATOM     14  O   UNL     1       5.617  -4.162  -2.194  0.00  0.00    -0.418 OA
ATOM     15  C   UNL     1       5.217  -3.342  -3.166  0.00  0.00    +0.348 C 
ATOM     16  O   UNL     1       6.032  -2.785  -3.874  0.00  0.00    -0.244 OA
ATOM     17  C   UNL     1       7.099  -5.678  -0.486  0.00  0.00    +0.051 C 
ATOM     18  C   UNL     1       3.944  -3.909  -5.739  0.00  0.00    +0.045 C 
ENDROOT
BRANCH   9  19
ATOM     19  C   UNL     1       3.264  -1.891   1.486  0.00  0.00    +0.390 C 
ATOM     20  O   UNL     1       3.087  -1.775   2.691  0.00  0.00    -0.240 OA
ATOM     21  O   UNL     1       2.625  -1.200   0.704  0.00  0.00    -0.240 OA
ENDBRANCH   9  19
BRANCH  11  22
ATOM     22  O   UNL     1       6.612  -5.321   2.258  0.00  0.00    -0.495 OA
ATOM     23  C   UNL     1       6.361  -5.134   3.652  0.00  0.00    +0.277 C 
ENDBRANCH  11  22
BRANCH   2  24
ATOM     24  O   UNL     1      -0.315  -2.702  -3.686  0.00  0.00    -0.506 OA
ATOM     25  H   UNL     1      -0.611  -1.833  -3.991  0.00  0.00    +0.292 HD
ENDBRANCH   2  24
BRANCH   1  26
ATOM     26  C   UNL     1       0.849  -2.021  -1.205  0.00  0.00    +0.026 C 
BRANCH  26  27
ATOM     27  C   UNL     1       0.718  -0.497  -1.257  0.00  0.00    -0.071 C 
BRANCH  27  28
ATOM     28  N   UNL     1      -0.057  -0.113  -2.444  0.00  0.00    +0.380 N 
ATOM     29  H   UNL     1      -0.975  -0.528  -2.395  0.00  0.00    -0.090 HD
ATOM     30  H   UNL     1      -0.143   0.892  -2.478  0.00  0.00    -0.090 HD
ATOM     31  H   UNL     1       0.415  -0.438  -3.274  0.00  0.00    -0.090 HD
ENDBRANCH  27  28
BRANCH  27  33
ATOM     32  C   UNL     1      -0.019   1.526   0.010  0.00  0.00    +0.002 C 
ATOM     33  C   UNL     1       0.002  -0.004   0.002  0.00  0.00    -0.019 C 
ENDBRANCH  27  33
ENDBRANCH  26  27
ENDBRANCH   1  26
TORSDOF 7
