REMARK  Name = ZINC41643622
REMARK  9 active torsions:
REMARK  status: ('A' for Active; 'I' for Inactive)
REMARK    1  A    between atoms: C_1  and  C_2
REMARK    2  A    between atoms: C_2  and  O_3
REMARK    3  A    between atoms: O_3  and  C_4
REMARK    4  A    between atoms: C_8  and  C_15
REMARK    5  A    between atoms: N_17  and  C_18
REMARK    6  A    between atoms: C_18  and  C_19
REMARK    7  A    between atoms: C_19  and  C_20
REMARK    8  A    between atoms: C_21  and  C_32
REMARK    9  A    between atoms: C_29  and  C_30
REMARK                            x       y       z     vdW  Elec       q    Type
REMARK                         _______ _______ _______ _____ _____    ______ ____
ROOT
ATOM      1  C   UNL     1       0.542  -6.950  -0.838  0.00  0.00    +0.245 C 
ATOM      2  O   UNL     1       0.569  -8.145  -1.054  0.00  0.00    -0.270 OA
ATOM      3  N   UNL     1       0.003  -6.483   0.305  0.00  0.00    -0.311 N 
ATOM      4  H   UNL     1      -0.086  -5.527   0.445  0.00  0.00    +0.149 HD
ENDROOT
BRANCH   1   9
ATOM      5  C   UNL     1       3.158  -7.368  -5.278  0.00  0.00    +0.124 A 
ATOM      6  C   UNL     1       2.646  -8.289  -4.365  0.00  0.00    +0.046 A 
ATOM      7  C   UNL     1       1.982  -7.861  -3.252  0.00  0.00    +0.016 A 
ATOM      8  C   UNL     1       1.814  -6.492  -3.026  0.00  0.00    +0.030 A 
ATOM      9  C   UNL     1       1.103  -6.003  -1.834  0.00  0.00    +0.054 A 
ATOM     10  C   UNL     1       0.974  -4.652  -1.671  0.00  0.00    +0.105 A 
ATOM     11  C   UNL     1       1.520  -3.776  -2.640  0.00  0.00    +0.338 A 
ATOM     12  O   UNL     1       1.400  -2.574  -2.486  0.00  0.00    -0.245 OA
ATOM     13  O   UNL     1       2.166  -4.235  -3.721  0.00  0.00    -0.422 OA
ATOM     14  C   UNL     1       2.329  -5.557  -3.942  0.00  0.00    +0.143 A 
ATOM     15  C   UNL     1       3.006  -6.008  -5.066  0.00  0.00    +0.092 A 
BRANCH   5  16
ATOM     16  O   UNL     1       3.817  -7.808  -6.381  0.00  0.00    -0.492 OA
BRANCH  16  18
ATOM     17  C   UNL     1       4.705  -9.525  -7.831  0.00  0.00    +0.048 C 
ATOM     18  C   UNL     1       3.939  -9.223  -6.542  0.00  0.00    +0.225 C 
ENDBRANCH  16  18
ENDBRANCH   5  16
ENDBRANCH   1   9
BRANCH   3  19
ATOM     19  C   UNL     1      -0.450  -7.420   1.337  0.00  0.00    +0.109 C 
BRANCH  19  20
ATOM     20  C   UNL     1      -1.017  -6.637   2.523  0.00  0.00    +0.056 C 
BRANCH  20  21
ATOM     21  C   UNL     1      -1.482  -7.600   3.585  0.00  0.00    -0.018 A 
ATOM     22  C   UNL     1      -2.707  -8.139   3.692  0.00  0.00    +0.017 A 
ATOM     23  N   UNL     1      -2.759  -8.967   4.780  0.00  0.00    -0.358 N 
ATOM     24  H   UNL     1      -3.539  -9.470   5.061  0.00  0.00    +0.166 HD
ATOM     25  C   UNL     1      -1.537  -8.981   5.416  0.00  0.00    +0.050 A 
ATOM     26  C   UNL     1      -0.682  -8.130   4.691  0.00  0.00    +0.005 A 
ATOM     27  C   UNL     1       0.639  -7.951   5.106  0.00  0.00    +0.030 A 
ATOM     28  C   UNL     1       1.098  -8.614   6.222  0.00  0.00    +0.042 A 
ATOM     29  C   UNL     1       0.255  -9.457   6.935  0.00  0.00    +0.025 A 
ATOM     30  C   UNL     1      -1.054  -9.637   6.543  0.00  0.00    -0.025 A 
ATOM     31  C   UNL     1      -1.955 -10.556   7.326  0.00  0.00    +0.046 C 
ATOM     32 CL   UNL     1       2.740  -8.396   6.741  0.00  0.00    -0.084 Cl
ATOM     33  C   UNL     1      -3.855  -7.872   2.752  0.00  0.00    +0.063 C 
ENDBRANCH  20  21
ENDBRANCH  19  20
ENDBRANCH   3  19
TORSDOF 6
