REMARK  Name = ZINC46234026
REMARK  10 active torsions:
REMARK  status: ('A' for Active; 'I' for Inactive)
REMARK    1  A    between atoms: C_1  and  C_2
REMARK    2  A    between atoms: C_6  and  O_9
REMARK    3  A    between atoms: C_7  and  C_8
REMARK    4  A    between atoms: O_9  and  C_10
REMARK    5  A    between atoms: C_10  and  C_12
REMARK    6  A    between atoms: C_10  and  C_13
REMARK    7  A    between atoms: N_15  and  N_16
REMARK    8  A    between atoms: N_19  and  C_20
REMARK    9  A    between atoms: C_20  and  C_21
REMARK   10  A    between atoms: C_21  and  C_22
REMARK                            x       y       z     vdW  Elec       q    Type
REMARK                         _______ _______ _______ _____ _____    ______ ____
ROOT
ATOM      1  N   UNL     1      -1.790  -6.526   4.670  0.00  0.00    -0.218 N 
ATOM      2  C   UNL     1      -2.007  -7.850   4.802  0.00  0.00    +0.316 C 
ATOM      3  O   UNL     1      -2.646  -8.269   5.747  0.00  0.00    -0.251 OA
ATOM      4  N   UNL     1      -1.516  -8.708   3.886  0.00  0.00    -0.298 N 
ATOM      5  H   UNL     1      -2.143  -5.908   5.328  0.00  0.00    +0.174 HD
ATOM      6  H   UNL     1      -1.005  -8.373   3.132  0.00  0.00    +0.150 HD
ENDROOT
BRANCH   1   9
ATOM      7  C   UNL     1      -0.835  -4.719   3.448  0.00  0.00    +0.270 C 
ATOM      8  O   UNL     1      -1.277  -3.947   4.272  0.00  0.00    -0.270 OA
ATOM      9  N   UNL     1      -1.053  -6.043   3.580  0.00  0.00    -0.230 N 
ATOM     10  H   UNL     1      -0.699  -6.660   2.922  0.00  0.00    +0.173 HD
BRANCH   7  11
ATOM     11  C   UNL     1      -0.043  -4.199   2.277  0.00  0.00    +0.257 C 
ATOM     12  C   UNL     1       1.363  -4.804   2.303  0.00  0.00    +0.062 C 
BRANCH  11  13
ATOM     13  O   UNL     1       0.050  -2.776   2.358  0.00  0.00    -0.480 OA
BRANCH  13  19
ATOM     14  C   UNL     1       0.424   1.474  -0.013  0.00  0.00    +0.044 C 
ATOM     15  C   UNL     1       0.438  -0.033  -0.000  0.00  0.00    -0.044 A 
ATOM     16  C   UNL     1       0.653  -0.732  -1.174  0.00  0.00    +0.004 A 
ATOM     17  C   UNL     1       0.667  -2.114  -1.165  0.00  0.00    +0.004 A 
ATOM     18  C   UNL     1       0.465  -2.801   0.016  0.00  0.00    +0.046 A 
ATOM     19  C   UNL     1       0.249  -2.102   1.195  0.00  0.00    +0.125 A 
ATOM     20  C   UNL     1       0.242  -0.715   1.185  0.00  0.00    -0.006 A 
ATOM     21  C   UNL     1       0.014   0.048   2.465  0.00  0.00    +0.048 C 
ENDBRANCH  13  19
ENDBRANCH  11  13
ENDBRANCH   7  11
ENDBRANCH   1   9
BRANCH   4  22
ATOM     22  C   UNL     1      -1.752 -10.147   4.030  0.00  0.00    +0.115 C 
BRANCH  22  23
ATOM     23  C   UNL     1      -1.093 -10.891   2.867  0.00  0.00    +0.114 C 
BRANCH  23  24
ATOM     24  C   UNL     1      -1.336 -12.370   3.015  0.00  0.00    +0.217 C 
ATOM     25  O   UNL     1      -1.974 -12.789   3.958  0.00  0.00    -0.276 OA
ATOM     26  N   UNL     1      -0.844 -13.229   2.099  0.00  0.00    -0.301 N 
ATOM     27  C   UNL     1      -0.064 -12.738   0.955  0.00  0.00    +0.108 C 
ATOM     28  C   UNL     1       1.273 -13.484   0.913  0.00  0.00    +0.019 C 
ATOM     29  C   UNL     1       1.010 -14.992   0.894  0.00  0.00    +0.003 C 
ATOM     30  C   UNL     1       0.270 -15.399   2.170  0.00  0.00    +0.019 C 
ATOM     31  C   UNL     1      -1.073 -14.674   2.230  0.00  0.00    +0.108 C 
ENDBRANCH  23  24
ENDBRANCH  22  23
ENDBRANCH   4  22
TORSDOF 7
