REMARK  Name = ZINC38684489
REMARK  15 active torsions:
REMARK  status: ('A' for Active; 'I' for Inactive)
REMARK    1  A    between atoms: C_1  and  C_2
REMARK    2  A    between atoms: C_2  and  C_3
REMARK    3  A    between atoms: C_3  and  O_4
REMARK    4  A    between atoms: O_4  and  C_5
REMARK    5  A    between atoms: C_9  and  C_11
REMARK    6  A    between atoms: C_16  and  O_25
REMARK    7  A    between atoms: C_20  and  N_24
REMARK    8  A    between atoms: C_21  and  C_22
REMARK    9  A    between atoms: O_25  and  C_26
REMARK   10  A    between atoms: C_26  and  C_28
REMARK   11  A    between atoms: C_28  and  C_30
REMARK   12  A    between atoms: C_28  and  O_31
REMARK   13  A    between atoms: O_31  and  C_32
REMARK   14  A    between atoms: C_35  and  C_38
REMARK   15  A    between atoms: C_38  and  C_39
REMARK                            x       y       z     vdW  Elec       q    Type
REMARK                         _______ _______ _______ _____ _____    ______ ____
ROOT
ATOM      1  C   UNL     1      -3.928  -5.961  -0.026  0.00  0.00    +0.098 C 
ATOM      2  C   UNL     1      -4.668  -6.465  -1.237  0.00  0.00    +0.008 A 
ATOM      3  C   UNL     1      -4.031  -6.481  -2.466  0.00  0.00    +0.012 A 
ATOM      4  C   UNL     1      -4.694  -6.940  -3.587  0.00  0.00    +0.047 A 
ATOM      5  C   UNL     1      -6.004  -7.387  -3.484  0.00  0.00    +0.135 A 
ATOM      6  C   UNL     1      -6.644  -7.373  -2.255  0.00  0.00    +0.093 A 
ATOM      7  C   UNL     1      -5.976  -6.910  -1.129  0.00  0.00    +0.138 A 
ATOM      8  O   UNL     1      -6.616  -6.903   0.066  0.00  0.00    -0.441 OA
ATOM      9  C   UNL     1      -5.908  -6.839   1.206  0.00  0.00    +0.199 C 
ATOM     10  C   UNL     1      -4.630  -6.400   1.228  0.00  0.00    +0.098 C 
ENDROOT
BRANCH   1  15
ATOM     11  C   UNL     1      -2.602  -2.424  -0.138  0.00  0.00    +0.121 A 
ATOM     12  C   UNL     1      -3.779  -1.690  -0.139  0.00  0.00    +0.045 A 
ATOM     13  C   UNL     1      -4.997  -2.340  -0.104  0.00  0.00    +0.004 A 
ATOM     14  C   UNL     1      -5.045  -3.721  -0.068  0.00  0.00    +0.005 A 
ATOM     15  C   UNL     1      -3.873  -4.455  -0.066  0.00  0.00    -0.031 A 
ATOM     16  C   UNL     1      -2.652  -3.810  -0.107  0.00  0.00    +0.050 A 
BRANCH  11  17
ATOM     17  O   UNL     1      -1.402  -1.787  -0.172  0.00  0.00    -0.492 OA
BRANCH  17  18
ATOM     18  C   UNL     1      -1.426  -0.359  -0.203  0.00  0.00    +0.229 C 
BRANCH  18  20
ATOM     19  C   UNL     1      -0.019   1.705  -0.272  0.00  0.00    +0.007 C 
ATOM     20  C   UNL     1       0.007   0.175  -0.239  0.00  0.00    +0.038 C 
ENDBRANCH  18  20
ENDBRANCH  17  18
ENDBRANCH  11  17
ENDBRANCH   1  15
BRANCH   9  21
ATOM     21  N   UNL     1      -6.500  -7.229   2.381  0.00  0.00    -0.328 N 
ATOM     22  H   UNL     1      -7.417  -7.545   2.381  0.00  0.00    +0.145 HD
ATOM     23  H   UNL     1      -6.001  -7.188   3.212  0.00  0.00    +0.145 HD
ENDBRANCH   9  21
BRANCH  10  24
ATOM     24  C   UNL     1      -3.930  -6.356   2.476  0.00  0.00    +0.101 C 
ATOM     25  N   UNL     1      -3.375  -6.320   3.466  0.00  0.00    -0.191 NA
ENDBRANCH  10  24
BRANCH   5  26
ATOM     26  O   UNL     1      -6.657  -7.839  -4.587  0.00  0.00    -0.423 OA
BRANCH  26  27
ATOM     27  C   UNL     1      -7.712  -7.134  -5.027  0.00  0.00    +0.353 C 
ATOM     28  O   UNL     1      -7.997  -6.083  -4.504  0.00  0.00    -0.246 OA
BRANCH  27  29
ATOM     29  C   UNL     1      -8.540  -7.654  -6.174  0.00  0.00    +0.279 C 
ATOM     30  C   UNL     1      -7.687  -7.691  -7.443  0.00  0.00    +0.064 C 
BRANCH  29  31
ATOM     31  O   UNL     1      -9.663  -6.795  -6.379  0.00  0.00    -0.478 OA
BRANCH  31  32
ATOM     32  C   UNL     1     -10.817  -7.376  -6.801  0.00  0.00    +0.122 A 
ATOM     33  C   UNL     1     -10.835  -8.723  -7.131  0.00  0.00    +0.046 A 
ATOM     34  C   UNL     1     -12.009  -9.312  -7.559  0.00  0.00    +0.007 A 
ATOM     35  C   UNL     1     -13.165  -8.560  -7.659  0.00  0.00    -0.047 A 
ATOM     36  C   UNL     1     -13.149  -7.217  -7.330  0.00  0.00    +0.007 A 
ATOM     37  C   UNL     1     -11.979  -6.625  -6.896  0.00  0.00    +0.046 A 
BRANCH  35  38
ATOM     38  C   UNL     1     -14.444  -9.205  -8.126  0.00  0.00    +0.032 C 
ATOM     39  C   UNL     1     -15.209  -9.754  -6.920  0.00  0.00    +0.009 C 
ENDBRANCH  35  38
ENDBRANCH  31  32
ENDBRANCH  29  31
ENDBRANCH  27  29
ENDBRANCH  26  27
ENDBRANCH   5  26
TORSDOF 12
