REMARK  Name = ZINC00673805
REMARK  5 active torsions:
REMARK  status: ('A' for Active; 'I' for Inactive)
REMARK    1  A    between atoms: C_3  and  N_8
REMARK    2  A    between atoms: C_5  and  O_7
REMARK    3  A    between atoms: C_9  and  C_11
REMARK    4  A    between atoms: C_16  and  C_27
REMARK    5  A    between atoms: C_19  and  C_22
REMARK                            x       y       z     vdW  Elec       q    Type
REMARK                         _______ _______ _______ _____ _____    ______ ____
ROOT
ATOM      1  C   UNL     1       4.829   4.225  -0.236  0.00  0.00    +0.167 A 
ATOM      2  C   UNL     1       4.955   5.630  -0.337  0.00  0.00    +0.112 A 
ATOM      3  C   UNL     1       6.269   5.915  -0.429  0.00  0.00    +0.137 A 
ATOM      4  N   UNL     1       6.964   4.740  -0.386  0.00  0.00    -0.237 N 
ATOM      5  N   UNL     1       6.042   3.701  -0.262  0.00  0.00    -0.163 NA
ATOM      6  C   UNL     1       8.425   4.657  -0.457  0.00  0.00    +0.215 C 
ATOM      7  C   UNL     1       9.018   6.024  -0.097  0.00  0.00    +0.063 C 
ATOM      8  C   UNL     1       8.332   7.122  -0.916  0.00  0.00    +0.111 C 
ATOM      9  N   UNL     1       6.902   7.157  -0.550  0.00  0.00    -0.321 N 
ATOM     10 CL   UNL     1       3.653   6.778  -0.341  0.00  0.00    -0.078 Cl
ATOM     11  H   UNL     1       6.430   7.991  -0.402  0.00  0.00    +0.148 HD
ENDROOT
BRANCH   8  12
ATOM     12  C   UNL     1       8.969   8.454  -0.611  0.00  0.00    +0.010 A 
ATOM     13  C   UNL     1       9.890   9.143  -1.327  0.00  0.00    +0.013 A 
ATOM     14  C   UNL     1      10.337  10.361  -0.849  0.00  0.00    +0.008 A 
ATOM     15  C   UNL     1       9.840  10.829   0.322  0.00  0.00    +0.045 A 
ATOM     16  S   UNL     1       8.699   9.536   0.783  0.00  0.00    -0.100 S 
ENDBRANCH   8  12
BRANCH   1  18
ATOM     17  N   UNL     1       3.583   2.131  -0.021  0.00  0.00    -0.280 N 
ATOM     18  C   UNL     1       3.563   3.475  -0.116  0.00  0.00    +0.270 C 
ATOM     19  O   UNL     1       2.503   4.070  -0.103  0.00  0.00    -0.268 OA
ATOM     20  H   UNL     1       4.430   1.661   0.036  0.00  0.00    +0.155 HD
BRANCH  17  23
ATOM     21  C   UNL     1       1.124  -0.543  -0.597  0.00  0.00    +0.005 A 
ATOM     22  C   UNL     1       2.310   0.166  -0.613  0.00  0.00    +0.023 A 
ATOM     23  C   UNL     1       2.383   1.413  -0.005  0.00  0.00    +0.037 A 
ATOM     24  C   UNL     1       1.263   1.946   0.619  0.00  0.00    +0.068 A 
ATOM     25  C   UNL     1       0.075   1.231   0.633  0.00  0.00    +0.119 A 
ATOM     26  C   UNL     1       0.008  -0.014   0.024  0.00  0.00    +0.045 A 
BRANCH  25  27
ATOM     27  O   UNL     1      -1.022   1.750   1.244  0.00  0.00    -0.507 OA
ATOM     28  H   UNL     1      -1.581   2.284   0.662  0.00  0.00    +0.292 HD
ENDBRANCH  25  27
ENDBRANCH  17  23
ENDBRANCH   1  18
BRANCH   6  29
ATOM     29  C   UNL     1       8.927   3.602   0.532  0.00  0.00    +0.412 C 
ATOM     30  F   UNL     1       8.374   2.358   0.207  0.00  0.00    -0.168 F 
ATOM     31  F   UNL     1      10.322   3.524   0.463  0.00  0.00    -0.168 F 
ATOM     32  F   UNL     1       8.543   3.959   1.829  0.00  0.00    -0.168 F 
ENDBRANCH   6  29
TORSDOF 5
