REMARK  Name = ZINC14083590
REMARK  8 active torsions:
REMARK  status: ('A' for Active; 'I' for Inactive)
REMARK    1  A    between atoms: C_1  and  C_2
REMARK    2  A    between atoms: C_3  and  C_33
REMARK    3  A    between atoms: C_4  and  C_30
REMARK    4  A    between atoms: C_5  and  S_9
REMARK    5  A    between atoms: C_7  and  C_8
REMARK    6  A    between atoms: S_9  and  C_10
REMARK    7  A    between atoms: C_10  and  C_11
REMARK    8  A    between atoms: C_22  and  C_24
REMARK                            x       y       z     vdW  Elec       q    Type
REMARK                         _______ _______ _______ _____ _____    ______ ____
ROOT
ATOM      1  C   UNL     1      -2.456  -0.282   0.312  0.00  0.00    +0.231 C 
ATOM      2  O   UNL     1      -3.517  -0.861   0.409  0.00  0.00    -0.274 OA
ATOM      3  N   UNL     1      -2.430   1.038   0.040  0.00  0.00    -0.257 N 
ATOM      4  C   UNL     1      -3.614   1.752  -0.217  0.00  0.00    +0.079 A 
ATOM      5  C   UNL     1      -4.844   1.181   0.066  0.00  0.00    +0.027 A 
ATOM      6  C   UNL     1      -6.006   1.882  -0.201  0.00  0.00    +0.002 A 
ATOM      7  C   UNL     1      -5.940   3.147  -0.755  0.00  0.00    +0.004 A 
ATOM      8  C   UNL     1      -4.715   3.719  -1.044  0.00  0.00    +0.047 A 
ATOM      9  C   UNL     1      -3.545   3.023  -0.778  0.00  0.00    +0.142 A 
ATOM     10  O   UNL     1      -2.344   3.595  -1.061  0.00  0.00    -0.488 OA
ATOM     11  C   UNL     1      -1.212   2.733  -1.200  0.00  0.00    +0.256 C 
ATOM     12  C   UNL     1      -1.161   1.785   0.007  0.00  0.00    +0.149 C 
ENDROOT
BRANCH  12  13
ATOM     13  C   UNL     1      -1.004   2.581   1.277  0.00  0.00    -0.023 A 
ATOM     14  C   UNL     1      -2.103   3.195   1.848  0.00  0.00    +0.005 A 
ATOM     15  C   UNL     1      -1.959   3.921   3.016  0.00  0.00    +0.000 A 
ATOM     16  C   UNL     1      -0.715   4.042   3.606  0.00  0.00    +0.000 A 
ATOM     17  C   UNL     1       0.385   3.433   3.031  0.00  0.00    +0.000 A 
ATOM     18  C   UNL     1       0.240   2.702   1.867  0.00  0.00    +0.005 A 
ENDBRANCH  12  13
BRANCH   1  19
ATOM     19  C   UNL     1      -1.166  -1.039   0.495  0.00  0.00    +0.172 C 
BRANCH  19  20
ATOM     20  S   UNL     1      -1.524  -2.801   0.700  0.00  0.00    -0.096 S 
BRANCH  20  25
ATOM     21  C   UNL     1       4.091  -4.824   1.333  0.00  0.00    +0.046 C 
ATOM     22  C   UNL     1       2.665  -4.362   1.179  0.00  0.00    -0.026 A 
ATOM     23  C   UNL     1       1.627  -5.276   1.229  0.00  0.00    -0.031 A 
ATOM     24  C   UNL     1       0.318  -4.803   1.087  0.00  0.00    +0.071 A 
ATOM     25  C   UNL     1       0.113  -3.426   0.889  0.00  0.00    +0.110 A 
ATOM     26  N   UNL     1       1.144  -2.595   0.849  0.00  0.00    -0.245 NA
ATOM     27  C   UNL     1       2.385  -3.021   0.986  0.00  0.00    +0.043 A 
ATOM     28  C   UNL     1       3.518  -2.029   0.933  0.00  0.00    +0.066 C 
ATOM     29  C   UNL     1       1.900  -6.743   1.437  0.00  0.00    +0.045 C 
BRANCH  24  30
ATOM     30  C   UNL     1      -0.825  -5.732   1.138  0.00  0.00    +0.244 C 
ATOM     31  O   UNL     1      -1.230  -6.255   0.118  0.00  0.00    -0.270 OA
ATOM     32  N   UNL     1      -1.422  -6.002   2.316  0.00  0.00    -0.325 N 
ATOM     33  H   UNL     1      -1.099  -5.585   3.130  0.00  0.00    +0.145 HD
ATOM     34  H   UNL     1      -2.174  -6.613   2.350  0.00  0.00    +0.145 HD
ENDBRANCH  24  30
ENDBRANCH  20  25
ENDBRANCH  19  20
ENDBRANCH   1  19
TORSDOF 5
