REMARK  Name = ZINC39673884
REMARK  8 active torsions:
REMARK  status: ('A' for Active; 'I' for Inactive)
REMARK    1  A    between atoms: C_1  and  C_2
REMARK    2  A    between atoms: C_2  and  C_3
REMARK    3  A    between atoms: C_3  and  C_4
REMARK    4  A    between atoms: C_4  and  C_6
REMARK    5  A    between atoms: C_4  and  N_7
REMARK    6  A    between atoms: C_8  and  C_10
REMARK    7  A    between atoms: C_21  and  C_23
REMARK    8  A    between atoms: C_24  and  C_28
REMARK                            x       y       z     vdW  Elec       q    Type
REMARK                         _______ _______ _______ _____ _____    ______ ____
ROOT
ATOM      1  C   UNL     1       2.158  -4.224   1.512  0.00  0.00    +0.100 C 
ATOM      2  C   UNL     1       2.040  -3.279   2.729  0.00  0.00    +0.121 C 
ATOM      3  N   UNL     1       0.965  -3.870   3.560  0.00  0.00    -0.296 N 
ATOM      4  C   UNL     1       1.192  -5.333   3.470  0.00  0.00    +0.115 C 
ATOM      5  C   UNL     1       1.604  -5.572   2.004  0.00  0.00    -0.004 C 
ATOM      6  C   UNL     1       2.684  -6.647   1.927  0.00  0.00    -0.010 C 
ATOM      7  C   UNL     1       2.093  -7.990   2.366  0.00  0.00    -0.082 C 
ATOM      8  N   UNL     1       0.965  -8.338   1.494  0.00  0.00    +0.379 N 
ATOM      9  C   UNL     1      -0.108  -7.348   1.644  0.00  0.00    -0.082 C 
ATOM     10  C   UNL     1       0.389  -5.978   1.175  0.00  0.00    -0.010 C 
ATOM     11  C   UNL     1      -0.001  -3.225   4.243  0.00  0.00    +0.254 C 
ATOM     12  O   UNL     1      -0.119  -2.018   4.136  0.00  0.00    -0.269 OA
ATOM     13  H   UNL     1       1.275  -8.353   0.534  0.00  0.00    -0.086 HD
ATOM     14  H   UNL     1       0.616  -9.251   1.746  0.00  0.00    -0.086 HD
ENDROOT
BRANCH  11  15
ATOM     15  C   UNL     1      -0.909  -3.976   5.114  0.00  0.00    +0.077 A 
ATOM     16  C   UNL     1      -2.021  -3.528   5.812  0.00  0.00    -0.031 A 
ATOM     17  C   UNL     1      -2.682  -4.477   6.554  0.00  0.00    +0.011 A 
ATOM     18  C   UNL     1      -2.219  -5.752   6.557  0.00  0.00    +0.046 A 
ATOM     19  S   UNL     1      -0.878  -5.705   5.547  0.00  0.00    -0.092 S 
ATOM     20  C   UNL     1      -2.475  -2.092   5.760  0.00  0.00    +0.045 C 
ENDBRANCH  11  15
BRANCH   1  22
ATOM     21  N   UNL     1       1.715  -3.950  -0.906  0.00  0.00    -0.312 N 
ATOM     22  C   UNL     1       1.333  -3.705   0.363  0.00  0.00    +0.218 C 
ATOM     23  O   UNL     1       0.324  -3.067   0.580  0.00  0.00    -0.275 OA
ATOM     24  H   UNL     1       2.522  -4.460  -1.079  0.00  0.00    +0.149 HD
BRANCH  21  25
ATOM     25  C   UNL     1       0.913  -3.446  -2.023  0.00  0.00    +0.070 C 
ATOM     26  C   UNL     1      -0.215  -4.434  -2.327  0.00  0.00    +0.028 C 
BRANCH  25  27
ATOM     27  C   UNL     1       1.801  -3.289  -3.259  0.00  0.00    +0.022 C 
BRANCH  27  29
ATOM     28  C   UNL     1       3.742  -2.054  -4.233  0.00  0.00    +0.004 C 
ATOM     29  C   UNL     1       2.853  -2.210  -2.997  0.00  0.00    -0.002 C 
ENDBRANCH  27  29
ENDBRANCH  25  27
ENDBRANCH  21  25
ENDBRANCH   1  22
TORSDOF 5
