REMARK  Name = ZINC15224907
REMARK  2 active torsions:
REMARK  status: ('A' for Active; 'I' for Inactive)
REMARK    1  A    between atoms: C_13  and  C_14
REMARK    2  A    between atoms: N_18  and  C_19
REMARK                            x       y       z     vdW  Elec       q    Type
REMARK                         _______ _______ _______ _____ _____    ______ ____
ROOT
ATOM      1  C   UNL     1      -5.751   6.111  -1.833  0.00  0.00    +0.002 A 
ATOM      2  C   UNL     1      -5.498   4.748  -1.788  0.00  0.00    +0.002 A 
ATOM      3  C   UNL     1      -4.221   4.282  -1.544  0.00  0.00    +0.028 A 
ATOM      4  C   UNL     1      -3.189   5.184  -1.343  0.00  0.00    +0.077 A 
ATOM      5  C   UNL     1      -3.437   6.562  -1.387  0.00  0.00    +0.091 A 
ATOM      6  C   UNL     1      -4.735   7.019  -1.635  0.00  0.00    +0.030 A 
ATOM      7  N   UNL     1      -2.255   7.190  -1.157  0.00  0.00    -0.221 NA
ATOM      8  C   UNL     1      -1.321   6.303  -0.980  0.00  0.00    +0.182 A 
ATOM      9  N   UNL     1      -1.817   5.022  -1.079  0.00  0.00    -0.253 N 
ATOM     10  C   UNL     1      -0.966   3.999  -0.918  0.00  0.00    +0.272 A 
ATOM     11  O   UNL     1      -1.362   2.850  -0.992  0.00  0.00    -0.266 OA
ATOM     12  C   UNL     1       0.404   4.272  -0.654  0.00  0.00    +0.082 A 
ATOM     13  C   UNL     1       1.436   3.403  -0.457  0.00  0.00    +0.046 C 
ATOM     14  S   UNL     1       0.410   6.059  -0.647  0.00  0.00    -0.046 S 
ENDROOT
BRANCH  13  15
ATOM     15  C   UNL     1       2.756   3.892  -0.321  0.00  0.00    +0.048 A 
ATOM     16  C   UNL     1       3.134   5.222  -0.256  0.00  0.00    +0.027 A 
ATOM     17  C   UNL     1       4.525   5.248  -0.120  0.00  0.00    +0.020 A 
ATOM     18  C   UNL     1       4.969   3.968  -0.113  0.00  0.00    +0.092 A 
ATOM     19  N   UNL     1       3.903   3.131  -0.235  0.00  0.00    -0.316 N 
BRANCH  19  20
ATOM     20  C   UNL     1       3.961   1.732  -0.267  0.00  0.00    +0.048 A 
ATOM     21  C   UNL     1       4.755   1.090  -1.209  0.00  0.00    +0.026 A 
ATOM     22  C   UNL     1       4.810  -0.289  -1.239  0.00  0.00    +0.003 A 
ATOM     23  C   UNL     1       4.077  -1.032  -0.332  0.00  0.00    +0.015 A 
ATOM     24  C   UNL     1       3.286  -0.396   0.608  0.00  0.00    +0.020 A 
ATOM     25  C   UNL     1       3.230   0.984   0.646  0.00  0.00    +0.041 A 
ATOM     26 BR   UNL     1       2.286  -1.417   1.847  0.00  0.00    -0.050 Br
ENDBRANCH  19  20
ENDBRANCH  13  15
TORSDOF 2
