REMARK  Name = ZINC56354303
REMARK  10 active torsions:
REMARK  status: ('A' for Active; 'I' for Inactive)
REMARK    1  A    between atoms: C_1  and  C_2
REMARK    2  A    between atoms: C_2  and  C_3
REMARK    3  A    between atoms: C_3  and  N_4
REMARK    4  A    between atoms: N_7  and  C_8
REMARK    5  A    between atoms: C_8  and  C_9
REMARK    6  A    between atoms: C_8  and  C_10
REMARK    7  A    between atoms: C_8  and  C_11
REMARK    8  A    between atoms: N_13  and  C_14
REMARK    9  A    between atoms: C_14  and  C_16
REMARK   10  A    between atoms: C_14  and  C_17
REMARK                            x       y       z     vdW  Elec       q    Type
REMARK                         _______ _______ _______ _____ _____    ______ ____
ROOT
ATOM      1  C   UNL     1       1.858  -6.173  -3.169  0.00  0.00    +0.236 C 
ATOM      2  O   UNL     1       1.705  -6.923  -4.110  0.00  0.00    -0.273 OA
ATOM      3  N   UNL     1       1.925  -6.667  -1.917  0.00  0.00    -0.307 N 
ATOM      4  H   UNL     1       2.047  -6.067  -1.165  0.00  0.00    +0.149 HD
ENDROOT
BRANCH   1   5
ATOM      5  C   UNL     1       1.973  -4.688  -3.401  0.00  0.00    +0.106 C 
ATOM      6  C   UNL     1       1.275  -4.321  -4.712  0.00  0.00    +0.041 C 
ATOM      7  C   UNL     1       3.450  -4.298  -3.483  0.00  0.00    +0.041 C 
BRANCH   5  11
ATOM      8  N   UNL     1       0.738  -1.962  -1.265  0.00  0.00    -0.299 N 
ATOM      9  C   UNL     1       1.321  -2.623  -2.285  0.00  0.00    +0.300 C 
ATOM     10  O   UNL     1       1.831  -2.003  -3.198  0.00  0.00    -0.253 OA
ATOM     11  N   UNL     1       1.339  -3.970  -2.292  0.00  0.00    -0.286 N 
ATOM     12  H   UNL     1       0.332  -2.457  -0.536  0.00  0.00    +0.150 HD
ATOM     13  H   UNL     1       0.933  -4.465  -1.563  0.00  0.00    +0.151 HD
BRANCH   8  14
ATOM     14  C   UNL     1       0.718  -0.497  -1.257  0.00  0.00    +0.105 C 
BRANCH  14  16
ATOM     15  C   UNL     1      -0.019   1.526   0.010  0.00  0.00    +0.005 C 
ATOM     16  C   UNL     1       0.002  -0.004   0.002  0.00  0.00    +0.015 C 
ENDBRANCH  14  16
ENDBRANCH   8  14
ENDBRANCH   5  11
ENDBRANCH   1   5
BRANCH   3  17
ATOM     17  C   UNL     1       1.812  -8.110  -1.692  0.00  0.00    +0.100 C 
ATOM     18  C   UNL     1       0.335  -8.500  -1.610  0.00  0.00    +0.033 C 
BRANCH  17  19
ATOM     19  C   UNL     1       2.500  -8.472  -0.401  0.00  0.00    -0.026 A 
ATOM     20  C   UNL     1       2.374  -7.649   0.703  0.00  0.00    +0.008 A 
ATOM     21  C   UNL     1       3.004  -7.979   1.888  0.00  0.00    +0.040 A 
ATOM     22  C   UNL     1       3.761  -9.135   1.970  0.00  0.00    +0.142 A 
ATOM     23  C   UNL     1       3.887  -9.960   0.864  0.00  0.00    +0.076 A 
ATOM     24  C   UNL     1       3.252  -9.629  -0.320  0.00  0.00    +0.028 A 
ATOM     25 CL   UNL     1       4.837 -11.409   0.964  0.00  0.00    -0.081 Cl
ATOM     26  F   UNL     1       4.378  -9.459   3.128  0.00  0.00    -0.204 F 
ENDBRANCH  17  19
ENDBRANCH   3  17
TORSDOF 6
