REMARK  Name = ZINC09137336
REMARK  6 active torsions:
REMARK  status: ('A' for Active; 'I' for Inactive)
REMARK    1  A    between atoms: C_1  and  N_53
REMARK    2  A    between atoms: C_3  and  C_28
REMARK    3  A    between atoms: C_5  and  C_21
REMARK    4  A    between atoms: C_12  and  C_17
REMARK    5  A    between atoms: C_21  and  C_23
REMARK    6  A    between atoms: C_32  and  N_34
REMARK                            x       y       z     vdW  Elec       q    Type
REMARK                         _______ _______ _______ _____ _____    ______ ____
ROOT
ATOM      1  C   UNL     1       5.848   2.084   1.343  0.00  0.00    -0.094 C 
ATOM      2  C   UNL     1       3.494   1.472   1.177  0.00  0.00    -0.068 C 
ATOM      3  C   UNL     1       2.574   1.000   0.022  0.00  0.00    +0.013 C 
ATOM      4  C   UNL     1       3.335   1.464  -1.244  0.00  0.00    +0.071 C 
ATOM      5  C   UNL     1       4.790   1.627  -0.790  0.00  0.00    +0.051 C 
ATOM      6  C   UNL     1       5.272   3.036  -1.009  0.00  0.00    -0.027 A 
ATOM      7  C   UNL     1       4.854   4.261  -0.540  0.00  0.00    +0.004 A 
ATOM      8  C   UNL     1       5.514   5.413  -0.929  0.00  0.00    +0.001 A 
ATOM      9  C   UNL     1       6.595   5.330  -1.789  0.00  0.00    +0.014 A 
ATOM     10  C   UNL     1       7.017   4.104  -2.261  0.00  0.00    +0.076 A 
ATOM     11  C   UNL     1       6.357   2.940  -1.875  0.00  0.00    +0.047 A 
ATOM     12  N   UNL     1       6.588   1.605  -2.212  0.00  0.00    -0.286 N 
ATOM     13  C   UNL     1       5.713   0.771  -1.619  0.00  0.00    +0.212 C 
ATOM     14  O   UNL     1       5.675  -0.436  -1.730  0.00  0.00    -0.277 OA
ATOM     15  H   UNL     1       7.298   1.312  -2.805  0.00  0.00    +0.155 HD
ATOM     16  N   UNL     1       4.837   1.252   0.620  0.00  0.00    +0.391 N 
ATOM     17  H   UNL     1       5.090   0.262   0.707  0.00  0.00    -0.080 HD
ENDROOT
BRANCH   3  18
ATOM     18  C   UNL     1       1.226   1.667   0.107  0.00  0.00    -0.043 A 
ATOM     19  C   UNL     1       1.137   3.047   0.124  0.00  0.00    +0.004 A 
ATOM     20  C   UNL     1      -0.100   3.659   0.202  0.00  0.00    +0.002 A 
ATOM     21  C   UNL     1      -1.248   2.891   0.264  0.00  0.00    +0.033 A 
ATOM     22  C   UNL     1      -1.160   1.512   0.242  0.00  0.00    +0.126 A 
ATOM     23  C   UNL     1       0.078   0.900   0.169  0.00  0.00    +0.036 A 
BRANCH  22  24
ATOM     24  N   UNL     1      -2.389   0.690   0.302  0.00  0.00    +0.056 N 
ATOM     25  O   UNL     1      -2.311  -0.525   0.287  0.00  0.00    -0.126 OA
ATOM     26  O   UNL     1      -3.480   1.229   0.366  0.00  0.00    -0.126 OA
ENDBRANCH  22  24
ENDBRANCH   3  18
BRANCH  10  27
ATOM     27  C   UNL     1       8.196   4.025  -3.196  0.00  0.00    +0.419 C 
ATOM     28  F   UNL     1       8.688   5.312  -3.436  0.00  0.00    -0.166 F 
ATOM     29  F   UNL     1       9.200   3.242  -2.615  0.00  0.00    -0.166 F 
ATOM     30  F   UNL     1       7.794   3.446  -4.405  0.00  0.00    -0.166 F 
ENDBRANCH  10  27
BRANCH   4  31
ATOM     31  C   UNL     1       3.237   0.421  -2.327  0.00  0.00    +0.201 C 
ATOM     32  O   UNL     1       3.062  -0.744  -2.033  0.00  0.00    -0.289 OA
BRANCH  31  33
ATOM     33  C   UNL     1       3.350   0.799  -3.684  0.00  0.00    +0.170 A 
ATOM     34  C   UNL     1       3.280  -0.048  -4.773  0.00  0.00    +0.053 A 
ATOM     35  C   UNL     1       3.440   0.753  -5.911  0.00  0.00    +0.042 A 
ATOM     36  C   UNL     1       3.599   2.028  -5.485  0.00  0.00    +0.196 A 
ATOM     37  O   UNL     1       3.539   2.052  -4.148  0.00  0.00    -0.460 OA
ENDBRANCH  31  33
ENDBRANCH   4  31
TORSDOF 5
