REMARK  Name = ZINC15861782
REMARK  4 active torsions:
REMARK  status: ('A' for Active; 'I' for Inactive)
REMARK    1  A    between atoms: C_3  and  N_9
REMARK    2  A    between atoms: C_6  and  C_7
REMARK    3  A    between atoms: N_11  and  C_12
REMARK    4  A    between atoms: C_18  and  N_28
REMARK                            x       y       z     vdW  Elec       q    Type
REMARK                         _______ _______ _______ _____ _____    ______ ____
ROOT
ATOM      1  N   UNL     1       3.716   2.080  -1.466  0.00  0.00    -0.254 N 
ATOM      2  C   UNL     1       4.703   1.508  -0.707  0.00  0.00    +0.098 C 
ATOM      3  N   UNL     1       4.597   0.405  -0.042  0.00  0.00    -0.372 N 
ATOM      4  C   UNL     1       5.939   2.380  -0.776  0.00  0.00    +0.131 C 
ATOM      5  C   UNL     1       5.511   3.541  -1.690  0.00  0.00    +0.038 C 
ATOM      6  C   UNL     1       4.085   3.224  -2.060  0.00  0.00    +0.069 C 
ATOM      7  S   UNL     1       3.156   4.114  -3.010  0.00  0.00    -0.039 S 
ATOM      8  C   UNL     1       5.594   4.863  -0.934  0.00  0.00    +0.015 C 
ATOM      9  C   UNL     1       7.047   5.135  -0.537  0.00  0.00    +0.001 C 
ATOM     10  C   UNL     1       7.915   5.194  -1.796  0.00  0.00    +0.000 C 
ATOM     11  C   UNL     1       7.839   3.855  -2.533  0.00  0.00    +0.001 C 
ATOM     12  C   UNL     1       6.389   3.578  -2.937  0.00  0.00    +0.015 C 
ATOM     13  H   UNL     1       3.720   0.041   0.158  0.00  0.00    +0.161 HD
ENDROOT
BRANCH   1  16
ATOM     14  C   UNL     1       0.949   0.050  -2.776  0.00  0.00    +0.021 A 
ATOM     15  C   UNL     1       2.201   0.604  -2.629  0.00  0.00    +0.025 A 
ATOM     16  C   UNL     1       2.444   1.521  -1.612  0.00  0.00    +0.040 A 
ATOM     17  C   UNL     1       1.423   1.881  -0.739  0.00  0.00    +0.025 A 
ATOM     18  C   UNL     1       0.168   1.332  -0.879  0.00  0.00    +0.021 A 
ATOM     19  C   UNL     1      -0.079   0.410  -1.900  0.00  0.00    +0.052 A 
BRANCH  19  20
ATOM     20  C   UNL     1      -1.382  -0.164  -2.049  0.00  0.00    +0.099 C 
ATOM     21  N   UNL     1      -2.416  -0.619  -2.168  0.00  0.00    -0.191 NA
ENDBRANCH  19  20
ENDBRANCH   1  16
BRANCH   3  22
ATOM     22  C   UNL     1       5.801  -0.295   0.411  0.00  0.00    +0.080 C 
ATOM     23  C   UNL     1       5.755  -0.459   1.932  0.00  0.00    +0.024 C 
ATOM     24  C   UNL     1       7.012  -1.190   2.405  0.00  0.00    +0.002 C 
ATOM     25  C   UNL     1       7.078  -2.570   1.746  0.00  0.00    +0.000 C 
ATOM     26  C   UNL     1       7.125  -2.406   0.226  0.00  0.00    +0.002 C 
ATOM     27  C   UNL     1       5.867  -1.675  -0.248  0.00  0.00    +0.024 C 
ENDBRANCH   3  22
BRANCH   4  28
ATOM     28  N   UNL     1       6.297   2.876   0.560  0.00  0.00    -0.292 NA
ATOM     29  C   UNL     1       7.404   2.097   1.130  0.00  0.00    +0.085 C 
ATOM     30  C   UNL     1       7.846   2.729   2.452  0.00  0.00    +0.015 C 
ATOM     31  C   UNL     1       6.661   2.753   3.422  0.00  0.00    +0.002 C 
ATOM     32  C   UNL     1       5.505   3.529   2.784  0.00  0.00    +0.015 C 
ATOM     33  C   UNL     1       5.131   2.874   1.452  0.00  0.00    +0.085 C 
ENDBRANCH   4  28
TORSDOF 4
