REMARK  Name = ZINC23865525
REMARK  8 active torsions:
REMARK  status: ('A' for Active; 'I' for Inactive)
REMARK    1  A    between atoms: C_1  and  C_2
REMARK    2  A    between atoms: C_2  and  N_3
REMARK    3  A    between atoms: C_14  and  N_16
REMARK    4  A    between atoms: N_16  and  C_17
REMARK    5  A    between atoms: C_17  and  C_19
REMARK    6  A    between atoms: C_17  and  C_20
REMARK    7  A    between atoms: C_26  and  C_32
REMARK    8  A    between atoms: C_27  and  C_31
REMARK                            x       y       z     vdW  Elec       q    Type
REMARK                         _______ _______ _______ _____ _____    ______ ____
ROOT
ATOM      1  N   UNL     1      -5.013  -1.815  -3.964  0.00  0.00    -0.334 N 
ATOM      2  H   UNL     1      -5.883  -2.139  -3.683  0.00  0.00    +0.147 HD
ENDROOT
BRANCH   1  14
ATOM      3  N   UNL     1      -1.372  -0.511   0.012  0.00  0.00    -0.340 N 
ATOM      4  C   UNL     1      -2.106  -0.785   1.153  0.00  0.00    +0.050 A 
ATOM      5  C   UNL     1      -1.806  -0.678   2.508  0.00  0.00    +0.026 A 
ATOM      6  C   UNL     1      -2.747  -1.028   3.452  0.00  0.00    +0.002 A 
ATOM      7  C   UNL     1      -3.996  -1.488   3.066  0.00  0.00    +0.001 A 
ATOM      8  C   UNL     1      -4.312  -1.601   1.730  0.00  0.00    +0.010 A 
ATOM      9  C   UNL     1      -3.370  -1.251   0.764  0.00  0.00    +0.008 A 
ATOM     10  C   UNL     1      -3.383  -1.251  -0.710  0.00  0.00    +0.009 A 
ATOM     11  C   UNL     1      -2.127  -0.779  -1.119  0.00  0.00    +0.050 A 
ATOM     12  C   UNL     1      -1.849  -0.664  -2.477  0.00  0.00    +0.028 A 
ATOM     13  C   UNL     1      -2.803  -1.007  -3.410  0.00  0.00    +0.025 A 
ATOM     14  C   UNL     1      -4.052  -1.471  -3.006  0.00  0.00    +0.028 A 
ATOM     15  C   UNL     1      -4.341  -1.601  -1.659  0.00  0.00    +0.033 A 
BRANCH   3  17
ATOM     16  C   UNL     1      -0.019   1.526   0.010  0.00  0.00    +0.027 C 
ATOM     17  C   UNL     1       0.002  -0.004   0.002  0.00  0.00    +0.119 C 
ENDBRANCH   3  17
ENDBRANCH   1  14
BRANCH   1  18
ATOM     18  C   UNL     1      -4.705  -1.688  -5.390  0.00  0.00    +0.133 C 
ATOM     19  C   UNL     1      -4.979  -0.253  -5.845  0.00  0.00    +0.036 C 
BRANCH  18  20
ATOM     20  C   UNL     1      -5.569  -2.638  -6.178  0.00  0.00    +0.131 A 
ATOM     21  N   UNL     1      -5.518  -2.618  -7.535  0.00  0.00    -0.309 N 
ATOM     22  H   UNL     1      -4.925  -1.992  -7.978  0.00  0.00    +0.170 HD
ATOM     23  C   UNL     1      -6.272  -3.450  -8.277  0.00  0.00    +0.260 A 
ATOM     24  O   UNL     1      -6.213  -3.420  -9.494  0.00  0.00    -0.267 OA
ATOM     25  C   UNL     1      -7.145  -4.372  -7.613  0.00  0.00    +0.075 A 
ATOM     26  C   UNL     1      -8.046  -5.358  -8.180  0.00  0.00    -0.026 A 
ATOM     27  C   UNL     1      -8.780  -6.126  -7.358  0.00  0.00    -0.008 A 
ATOM     28  S   UNL     1      -8.300  -5.566  -5.734  0.00  0.00    -0.073 S 
ATOM     29  C   UNL     1      -7.130  -4.319  -6.207  0.00  0.00    +0.116 A 
ATOM     30  N   UNL     1      -6.351  -3.471  -5.544  0.00  0.00    -0.225 NA
ATOM     31  C   UNL     1      -9.770  -7.202  -7.721  0.00  0.00    +0.052 C 
ATOM     32  C   UNL     1      -8.159  -5.518  -9.674  0.00  0.00    +0.045 C 
ENDBRANCH  18  20
ENDBRANCH   1  18
TORSDOF 4
