REMARK  Name = ZINC13521674
REMARK  9 active torsions:
REMARK  status: ('A' for Active; 'I' for Inactive)
REMARK    1  A    between atoms: C_1  and  C_2
REMARK    2  A    between atoms: C_4  and  O_31
REMARK    3  A    between atoms: C_8  and  C_21
REMARK    4  A    between atoms: C_14  and  C_19
REMARK    5  A    between atoms: C_14  and  C_20
REMARK    6  A    between atoms: C_24  and  O_29
REMARK    7  A    between atoms: C_25  and  O_27
REMARK    8  A    between atoms: O_27  and  C_28
REMARK    9  A    between atoms: O_29  and  C_30
REMARK                            x       y       z     vdW  Elec       q    Type
REMARK                         _______ _______ _______ _____ _____    ______ ____
ROOT
ATOM      1  C   UNL     1      -0.018   1.504   0.010  0.00  0.00    +0.044 C 
ATOM      2  C   UNL     1       0.002  -0.004   0.002  0.00  0.00    -0.040 A 
ATOM      3  C   UNL     1       0.009  -0.636  -1.231  0.00  0.00    +0.049 A 
ATOM      4  C   UNL     1      -0.007  -2.018  -1.314  0.00  0.00    +0.121 A 
ATOM      5  C   UNL     1      -0.049  -2.766  -0.149  0.00  0.00    +0.091 A 
ATOM      6  C   UNL     1      -0.045  -2.129   1.082  0.00  0.00    +0.131 A 
ATOM      7  C   UNL     1       0.023  -0.745   1.173  0.00  0.00    +0.005 A 
ATOM      8  C   UNL     1       0.121  -0.060   2.507  0.00  0.00    +0.058 C 
ATOM      9  C   UNL     1       0.016  -1.030   3.687  0.00  0.00    +0.081 C 
ATOM     10  C   UNL     1      -0.790  -2.268   3.318  0.00  0.00    +0.180 C 
ATOM     11  O   UNL     1      -0.133  -2.893   2.205  0.00  0.00    -0.468 OA
ATOM     12  C   UNL     1      -0.846  -3.274   4.465  0.00  0.00    +0.096 C 
ATOM     13  C   UNL     1      -1.654  -2.760   5.651  0.00  0.00    +0.040 C 
ATOM     14  N   UNL     1      -2.800  -1.966   5.224  0.00  0.00    -0.362 N 
ATOM     15  C   UNL     1      -3.067  -1.660   3.930  0.00  0.00    +0.142 C 
ATOM     16  N   UNL     1      -2.153  -1.889   2.940  0.00  0.00    -0.288 N 
ATOM     17  S   UNL     1      -4.536  -0.991   3.539  0.00  0.00    -0.016 SA
ATOM     18  C   UNL     1      -2.197  -3.981   6.420  0.00  0.00    +0.034 C 
ATOM     19  C   UNL     1      -0.774  -1.960   6.607  0.00  0.00    +0.034 C 
ATOM     20  H   UNL     1      -2.405  -1.801   2.007  0.00  0.00    +0.152 HD
ATOM     21  H   UNL     1      -3.408  -1.635   5.908  0.00  0.00    +0.162 HD
ENDROOT
BRANCH   8  22
ATOM     22  C   UNL     1       1.462   0.617   2.629  0.00  0.00    -0.036 A 
ATOM     23  C   UNL     1       2.622  -0.132   2.546  0.00  0.00    +0.008 A 
ATOM     24  C   UNL     1       3.855   0.484   2.657  0.00  0.00    +0.050 A 
ATOM     25  C   UNL     1       3.930   1.854   2.851  0.00  0.00    +0.162 A 
ATOM     26  C   UNL     1       2.763   2.607   2.934  0.00  0.00    +0.162 A 
ATOM     27  C   UNL     1       1.530   1.984   2.817  0.00  0.00    +0.053 A 
BRANCH  26  28
ATOM     28  O   UNL     1       2.831   3.952   3.124  0.00  0.00    -0.491 OA
ATOM     29  C   UNL     1       1.592   4.661   3.199  0.00  0.00    +0.277 C 
ENDBRANCH  26  28
BRANCH  25  30
ATOM     30  O   UNL     1       5.142   2.462   2.961  0.00  0.00    -0.491 OA
ATOM     31  C   UNL     1       6.297   1.626   2.867  0.00  0.00    +0.277 C 
ENDBRANCH  25  30
ENDBRANCH   8  22
BRANCH   4  32
ATOM     32  O   UNL     1       0.018  -2.635  -2.524  0.00  0.00    -0.507 OA
ATOM     33  H   UNL     1       0.909  -2.826  -2.849  0.00  0.00    +0.292 HD
ENDBRANCH   4  32
TORSDOF 4
