REMARK  Name = ZINC13623235
REMARK  11 active torsions:
REMARK  status: ('A' for Active; 'I' for Inactive)
REMARK    1  A    between atoms: C_1  and  C_2
REMARK    2  A    between atoms: C_2  and  C_3
REMARK    3  A    between atoms: C_2  and  C_4
REMARK    4  A    between atoms: C_4  and  C_5
REMARK    5  A    between atoms: C_5  and  O_6
REMARK    6  A    between atoms: O_6  and  C_7
REMARK    7  A    between atoms: C_10  and  C_14
REMARK    8  A    between atoms: N_16  and  N_17
REMARK    9  A    between atoms: C_18  and  C_20
REMARK   10  A    between atoms: N_25  and  C_27
REMARK   11  A    between atoms: C_27  and  C_28
REMARK                            x       y       z     vdW  Elec       q    Type
REMARK                         _______ _______ _______ _____ _____    ______ ____
ROOT
ATOM      1  C   UNL     1      -2.454  -3.751   1.871  0.00  0.00    +0.260 C 
ATOM      2  O   UNL     1      -1.689  -4.503   1.298  0.00  0.00    -0.269 OA
ATOM      3  N   UNL     1      -2.303  -2.417   1.751  0.00  0.00    -0.230 N 
ATOM      4  H   UNL     1      -2.913  -1.817   2.208  0.00  0.00    +0.173 HD
ENDROOT
BRANCH   1   8
ATOM      5  C   UNL     1      -5.599  -5.328   4.250  0.00  0.00    +0.134 A 
ATOM      6  C   UNL     1      -4.726  -6.189   3.596  0.00  0.00    +0.047 A 
ATOM      7  C   UNL     1      -3.705  -5.681   2.823  0.00  0.00    +0.017 A 
ATOM      8  C   UNL     1      -3.547  -4.298   2.697  0.00  0.00    +0.039 A 
ATOM      9  C   UNL     1      -4.423  -3.436   3.361  0.00  0.00    +0.032 A 
ATOM     10  C   UNL     1      -5.445  -3.951   4.128  0.00  0.00    +0.060 A 
ATOM     11 BR   UNL     1      -6.636  -2.785   5.021  0.00  0.00    -0.046 Br
BRANCH   5  12
ATOM     12  O   UNL     1      -6.603  -5.832   5.011  0.00  0.00    -0.491 OA
BRANCH  12  13
ATOM     13  C   UNL     1      -6.704  -7.255   5.093  0.00  0.00    +0.229 C 
BRANCH  13  14
ATOM     14  C   UNL     1      -7.886  -7.632   5.987  0.00  0.00    +0.044 C 
BRANCH  14  16
ATOM     15  C   UNL     1      -9.096  -9.534   7.066  0.00  0.00    +0.007 C 
ATOM     16  C   UNL     1      -7.994  -9.156   6.075  0.00  0.00    -0.014 C 
ATOM     17  C   UNL     1      -8.332  -9.724   4.695  0.00  0.00    +0.007 C 
ENDBRANCH  14  16
ENDBRANCH  13  14
ENDBRANCH  12  13
ENDBRANCH   5  12
ENDBRANCH   1   8
BRANCH   3  18
ATOM     18  N   UNL     1      -1.265  -1.897   0.966  0.00  0.00    -0.234 N 
ATOM     19  C   UNL     1      -1.114  -0.563   0.846  0.00  0.00    +0.234 C 
ATOM     20  O   UNL     1      -1.877   0.187   1.417  0.00  0.00    -0.274 OA
ATOM     21  H   UNL     1      -0.655  -2.497   0.509  0.00  0.00    +0.173 HD
BRANCH  19  22
ATOM     22  C   UNL     1       0.002  -0.004   0.002  0.00  0.00    +0.102 C 
ATOM     23  C   UNL     1       1.380  -0.304   0.637  0.00  0.00    +0.110 C 
ATOM     24  C   UNL     1       2.197   0.936   0.353  0.00  0.00    +0.217 C 
ATOM     25  O   UNL     1       3.406   1.005   0.431  0.00  0.00    -0.276 OA
ATOM     26  N   UNL     1       1.390   1.951  -0.001  0.00  0.00    -0.296 N 
ATOM     27  C   UNL     1      -0.019   1.541   0.011  0.00  0.00    +0.121 C 
BRANCH  26  28
ATOM     28  C   UNL     1       1.857   3.295  -0.352  0.00  0.00    +0.142 C 
BRANCH  28  29
ATOM     29  C   UNL     1       1.913   4.148   0.889  0.00  0.00    -0.030 A 
ATOM     30  C   UNL     1       0.809   4.888   1.270  0.00  0.00    +0.005 A 
ATOM     31  C   UNL     1       0.860   5.667   2.410  0.00  0.00    +0.000 A 
ATOM     32  C   UNL     1       2.017   5.713   3.165  0.00  0.00    +0.000 A 
ATOM     33  C   UNL     1       3.122   4.977   2.782  0.00  0.00    +0.000 A 
ATOM     34  C   UNL     1       3.070   4.195   1.643  0.00  0.00    +0.005 A 
ENDBRANCH  28  29
ENDBRANCH  26  28
ENDBRANCH  19  22
ENDBRANCH   3  18
TORSDOF 9
