REMARK  Name = ZINC67467089
REMARK  8 active torsions:
REMARK  status: ('A' for Active; 'I' for Inactive)
REMARK    1  A    between atoms: C_1  and  C_2
REMARK    2  A    between atoms: C_2  and  C_4
REMARK    3  A    between atoms: C_2  and  N_10
REMARK    4  A    between atoms: C_13  and  N_16
REMARK    5  A    between atoms: C_17  and  C_19
REMARK    6  A    between atoms: C_19  and  S_20
REMARK    7  A    between atoms: S_20  and  C_21
REMARK    8  A    between atoms: C_21  and  C_22
REMARK                            x       y       z     vdW  Elec       q    Type
REMARK                         _______ _______ _______ _____ _____    ______ ____
ROOT
ATOM      1  N   UNL     1      -0.602  -1.292   4.452  0.00  0.00    -0.314 N 
ATOM      2  C   UNL     1      -0.334  -1.746   5.693  0.00  0.00    +0.223 C 
ATOM      3  O   UNL     1       0.815  -1.922   6.039  0.00  0.00    -0.275 OA
ATOM      4  H   UNL     1      -1.521  -1.151   4.175  0.00  0.00    +0.149 HD
ENDROOT
BRANCH   1   8
ATOM      5  N   UNL     1       0.713  -0.491   1.192  0.00  0.00    +0.385 N 
ATOM      6  C   UNL     1       0.638  -1.972   1.272  0.00  0.00    -0.076 C 
ATOM      7  C   UNL     1       0.891  -2.295   2.760  0.00  0.00    +0.002 C 
ATOM      8  C   UNL     1       0.495  -1.013   3.522  0.00  0.00    +0.055 C 
ATOM      9  C   UNL     1       0.035  -0.024   2.429  0.00  0.00    -0.056 C 
ATOM     10  H   UNL     1       1.674  -0.184   1.179  0.00  0.00    -0.081 HD
BRANCH   5  12
ATOM     11  C   UNL     1      -0.019   1.526   0.010  0.00  0.00    -0.008 C 
ATOM     12  C   UNL     1       0.002  -0.004   0.002  0.00  0.00    -0.041 C 
BRANCH  12  13
ATOM     13  C   UNL     1       0.707  -0.490  -1.238  0.00  0.00    -0.061 A 
ATOM     14  C   UNL     1       2.089  -0.511  -1.284  0.00  0.00    +0.002 A 
ATOM     15  C   UNL     1       2.736  -0.957  -2.421  0.00  0.00    +0.000 A 
ATOM     16  C   UNL     1       2.002  -1.382  -3.512  0.00  0.00    +0.000 A 
ATOM     17  C   UNL     1       0.620  -1.362  -3.466  0.00  0.00    +0.000 A 
ATOM     18  C   UNL     1      -0.027  -0.920  -2.327  0.00  0.00    +0.002 A 
ENDBRANCH  12  13
ENDBRANCH   5  12
ENDBRANCH   1   8
BRANCH   2  19
ATOM     19  C   UNL     1      -1.462  -2.033   6.650  0.00  0.00    +0.165 C 
BRANCH  19  20
ATOM     20  S   UNL     1      -0.783  -2.624   8.224  0.00  0.00    -0.144 S 
BRANCH  20  21
ATOM     21  C   UNL     1      -2.249  -2.921   9.251  0.00  0.00    +0.143 C 
BRANCH  21  22
ATOM     22  C   UNL     1      -1.821  -3.422  10.606  0.00  0.00    +0.118 A 
ATOM     23  N   UNL     1      -1.643  -4.731  10.932  0.00  0.00    -0.341 N 
ATOM     24  H   UNL     1      -1.767  -5.492  10.344  0.00  0.00    +0.167 HD
ATOM     25  C   UNL     1      -1.252  -4.775  12.255  0.00  0.00    +0.066 A 
ATOM     26  C   UNL     1      -0.930  -5.800  13.135  0.00  0.00    +0.028 A 
ATOM     27  C   UNL     1      -0.570  -5.499  14.431  0.00  0.00    +0.002 A 
ATOM     28  C   UNL     1      -0.527  -4.180  14.861  0.00  0.00    +0.002 A 
ATOM     29  C   UNL     1      -0.840  -3.159  14.010  0.00  0.00    +0.030 A 
ATOM     30  C   UNL     1      -1.208  -3.440  12.691  0.00  0.00    +0.089 A 
ATOM     31  N   UNL     1      -1.561  -2.666  11.633  0.00  0.00    -0.232 NA
ENDBRANCH  21  22
ENDBRANCH  20  21
ENDBRANCH  19  20
ENDBRANCH   2  19
TORSDOF 7
