REMARK  Name = ZINC19793524
REMARK  13 active torsions:
REMARK  status: ('A' for Active; 'I' for Inactive)
REMARK    1  A    between atoms: C_1  and  C_2
REMARK    2  A    between atoms: C_4  and  C_24
REMARK    3  A    between atoms: C_9  and  C_23
REMARK    4  A    between atoms: C_10  and  C_13
REMARK    5  A    between atoms: C_13  and  N_14
REMARK    6  A    between atoms: N_14  and  C_15
REMARK    7  A    between atoms: N_14  and  C_19
REMARK    8  A    between atoms: C_15  and  C_16
REMARK    9  A    between atoms: C_16  and  C_17
REMARK   10  A    between atoms: C_16  and  C_18
REMARK   11  A    between atoms: C_19  and  C_20
REMARK   12  A    between atoms: C_20  and  C_21
REMARK   13  A    between atoms: C_20  and  C_22
REMARK                            x       y       z     vdW  Elec       q    Type
REMARK                         _______ _______ _______ _____ _____    ______ ____
ROOT
ATOM      1  C   UNL     1       3.689  -0.862  -2.507  0.00  0.00    +0.044 C 
ATOM      2  C   UNL     1       2.281  -1.238  -2.123  0.00  0.00    -0.048 A 
ATOM      3  C   UNL     1       1.925  -2.583  -2.056  0.00  0.00    +0.007 A 
ATOM      4  C   UNL     1       0.660  -2.953  -1.712  0.00  0.00    -0.037 A 
ATOM      5  C   UNL     1      -0.296  -1.969  -1.422  0.00  0.00    +0.048 A 
ATOM      6  C   UNL     1       0.063  -0.601  -1.488  0.00  0.00    +0.051 A 
ATOM      7  C   UNL     1       1.378  -0.257  -1.847  0.00  0.00    +0.029 A 
ATOM      8  N   UNL     1      -0.842   0.342  -1.207  0.00  0.00    -0.358 N 
ATOM      9  C   UNL     1      -2.075   0.035  -0.876  0.00  0.00    +0.018 A 
ATOM     10  C   UNL     1      -2.503  -1.284  -0.788  0.00  0.00    +0.002 A 
ATOM     11  C   UNL     1      -1.619  -2.312  -1.061  0.00  0.00    +0.191 A 
ATOM     12  O   UNL     1      -2.009  -3.608  -0.984  0.00  0.00    -0.287 OA
ATOM     13  C   UNL     1      -3.050   1.144  -0.576  0.00  0.00    +0.063 C 
ATOM     14  C   UNL     1       0.289  -4.412  -1.645  0.00  0.00    +0.044 C 
ATOM     15  H   UNL     1      -0.562   1.405  -1.249  0.00  0.00    +0.166 HD
ENDROOT
BRANCH  10  16
ATOM     16  C   UNL     1      -3.926  -1.593  -0.399  0.00  0.00    -0.037 C 
BRANCH  16  17
ATOM     17  N   UNL     1      -4.072  -1.474   1.058  0.00  0.00    +0.383 N 
ATOM     18  H   UNL     1      -3.689  -0.487   1.357  0.00  0.00    -0.081 HD
BRANCH  17  19
ATOM     19  C   UNL     1      -5.484  -1.549   1.454  0.00  0.00    -0.075 C 
BRANCH  19  20
ATOM     20  C   UNL     1      -6.196  -0.256   1.053  0.00  0.00    -0.034 C 
ATOM     21  C   UNL     1      -7.695  -0.393   1.326  0.00  0.00    +0.005 C 
ATOM     22  C   UNL     1      -5.633   0.910   1.869  0.00  0.00    +0.005 C 
ENDBRANCH  19  20
ENDBRANCH  17  19
BRANCH  17  23
ATOM     23  C   UNL     1      -3.276  -2.495   1.752  0.00  0.00    -0.075 C 
BRANCH  23  24
ATOM     24  C   UNL     1      -1.852  -1.976   1.963  0.00  0.00    -0.034 C 
ATOM     25  C   UNL     1      -1.885  -0.763   2.895  0.00  0.00    +0.005 C 
ATOM     26  C   UNL     1      -0.995  -3.077   2.589  0.00  0.00    +0.005 C 
ENDBRANCH  23  24
ENDBRANCH  17  23
ENDBRANCH  16  17
ENDBRANCH  10  16
TORSDOF 6
