REMARK  Name = ZINC22922228
REMARK  7 active torsions:
REMARK  status: ('A' for Active; 'I' for Inactive)
REMARK    1  A    between atoms: C_1  and  C_2
REMARK    2  A    between atoms: C_2  and  C_37
REMARK    3  A    between atoms: C_4  and  N_9
REMARK    4  A    between atoms: C_10  and  C_12
REMARK    5  A    between atoms: C_15  and  C_20
REMARK    6  A    between atoms: C_20  and  N_21
REMARK    7  A    between atoms: N_24  and  C_27
REMARK                            x       y       z     vdW  Elec       q    Type
REMARK                         _______ _______ _______ _____ _____    ______ ____
ROOT
ATOM      1  C   UNL     1      -2.626   1.933  -5.732  0.00  0.00    +0.101 A 
ATOM      2  C   UNL     1      -1.357   2.503  -5.656  0.00  0.00    +0.020 A 
ATOM      3  C   UNL     1      -0.548   2.205  -4.559  0.00  0.00    +0.023 A 
ATOM      4  C   UNL     1      -0.994   1.364  -3.591  0.00  0.00    +0.033 A 
ATOM      5  N   UNL     1      -2.227   0.806  -3.659  0.00  0.00    -0.324 N 
ATOM      6  H   UNL     1      -2.570   0.131  -2.862  0.00  0.00    +0.169 HD
ATOM      7  C   UNL     1      -3.050   1.064  -4.694  0.00  0.00    +0.261 A 
ATOM      8  O   UNL     1      -4.155   0.553  -4.737  0.00  0.00    -0.267 OA
ENDROOT
BRANCH   1  10
ATOM      9  N   UNL     1      -4.686   1.579  -6.994  0.00  0.00    -0.308 N 
ATOM     10  C   UNL     1      -3.511   2.226  -6.870  0.00  0.00    +0.250 C 
ATOM     11  O   UNL     1      -3.181   3.052  -7.700  0.00  0.00    -0.270 OA
ATOM     12  H   UNL     1      -5.024   0.894  -6.202  0.00  0.00    +0.149 HD
BRANCH   9  16
ATOM     13  C   UNL     1      -7.757   3.068  -9.614  0.00  0.00    +0.041 C 
ATOM     14  C   UNL     1      -7.825   1.623  -9.117  0.00  0.00    +0.066 C 
ATOM     15  C   UNL     1      -6.978   1.479  -7.849  0.00  0.00    +0.056 C 
ATOM     16  C   UNL     1      -5.516   1.787  -8.184  0.00  0.00    +0.078 C 
ATOM     17  C   UNL     1      -5.051   0.850  -9.303  0.00  0.00    +0.050 C 
ATOM     18  C   UNL     1      -5.972   1.018 -10.514  0.00  0.00    +0.162 C 
ATOM     19  O   UNL     1      -7.321   0.747 -10.127  0.00  0.00    -0.374 OA
ATOM     20  C   UNL     1      -9.278   1.259  -8.804  0.00  0.00    +0.041 C 
ENDBRANCH   9  16
ENDBRANCH   1  10
BRANCH   4  21
ATOM     21  C   UNL     1      -0.104   1.050  -2.417  0.00  0.00    +0.137 C 
BRANCH  21  22
ATOM     22  N   UNL     1      -0.709   1.582  -1.188  0.00  0.00    -0.300 NA
ATOM     23  C   UNL     1       0.001   1.095   0.002  0.00  0.00    +0.066 C 
ATOM     24  C   UNL     1      -0.705   1.606   1.260  0.00  0.00    -0.062 C 
ATOM     25  N   UNL     1      -0.742   3.075   1.236  0.00  0.00    +0.385 N 
ATOM     26  C   UNL     1      -1.453   3.562   0.045  0.00  0.00    -0.062 C 
ATOM     27  C   UNL     1      -0.746   3.051  -1.212  0.00  0.00    +0.066 C 
ATOM     28  H   UNL     1       0.294   3.440   1.185  0.00  0.00    -0.081 HD
BRANCH  25  29
ATOM     29  C   UNL     1      -1.347   3.607   2.464  0.00  0.00    -0.065 C 
ATOM     30  C   UNL     1      -1.282   5.136   2.444  0.00  0.00    -0.009 C 
ATOM     31  C   UNL     1      -1.912   5.690   3.724  0.00  0.00    -0.012 C 
ATOM     32  C   UNL     1      -1.146   5.162   4.939  0.00  0.00    +0.007 C 
ATOM     33  C   UNL     1      -1.212   3.634   4.959  0.00  0.00    -0.012 C 
ATOM     34  C   UNL     1      -0.582   3.079   3.679  0.00  0.00    -0.009 C 
ATOM     35  C   UNL     1      -2.673   3.187   5.043  0.00  0.00    +0.007 C 
ATOM     36  C   UNL     1      -3.438   3.714   3.828  0.00  0.00    -0.012 C 
ATOM     37  C   UNL     1      -3.373   5.243   3.808  0.00  0.00    +0.007 C 
ATOM     38  C   UNL     1      -2.808   3.160   2.548  0.00  0.00    -0.009 C 
ENDBRANCH  25  29
ENDBRANCH  21  22
ENDBRANCH   4  21
TORSDOF 5
