REMARK  Name = ZINC43612174
REMARK  7 active torsions:
REMARK  status: ('A' for Active; 'I' for Inactive)
REMARK    1  A    between atoms: C_1  and  C_2
REMARK    2  A    between atoms: C_2  and  N_3
REMARK    3  A    between atoms: N_3  and  C_4
REMARK    4  A    between atoms: C_4  and  C_6
REMARK    5  A    between atoms: C_4  and  C_13
REMARK    6  A    between atoms: C_15  and  C_19
REMARK    7  A    between atoms: C_17  and  C_18
REMARK                            x       y       z     vdW  Elec       q    Type
REMARK                         _______ _______ _______ _____ _____    ______ ____
ROOT
ATOM      1  C   UNL     1      -1.331  -2.079  -0.006  0.00  0.00    -0.006 C 
ENDROOT
BRANCH   1   2
ATOM      2  C   UNL     1      -0.657  -2.475   1.282  0.00  0.00    -0.044 A 
ATOM      3  C   UNL     1      -0.558  -1.565   2.318  0.00  0.00    +0.003 A 
ATOM      4  C   UNL     1       0.060  -1.928   3.500  0.00  0.00    +0.000 A 
ATOM      5  C   UNL     1       0.581  -3.200   3.645  0.00  0.00    +0.001 A 
ATOM      6  C   UNL     1       0.483  -4.110   2.609  0.00  0.00    +0.014 A 
ATOM      7  C   UNL     1      -0.141  -3.749   1.429  0.00  0.00    +0.015 A 
ATOM      8  I   UNL     1      -0.297  -5.131  -0.138  0.00  0.00    -0.044 I 
ENDBRANCH   1   2
BRANCH   1   9
ATOM      9  C   UNL     1      -2.786  -2.470   0.048  0.00  0.00    -0.016 A 
ATOM     10  C   UNL     1      -3.525  -2.808   1.204  0.00  0.00    +0.047 A 
ATOM     11  C   UNL     1      -4.777  -3.088   0.799  0.00  0.00    +0.102 A 
ATOM     12  O   UNL     1      -4.834  -2.939  -0.534  0.00  0.00    -0.465 OA
ATOM     13  C   UNL     1      -3.631  -2.559  -0.995  0.00  0.00    +0.104 A 
ATOM     14  C   UNL     1      -3.286  -2.284  -2.436  0.00  0.00    +0.086 C 
ATOM     15  C   UNL     1      -5.920  -3.500   1.690  0.00  0.00    +0.086 C 
ENDBRANCH   1   9
BRANCH   1  16
ATOM     16  N   UNL     1      -1.222  -0.626  -0.191  0.00  0.00    +0.386 N 
ATOM     17  H   UNL     1      -1.595  -0.155   0.620  0.00  0.00    -0.085 HD
ATOM     18  H   UNL     1      -1.743  -0.350  -1.009  0.00  0.00    -0.085 HD
BRANCH  16  20
ATOM     19  C   UNL     1       0.305   1.254  -0.555  0.00  0.00    -0.017 C 
ATOM     20  C   UNL     1       0.191  -0.260  -0.363  0.00  0.00    -0.085 C 
ENDBRANCH  16  20
ENDBRANCH   1  16
TORSDOF 4
