REMARK  Name = ZINC06704619
REMARK  7 active torsions:
REMARK  status: ('A' for Active; 'I' for Inactive)
REMARK    1  A    between atoms: C_1  and  C_2
REMARK    2  A    between atoms: C_2  and  C_3
REMARK    3  A    between atoms: C_12  and  C_13
REMARK    4  A    between atoms: C_13  and  C_15
REMARK    5  A    between atoms: C_13  and  C_22
REMARK    6  A    between atoms: C_15  and  C_16
REMARK    7  A    between atoms: N_18  and  C_19
REMARK                            x       y       z     vdW  Elec       q    Type
REMARK                         _______ _______ _______ _____ _____    ______ ____
ROOT
ATOM      1  C   UNL     1       3.836   2.188   5.523  0.00  0.00    +0.060 C 
ENDROOT
BRANCH   1  11
ATOM      2  C   UNL     1       0.000   1.080   2.488  0.00  0.00    -0.024 A 
ATOM      3  C   UNL     1      -0.407  -0.080   3.110  0.00  0.00    +0.005 A 
ATOM      4  C   UNL     1       0.256  -0.550   4.235  0.00  0.00    +0.001 A 
ATOM      5  C   UNL     1       1.326   0.130   4.745  0.00  0.00    +0.010 A 
ATOM      6  C   UNL     1       1.755   1.307   4.131  0.00  0.00    +0.004 A 
ATOM      7  C   UNL     1       1.090   1.786   2.987  0.00  0.00    +0.050 A 
ATOM      8  N   UNL     1       1.721   2.949   2.607  0.00  0.00    -0.360 N 
ATOM      9  H   UNL     1       1.470   3.496   1.846  0.00  0.00    +0.165 HD
ATOM     10  C   UNL     1       2.758   3.215   3.458  0.00  0.00    +0.088 A 
ATOM     11  C   UNL     1       2.833   2.262   4.401  0.00  0.00    -0.015 A 
BRANCH   2  13
ATOM     12  C   UNL     1      -0.013   1.086   0.008  0.00  0.00    +0.009 C 
ATOM     13  C   UNL     1      -0.729   1.579   1.267  0.00  0.00    +0.034 C 
ENDBRANCH   2  13
ENDBRANCH   1  11
BRANCH   1  14
ATOM     14  C   UNL     1       3.713   3.416   6.388  0.00  0.00    -0.038 A 
ATOM     15  C   UNL     1       3.398   3.289   7.728  0.00  0.00    +0.006 A 
ATOM     16  C   UNL     1       3.286   4.414   8.522  0.00  0.00    +0.022 A 
ATOM     17  C   UNL     1       3.489   5.669   7.976  0.00  0.00    +0.059 A 
ATOM     18  C   UNL     1       3.804   5.797   6.634  0.00  0.00    +0.060 A 
ATOM     19  C   UNL     1       3.922   4.668   5.842  0.00  0.00    +0.025 A 
ATOM     20 CL   UNL     1       4.059   7.371   5.947  0.00  0.00    -0.082 Cl
ATOM     21 CL   UNL     1       3.347   7.083   8.973  0.00  0.00    -0.082 Cl
ENDBRANCH   1  14
BRANCH   1  22
ATOM     22  C   UNL     1       5.249   2.113   4.941  0.00  0.00    +0.108 C 
BRANCH  22  23
ATOM     23  C   UNL     1       6.242   1.915   6.056  0.00  0.00    +0.214 C 
ATOM     24  O   UNL     1       5.858   1.842   7.205  0.00  0.00    -0.276 OA
ATOM     25  N   UNL     1       7.558   1.821   5.779  0.00  0.00    -0.312 N 
ATOM     26  H   UNL     1       7.865   1.879   4.860  0.00  0.00    +0.149 HD
BRANCH  25  27
ATOM     27  C   UNL     1       8.523   1.629   6.863  0.00  0.00    +0.073 C 
ATOM     28  C   UNL     1       9.808   2.459   6.821  0.00  0.00    +0.024 C 
ATOM     29  C   UNL     1       9.855   0.960   6.514  0.00  0.00    +0.024 C 
ENDBRANCH  25  27
ENDBRANCH  22  23
ENDBRANCH   1  22
TORSDOF 6
