REMARK  Name = ZINC37338163
REMARK  5 active torsions:
REMARK  status: ('A' for Active; 'I' for Inactive)
REMARK    1  A    between atoms: C_3  and  S_8
REMARK    2  A    between atoms: C_5  and  C_6
REMARK    3  A    between atoms: C_6  and  N_7
REMARK    4  A    between atoms: S_8  and  N_11
REMARK    5  A    between atoms: N_11  and  C_12
REMARK                            x       y       z     vdW  Elec       q    Type
REMARK                         _______ _______ _______ _____ _____    ______ ____
ROOT
ATOM      1  S   UNL     1       4.005   1.917  -0.026  0.00  0.00    +0.098 S 
ATOM      2  O   UNL     1       4.814   0.891  -0.583  0.00  0.00    -0.148 OA
ATOM      3  O   UNL     1       3.947   3.225  -0.578  0.00  0.00    -0.148 OA
ENDROOT
BRANCH   1   6
ATOM      4  C   UNL     1      -0.006   1.293   0.008  0.00  0.00    +0.011 A 
ATOM      5  C   UNL     1       1.186   1.993  -0.002  0.00  0.00    +0.037 A 
ATOM      6  C   UNL     1       2.353   1.303  -0.011  0.00  0.00    +0.148 A 
ATOM      7  S   UNL     1       1.783  -0.389  -0.006  0.00  0.00    -0.075 S 
ATOM      8  C   UNL     1       0.027  -0.062   0.009  0.00  0.00    -0.026 A 
BRANCH   8   9
ATOM      9  C   UNL     1      -1.119  -1.040   0.019  0.00  0.00    -0.043 C 
BRANCH   9  10
ATOM     10  N   UNL     1      -1.504  -1.358  -1.362  0.00  0.00    +0.381 N 
ATOM     11  H   UNL     1      -1.787  -0.513  -1.836  0.00  0.00    -0.090 HD
ATOM     12  H   UNL     1      -0.718  -1.767  -1.845  0.00  0.00    -0.090 HD
ATOM     13  H   UNL     1      -2.272  -2.013  -1.355  0.00  0.00    -0.090 HD
ENDBRANCH   9  10
ENDBRANCH   8   9
ENDBRANCH   1   6
BRANCH   1  14
ATOM     14  N   UNL     1       4.477   2.089   1.552  0.00  0.00    -0.094 NA
BRANCH  14  15
ATOM     15  C   UNL     1       5.795   2.448   1.852  0.00  0.00    +0.111 A 
ATOM     16  C   UNL     1       6.275   3.701   1.491  0.00  0.00    +0.068 A 
ATOM     17  C   UNL     1       7.578   4.053   1.789  0.00  0.00    +0.042 A 
ATOM     18  C   UNL     1       8.404   3.159   2.447  0.00  0.00    +0.044 A 
ATOM     19  C   UNL     1       7.929   1.910   2.809  0.00  0.00    +0.042 A 
ATOM     20  C   UNL     1       6.625   1.555   2.518  0.00  0.00    +0.068 A 
ATOM     21 CL   UNL     1       6.028  -0.009   2.978  0.00  0.00    -0.081 Cl
ATOM     22 CL   UNL     1      10.041   3.604   2.820  0.00  0.00    -0.083 Cl
ATOM     23 CL   UNL     1       5.240   4.823   0.664  0.00  0.00    -0.081 Cl
ENDBRANCH  14  15
ENDBRANCH   1  14
TORSDOF 5
