REMARK  Name = ZINC45498076
REMARK  4 active torsions:
REMARK  status: ('A' for Active; 'I' for Inactive)
REMARK    1  A    between atoms: C_3  and  S_21
REMARK    2  A    between atoms: C_6  and  N_7
REMARK    3  A    between atoms: C_8  and  C_10
REMARK    4  A    between atoms: S_21  and  C_24
REMARK                            x       y       z     vdW  Elec       q    Type
REMARK                         _______ _______ _______ _____ _____    ______ ____
ROOT
ATOM      1  N   UNL     1      -1.198  -0.721   0.010  0.00  0.00    -0.282 N 
ATOM      2  C   UNL     1      -1.182  -2.064  -0.099  0.00  0.00    +0.244 C 
ATOM      3  O   UNL     1      -0.121  -2.660  -0.113  0.00  0.00    -0.270 OA
ATOM      4  H   UNL     1      -2.043  -0.252   0.098  0.00  0.00    +0.155 HD
ENDROOT
BRANCH   2   5
ATOM      5  C   UNL     1      -2.445  -2.810  -0.201  0.00  0.00    +0.014 C 
ATOM      6  C   UNL     1      -2.380  -4.120  -0.301  0.00  0.00    +0.000 C 
ATOM      7  C   UNL     1      -3.591  -5.001  -0.429  0.00  0.00    +0.134 C 
ATOM      8  N   UNL     1      -4.797  -4.206  -0.159  0.00  0.00    -0.306 N 
ATOM      9  C   UNL     1      -4.870  -2.862  -0.759  0.00  0.00    +0.112 C 
ATOM     10  C   UNL     1      -3.724  -2.026  -0.179  0.00  0.00    +0.059 C 
ATOM     11  C   UNL     1      -5.824  -4.700   0.629  0.00  0.00    +0.161 A 
ATOM     12  N   UNL     1      -6.958  -4.117   0.955  0.00  0.00    -0.233 NA
ATOM     13  C   UNL     1      -7.843  -4.728   1.723  0.00  0.00    +0.120 A 
ATOM     14  C   UNL     1      -7.529  -5.972   2.155  0.00  0.00    +0.068 A 
ATOM     15  S   UNL     1      -5.928  -6.194   1.397  0.00  0.00    -0.061 S 
ENDBRANCH   2   5
BRANCH   1  21
ATOM     16  C   UNL     1       1.072  -0.452  -0.767  0.00  0.00    +0.025 A 
ATOM     17  C   UNL     1       2.256   0.259  -0.779  0.00  0.00    +0.029 A 
ATOM     18  C   UNL     1       2.376   1.417  -0.032  0.00  0.00    +0.098 A 
ATOM     19  C   UNL     1       1.313   1.866   0.729  0.00  0.00    +0.029 A 
ATOM     20  C   UNL     1       0.126   1.159   0.745  0.00  0.00    +0.025 A 
ATOM     21  C   UNL     1       0.002  -0.004  -0.004  0.00  0.00    +0.034 A 
BRANCH  18  22
ATOM     22  S   UNL     1       3.888   2.321  -0.050  0.00  0.00    +0.091 S 
ATOM     23  O   UNL     1       3.913   3.011   1.191  0.00  0.00    -0.161 OA
ATOM     24  O   UNL     1       4.884   1.356  -0.362  0.00  0.00    -0.161 OA
BRANCH  22  25
ATOM     25  C   UNL     1       3.711   3.499  -1.417  0.00  0.00    +0.526 C 
ATOM     26  F   UNL     1       2.613   4.332  -1.176  0.00  0.00    -0.150 F 
ATOM     27  F   UNL     1       4.871   4.275  -1.518  0.00  0.00    -0.150 F 
ATOM     28  F   UNL     1       3.512   2.800  -2.613  0.00  0.00    -0.150 F 
ENDBRANCH  22  25
ENDBRANCH  18  22
ENDBRANCH   1  21
TORSDOF 4
