REMARK  Name = ZINC09486157
REMARK  10 active torsions:
REMARK  status: ('A' for Active; 'I' for Inactive)
REMARK    1  A    between atoms: C_1  and  C_2
REMARK    2  A    between atoms: C_4  and  C_33
REMARK    3  A    between atoms: C_11  and  C_13
REMARK    4  A    between atoms: C_14  and  C_20
REMARK    5  A    between atoms: C_17  and  O_19
REMARK    6  A    between atoms: C_23  and  O_28
REMARK    7  A    between atoms: C_24  and  O_26
REMARK    8  A    between atoms: O_26  and  C_27
REMARK    9  A    between atoms: O_28  and  C_29
REMARK   10  A    between atoms: C_29  and  C_30
REMARK                            x       y       z     vdW  Elec       q    Type
REMARK                         _______ _______ _______ _____ _____    ______ ____
ROOT
ATOM      1  C   UNL     1      -0.018   1.503   0.010  0.00  0.00    +0.066 C 
ATOM      2  C   UNL     1       0.002  -0.004   0.002  0.00  0.00    +0.044 A 
ATOM      3  C   UNL     1       0.006  -0.699  -1.197  0.00  0.00    +0.046 A 
ATOM      4  C   UNL     1       0.025  -2.085  -1.159  0.00  0.00    +0.044 A 
ATOM      5  N   UNL     1       0.039  -2.697   0.013  0.00  0.00    -0.216 NA
ATOM      6  C   UNL     1       0.035  -2.003   1.140  0.00  0.00    +0.254 A 
ATOM      7  N   UNL     1       0.022  -0.680   1.139  0.00  0.00    -0.216 NA
ATOM      8  N   UNL     1       0.049  -2.682   2.356  0.00  0.00    -0.179 N 
ATOM      9  C   UNL     1       0.042  -2.117   3.587  0.00  0.00    +0.167 A 
ATOM     10  C   UNL     1       0.053  -3.153   4.511  0.00  0.00    +0.027 A 
ATOM     11  C   UNL     1       0.075  -4.346   3.813  0.00  0.00    +0.066 A 
ATOM     12  N   UNL     1       0.069  -4.076   2.527  0.00  0.00    -0.167 NA
ATOM     13  C   UNL     1       0.097  -5.724   4.423  0.00  0.00    +0.068 C 
ATOM     14  C   UNL     1       0.035  -2.886   5.995  0.00  0.00    +0.063 C 
ATOM     15  C   UNL     1       0.719  -1.534   6.233  0.00  0.00    +0.108 C 
ATOM     16  C   UNL     1       0.292  -0.517   5.215  0.00  0.00    +0.190 C 
ATOM     17  N   UNL     1       0.006  -0.812   3.982  0.00  0.00    -0.197 NA
ATOM     18  C   UNL     1       0.029  -2.883  -2.438  0.00  0.00    +0.066 C 
ENDROOT
BRANCH  14  19
ATOM     19  C   UNL     1      -1.388  -2.834   6.488  0.00  0.00    -0.036 A 
ATOM     20  C   UNL     1      -2.264  -1.899   5.970  0.00  0.00    +0.008 A 
ATOM     21  C   UNL     1      -3.571  -1.847   6.419  0.00  0.00    +0.050 A 
ATOM     22  C   UNL     1      -4.005  -2.735   7.390  0.00  0.00    +0.163 A 
ATOM     23  C   UNL     1      -3.124  -3.677   7.911  0.00  0.00    +0.162 A 
ATOM     24  C   UNL     1      -1.817  -3.727   7.453  0.00  0.00    +0.053 A 
BRANCH  23  25
ATOM     25  O   UNL     1      -3.546  -4.551   8.864  0.00  0.00    -0.491 OA
ATOM     26  C   UNL     1      -2.587  -5.490   9.353  0.00  0.00    +0.277 C 
ENDBRANCH  23  25
BRANCH  22  27
ATOM     27  O   UNL     1      -5.290  -2.685   7.833  0.00  0.00    -0.479 OA
BRANCH  27  28
ATOM     28  C   UNL     1      -6.138  -1.692   7.253  0.00  0.00    +0.324 C 
BRANCH  28  29
ATOM     29  C   UNL     1      -7.513  -1.787   7.862  0.00  0.00    +0.248 C 
ATOM     30  O   UNL     1      -7.744  -2.624   8.709  0.00  0.00    -0.272 OA
ATOM     31  N   UNL     1      -8.486  -0.943   7.466  0.00  0.00    -0.327 N 
ATOM     32  H   UNL     1      -8.301  -0.274   6.788  0.00  0.00    +0.145 HD
ATOM     33  H   UNL     1      -9.371  -1.005   7.858  0.00  0.00    +0.145 HD
ENDBRANCH  28  29
ENDBRANCH  27  28
ENDBRANCH  22  27
ENDBRANCH  14  19
BRANCH  16  34
ATOM     34  O   UNL     1       0.202   0.772   5.600  0.00  0.00    -0.495 OA
ATOM     35  H   UNL     1      -0.078   1.374   4.896  0.00  0.00    +0.293 HD
ENDBRANCH  16  34
TORSDOF 6
