REMARK  Name = ZINC66614305
REMARK  10 active torsions:
REMARK  status: ('A' for Active; 'I' for Inactive)
REMARK    1  A    between atoms: C_1  and  C_2
REMARK    2  A    between atoms: N_7  and  C_9
REMARK    3  A    between atoms: C_9  and  C_11
REMARK    4  A    between atoms: C_9  and  C_12
REMARK    5  A    between atoms: C_12  and  N_13
REMARK    6  A    between atoms: C_14  and  C_16
REMARK    7  A    between atoms: C_16  and  C_17
REMARK    8  A    between atoms: C_17  and  C_19
REMARK    9  A    between atoms: C_17  and  N_20
REMARK   10  A    between atoms: C_21  and  C_23
REMARK                            x       y       z     vdW  Elec       q    Type
REMARK                         _______ _______ _______ _____ _____    ______ ____
ROOT
ATOM      1  N   UNL     1       3.065  -0.566   2.179  0.00  0.00    -0.317 N 
ATOM      2  C   UNL     1       4.245   0.042   1.946  0.00  0.00    +0.215 C 
ATOM      3  O   UNL     1       5.247  -0.622   1.785  0.00  0.00    -0.276 OA
ATOM      4  H   UNL     1       2.263  -0.035   2.308  0.00  0.00    +0.149 HD
ENDROOT
BRANCH   1   5
ATOM      5  C   UNL     1       2.993  -2.028   2.239  0.00  0.00    +0.088 C 
BRANCH   5   6
ATOM      6  C   UNL     1       1.532  -2.462   2.378  0.00  0.00    -0.054 C 
ATOM      7  C   UNL     1       1.446  -3.988   2.322  0.00  0.00    -0.012 C 
BRANCH   6  13
ATOM      8  C   UNL     1      -2.991  -1.831   0.615  0.00  0.00    +0.005 C 
ATOM      9  C   UNL     1      -1.510  -1.518   0.393  0.00  0.00    -0.031 C 
ATOM     10  C   UNL     1      -1.072  -2.058  -0.971  0.00  0.00    -0.001 C 
ATOM     11  C   UNL     1       0.429  -1.810  -1.150  0.00  0.00    -0.018 C 
ATOM     12  C   UNL     1       1.190  -2.464   0.005  0.00  0.00    -0.078 C 
ATOM     13  N   UNL     1       0.745  -1.886   1.279  0.00  0.00    +0.383 N 
ATOM     14  C   UNL     1      -0.677  -2.182   1.492  0.00  0.00    -0.075 C 
ATOM     15  H   UNL     1       0.879  -0.887   1.259  0.00  0.00    -0.081 HD
ENDBRANCH   6  13
ENDBRANCH   5   6
ENDBRANCH   1   5
BRANCH   2  16
ATOM     16  C   UNL     1       4.319   1.546   1.884  0.00  0.00    +0.117 C 
BRANCH  16  17
ATOM     17  C   UNL     1       5.761   1.975   1.609  0.00  0.00    +0.079 C 
ATOM     18  C   UNL     1       5.816   3.492   1.422  0.00  0.00    +0.028 C 
BRANCH  17  19
ATOM     19  N   UNL     1       6.609   1.591   2.740  0.00  0.00    -0.312 N 
ATOM     20  C   UNL     1       7.930   1.391   2.555  0.00  0.00    +0.216 C 
ATOM     21  O   UNL     1       8.415   1.530   1.453  0.00  0.00    -0.276 OA
ATOM     22  H   UNL     1       6.221   1.481   3.622  0.00  0.00    +0.149 HD
BRANCH  20  23
ATOM     23  C   UNL     1       8.802   0.997   3.719  0.00  0.00    +0.075 C 
ATOM     24  C   UNL     1       8.739   2.083   4.795  0.00  0.00    +0.013 C 
ATOM     25  C   UNL     1       9.624   1.683   5.977  0.00  0.00    +0.001 C 
ATOM     26  C   UNL     1      11.069   1.521   5.500  0.00  0.00    +0.000 C 
ATOM     27  C   UNL     1      11.132   0.434   4.424  0.00  0.00    +0.001 C 
ATOM     28  C   UNL     1      10.246   0.835   3.242  0.00  0.00    +0.013 C 
ENDBRANCH  20  23
ENDBRANCH  17  19
ENDBRANCH  16  17
ENDBRANCH   2  16
TORSDOF 7
