REMARK  Name = ZINC32644087
REMARK  11 active torsions:
REMARK  status: ('A' for Active; 'I' for Inactive)
REMARK    1  A    between atoms: C_1  and  C_2
REMARK    2  A    between atoms: N_8  and  C_9
REMARK    3  A    between atoms: C_9  and  C_10
REMARK    4  A    between atoms: C_10  and  C_11
REMARK    5  A    between atoms: C_11  and  N_12
REMARK    6  A    between atoms: C_13  and  C_15
REMARK    7  A    between atoms: C_15  and  O_16
REMARK    8  A    between atoms: O_16  and  C_17
REMARK    9  A    between atoms: C_25  and  C_28
REMARK   10  A    between atoms: C_33  and  O_34
REMARK   11  A    between atoms: O_34  and  C_35
REMARK                            x       y       z     vdW  Elec       q    Type
REMARK                         _______ _______ _______ _____ _____    ______ ____
ROOT
ATOM      1  C   UNL     1       5.276  10.233  -3.853  0.00  0.00    +0.125 A 
ATOM      2  C   UNL     1       4.006  10.805  -3.821  0.00  0.00    +0.046 A 
ATOM      3  C   UNL     1       3.840  12.131  -4.102  0.00  0.00    +0.019 A 
ATOM      4  C   UNL     1       4.949  12.913  -4.431  0.00  0.00    +0.065 A 
ATOM      5  C   UNL     1       6.233  12.344  -4.472  0.00  0.00    +0.142 A 
ATOM      6  C   UNL     1       6.384  10.995  -4.179  0.00  0.00    +0.092 A 
ATOM      7  O   UNL     1       7.302  13.100  -4.792  0.00  0.00    -0.462 OA
ATOM      8  C   UNL     1       7.220  14.401  -5.082  0.00  0.00    +0.208 A 
ATOM      9  C   UNL     1       6.041  15.077  -5.080  0.00  0.00    +0.068 A 
ATOM     10  C   UNL     1       4.807  14.346  -4.745  0.00  0.00    +0.200 A 
ATOM     11  O   UNL     1       3.721  14.900  -4.727  0.00  0.00    -0.286 OA
ENDROOT
BRANCH   9  12
ATOM     12  C   UNL     1       5.998  16.522  -5.410  0.00  0.00    +0.030 A 
ATOM     13  C   UNL     1       6.341  16.958  -6.688  0.00  0.00    +0.012 A 
ATOM     14  C   UNL     1       6.299  18.305  -6.990  0.00  0.00    +0.001 A 
ATOM     15  C   UNL     1       5.917  19.223  -6.029  0.00  0.00    +0.004 A 
ATOM     16  C   UNL     1       5.575  18.800  -4.758  0.00  0.00    +0.046 A 
ATOM     17  C   UNL     1       5.608  17.452  -4.442  0.00  0.00    +0.128 A 
BRANCH  17  18
ATOM     18  O   UNL     1       5.267  17.035  -3.195  0.00  0.00    -0.494 OA
ATOM     19  C   UNL     1       4.879  18.042  -2.258  0.00  0.00    +0.277 C 
ENDBRANCH  17  18
ENDBRANCH   9  12
BRANCH   1  20
ATOM     20  O   UNL     1       5.426   8.914  -3.568  0.00  0.00    -0.483 OA
BRANCH  20  21
ATOM     21  C   UNL     1       4.244   8.182  -3.239  0.00  0.00    +0.324 C 
BRANCH  21  23
ATOM     22  N   UNL     1       3.642   5.864  -2.620  0.00  0.00    -0.313 N 
ATOM     23  C   UNL     1       4.604   6.747  -2.954  0.00  0.00    +0.251 C 
ATOM     24  O   UNL     1       5.760   6.386  -3.026  0.00  0.00    -0.272 OA
ATOM     25  H   UNL     1       2.594   6.191  -2.555  0.00  0.00    +0.149 HD
BRANCH  22  26
ATOM     26  C   UNL     1       3.993   4.469  -2.344  0.00  0.00    +0.102 C 
BRANCH  26  27
ATOM     27  C   UNL     1       2.726   3.685  -1.992  0.00  0.00    +0.000 C 
BRANCH  27  28
ATOM     28  C   UNL     1       3.092   2.228  -1.703  0.00  0.00    -0.077 C 
BRANCH  28  35
ATOM     29  C   UNL     1       2.702  -0.340  -2.785  0.00  0.00    -0.013 C 
ATOM     30  C   UNL     1       2.121   0.029  -1.418  0.00  0.00    -0.072 C 
ATOM     31  C   UNL     1       0.804  -0.721  -1.205  0.00  0.00    -0.016 C 
ATOM     32  C   UNL     1       0.217  -0.334   0.155  0.00  0.00    -0.003 C 
ATOM     33  C   UNL     1       0.017   1.184   0.203  0.00  0.00    -0.019 C 
ATOM     34  C   UNL     1       1.357   1.878  -0.052  0.00  0.00    -0.078 C 
ATOM     35  N   UNL     1       1.877   1.476  -1.365  0.00  0.00    +0.381 N 
ATOM     36  H   UNL     1       1.110   1.714  -2.116  0.00  0.00    -0.081 HD
ENDBRANCH  28  35
ENDBRANCH  27  28
ENDBRANCH  26  27
ENDBRANCH  22  26
ENDBRANCH  21  23
ENDBRANCH  20  21
ENDBRANCH   1  20
TORSDOF 9
