REMARK  Name = ZINC20112599
REMARK  5 active torsions:
REMARK  status: ('A' for Active; 'I' for Inactive)
REMARK    1  A    between atoms: C_4  and  N_7
REMARK    2  A    between atoms: C_10  and  C_16
REMARK    3  A    between atoms: C_10  and  C_22
REMARK    4  A    between atoms: C_16  and  C_17
REMARK    5  A    between atoms: C_22  and  N_23
REMARK                            x       y       z     vdW  Elec       q    Type
REMARK                         _______ _______ _______ _____ _____    ______ ____
ROOT
ATOM      1  N   UNL     1       2.994  -0.984  -0.149  0.00  0.00    -0.192 N 
ATOM      2  C   UNL     1       3.247  -2.308  -0.061  0.00  0.00    +0.244 C 
ATOM      3  O   UNL     1       2.351  -3.125  -0.053  0.00  0.00    -0.274 OA
ATOM      4  C   UNL     1       4.703  -2.730   0.027  0.00  0.00    +0.143 C 
ATOM      5  C   UNL     1       5.726  -1.611   0.006  0.00  0.00    +0.257 C 
ATOM      6  N   UNL     1       5.277  -0.357  -0.086  0.00  0.00    -0.126 NA
ATOM      7  C   UNL     1       4.001  -0.068  -0.164  0.00  0.00    +0.339 C 
ATOM      8  O   UNL     1       3.662   1.230  -0.260  0.00  0.00    -0.250 OA
ATOM      9  O   UNL     1       6.916  -1.848   0.072  0.00  0.00    -0.272 OA
ENDROOT
BRANCH   1  13
ATOM     10  C   UNL     1      -0.956   0.325  -0.398  0.00  0.00    +0.000 A 
ATOM     11  C   UNL     1      -0.102   0.881   0.537  0.00  0.00    +0.002 A 
ATOM     12  C   UNL     1       1.207   0.449   0.622  0.00  0.00    +0.024 A 
ATOM     13  C   UNL     1       1.666  -0.544  -0.233  0.00  0.00    +0.045 A 
ATOM     14  C   UNL     1       0.806  -1.101  -1.170  0.00  0.00    +0.024 A 
ATOM     15  C   UNL     1      -0.502  -0.664  -1.251  0.00  0.00    +0.002 A 
ENDBRANCH   1  13
BRANCH   4  16
ATOM     16  C   UNL     1       4.891  -3.525   1.321  0.00  0.00    +0.069 C 
BRANCH  16  17
ATOM     17  C   UNL     1       4.530  -2.658   2.499  0.00  0.00    -0.009 A 
ATOM     18  C   UNL     1       3.330  -2.505   3.111  0.00  0.00    +0.011 A 
ATOM     19  C   UNL     1       3.232  -1.645   4.189  0.00  0.00    +0.008 A 
ATOM     20  C   UNL     1       4.338  -0.980   4.602  0.00  0.00    +0.045 A 
ATOM     21  S   UNL     1       5.574  -1.572   3.458  0.00  0.00    -0.102 S 
ENDBRANCH  16  17
ENDBRANCH   4  16
BRANCH   4  22
ATOM     22  C   UNL     1       4.998  -3.668  -1.146  0.00  0.00    +0.110 C 
BRANCH  22  23
ATOM     23  N   UNL     1       4.905  -2.920  -2.406  0.00  0.00    -0.300 NA
ATOM     24  C   UNL     1       6.147  -2.187  -2.675  0.00  0.00    +0.089 C 
ATOM     25  C   UNL     1       6.031  -1.363  -3.950  0.00  0.00    +0.024 C 
ATOM     26  C   UNL     1       5.630  -2.248  -5.133  0.00  0.00    +0.017 C 
ATOM     27  C   UNL     1       4.313  -2.941  -4.768  0.00  0.00    +0.050 C 
ATOM     28  C   UNL     1       4.563  -3.812  -3.525  0.00  0.00    +0.094 C 
ATOM     29  C   UNL     1       3.284  -1.894  -4.406  0.00  0.00    +0.026 A 
ATOM     30  C   UNL     1       1.977  -2.196  -4.625  0.00  0.00    +0.022 A 
ATOM     31  C   UNL     1       0.969  -1.299  -4.254  0.00  0.00    +0.007 A 
ATOM     32  C   UNL     1       1.319  -0.129  -3.645  0.00  0.00    +0.070 A 
ATOM     33  C   UNL     1       2.676   0.149  -3.430  0.00  0.00    +0.251 A 
ATOM     34  O   UNL     1       2.997   1.163  -2.831  0.00  0.00    -0.268 OA
ATOM     35  N   UNL     1       3.635  -0.697  -3.881  0.00  0.00    -0.312 N 
ATOM     36  C   UNL     1       5.018  -0.240  -3.807  0.00  0.00    +0.130 C 
ENDBRANCH  22  23
ENDBRANCH   4  22
TORSDOF 5
