REMARK  Name = ZINC36531341
REMARK  17 active torsions:
REMARK  status: ('A' for Active; 'I' for Inactive)
REMARK    1  A    between atoms: C_1  and  C_2
REMARK    2  A    between atoms: C_2  and  C_4
REMARK    3  A    between atoms: C_2  and  C_10
REMARK    4  A    between atoms: C_10  and  C_12
REMARK    5  A    between atoms: C_10  and  N_23
REMARK    6  A    between atoms: N_14  and  C_15
REMARK    7  A    between atoms: C_15  and  C_16
REMARK    8  A    between atoms: C_15  and  C_17
REMARK    9  A    between atoms: C_15  and  C_18
REMARK   10  A    between atoms: C_18  and  C_19
REMARK   11  A    between atoms: C_19  and  C_20
REMARK   12  A    between atoms: C_19  and  C_21
REMARK   13  A    between atoms: C_19  and  C_22
REMARK   14  A    between atoms: N_23  and  C_24
REMARK   15  A    between atoms: C_25  and  C_27
REMARK   16  A    between atoms: C_31  and  O_34
REMARK   17  A    between atoms: C_32  and  O_33
REMARK                            x       y       z     vdW  Elec       q    Type
REMARK                         _______ _______ _______ _____ _____    ______ ____
ROOT
ATOM      1  C   UNL     1       0.085   0.549  -0.253  0.00  0.00    +0.169 C 
ENDROOT
BRANCH   1   2
ATOM      2  C   UNL     1      -0.240   0.942  -1.671  0.00  0.00    +0.235 C 
ATOM      3  O   UNL     1      -0.526   0.090  -2.486  0.00  0.00    -0.274 OA
ATOM      4  N   UNL     1      -0.212   2.239  -2.035  0.00  0.00    -0.309 N 
ATOM      5  H   UNL     1      -0.055   2.926  -1.368  0.00  0.00    +0.149 HD
BRANCH   4   6
ATOM      6  C   UNL     1      -0.419   2.612  -3.437  0.00  0.00    +0.030 C 
ATOM      7  C   UNL     1       0.572   1.849  -4.319  0.00  0.00    +0.031 C 
ATOM      8  C   UNL     1      -1.848   2.259  -3.853  0.00  0.00    +0.031 C 
BRANCH   6   9
ATOM      9  C   UNL     1      -0.196   4.117  -3.602  0.00  0.00    +0.031 C 
BRANCH   9  10
ATOM     10  C   UNL     1       1.278   4.445  -3.352  0.00  0.00    -0.036 C 
ATOM     11  C   UNL     1       2.094   4.111  -4.603  0.00  0.00    +0.010 C 
ATOM     12  C   UNL     1       1.421   5.934  -3.031  0.00  0.00    +0.010 C 
ATOM     13  C   UNL     1       1.791   3.617  -2.172  0.00  0.00    +0.010 C 
ENDBRANCH   9  10
ENDBRANCH   6   9
ENDBRANCH   4   6
ENDBRANCH   1   2
BRANCH   1  14
ATOM     14  N   UNL     1       0.324  -0.895  -0.189  0.00  0.00    -0.288 N 
ATOM     15  C   UNL     1      -0.733  -1.830  -0.582  0.00  0.00    +0.133 C 
ATOM     16  C   UNL     1       1.516  -1.362   0.233  0.00  0.00    +0.251 C 
ATOM     17  O   UNL     1       2.360  -0.591   0.646  0.00  0.00    -0.270 OA
BRANCH  16  18
ATOM     18  C   UNL     1       1.796  -2.810   0.192  0.00  0.00    +0.082 A 
ATOM     19  C   UNL     1       1.513  -3.548  -0.961  0.00  0.00    +0.017 A 
ATOM     20  C   UNL     1       1.777  -4.900  -0.996  0.00  0.00    +0.005 A 
ATOM     21  C   UNL     1       2.322  -5.535   0.108  0.00  0.00    +0.049 A 
ATOM     22  C   UNL     1       2.608  -4.818   1.257  0.00  0.00    +0.159 A 
ATOM     23  C   UNL     1       2.352  -3.450   1.305  0.00  0.00    +0.171 A 
BRANCH  23  24
ATOM     24  O   UNL     1       2.636  -2.743   2.428  0.00  0.00    -0.503 OA
ATOM     25  H   UNL     1       1.908  -2.703   3.063  0.00  0.00    +0.292 HD
ENDBRANCH  23  24
BRANCH  22  26
ATOM     26  O   UNL     1       3.143  -5.448   2.337  0.00  0.00    -0.503 OA
ATOM     27  H   UNL     1       4.110  -5.464   2.344  0.00  0.00    +0.292 HD
ENDBRANCH  22  26
ENDBRANCH  16  18
ENDBRANCH   1  14
BRANCH   1  29
ATOM     28  C   UNL     1      -1.336   2.422   0.594  0.00  0.00    +0.015 C 
ATOM     29  C   UNL     1      -1.089   0.913   0.658  0.00  0.00    +0.045 C 
BRANCH  29  30
ATOM     30  C   UNL     1      -0.766   0.517   2.076  0.00  0.00    -0.042 A 
ATOM     31  C   UNL     1       0.330   1.067   2.715  0.00  0.00    +0.004 A 
ATOM     32  C   UNL     1       0.626   0.704   4.015  0.00  0.00    +0.000 A 
ATOM     33  C   UNL     1      -0.174  -0.209   4.677  0.00  0.00    +0.000 A 
ATOM     34  C   UNL     1      -1.270  -0.759   4.038  0.00  0.00    +0.000 A 
ATOM     35  C   UNL     1      -1.569  -0.392   2.740  0.00  0.00    +0.004 A 
ENDBRANCH  29  30
ENDBRANCH   1  29
TORSDOF 10
