REMARK  Name = ZINC24386397
REMARK  2 active torsions:
REMARK  status: ('A' for Active; 'I' for Inactive)
REMARK    1  A    between atoms: C_8  and  C_10
REMARK    2  A    between atoms: C_17  and  C_19
REMARK                            x       y       z     vdW  Elec       q    Type
REMARK                         _______ _______ _______ _____ _____    ______ ____
ROOT
ATOM      1  C   UNL     1       5.075   3.231   0.288  0.00  0.00    +0.132 C 
ATOM      2  C   UNL     1       6.001   3.480  -0.907  0.00  0.00    +0.029 C 
ATOM      3  C   UNL     1       7.422   3.739  -0.402  0.00  0.00    +0.004 C 
ATOM      4  C   UNL     1       7.431   4.987   0.484  0.00  0.00    +0.019 C 
ATOM      5  C   UNL     1       6.522   4.755   1.695  0.00  0.00    +0.109 C 
ATOM      6  N   UNL     1       5.189   4.363   1.218  0.00  0.00    -0.287 N 
ATOM      7  C   UNL     1       4.090   5.031   1.624  0.00  0.00    +0.263 C 
ATOM      8  O   UNL     1       2.984   4.615   1.334  0.00  0.00    -0.268 OA
ENDROOT
BRANCH   1  16
ATOM      9  C   UNL     1      -0.424   4.101  -2.374  0.00  0.00    +0.002 A 
ATOM     10  C   UNL     1      -0.938   2.917  -1.861  0.00  0.00    +0.001 A 
ATOM     11  C   UNL     1      -0.140   2.122  -1.061  0.00  0.00    +0.017 A 
ATOM     12  C   UNL     1       1.151   2.511  -0.797  0.00  0.00    +0.039 A 
ATOM     13  C   UNL     1       1.702   3.708  -1.310  0.00  0.00    +0.079 A 
ATOM     14  C   UNL     1       0.852   4.495  -2.119  0.00  0.00    +0.029 A 
ATOM     15  N   UNL     1       2.983   3.933  -0.951  0.00  0.00    -0.242 NA
ATOM     16  C   UNL     1       3.652   3.112  -0.192  0.00  0.00    +0.100 A 
ATOM     17  S   UNL     1       2.508   1.846   0.134  0.00  0.00    -0.070 S 
ENDBRANCH   1  16
BRANCH   7  18
ATOM     18  C   UNL     1       4.229   6.258   2.415  0.00  0.00    +0.103 A 
ATOM     19  C   UNL     1       3.309   6.756   3.314  0.00  0.00    +0.052 A 
ATOM     20  C   UNL     1       3.845   7.937   3.839  0.00  0.00    +0.059 A 
ATOM     21  C   UNL     1       5.056   8.135   3.263  0.00  0.00    +0.103 A 
ATOM     22  N   UNL     1       5.303   7.119   2.400  0.00  0.00    -0.356 N 
ATOM     23  H   UNL     1       6.165   6.910   1.750  0.00  0.00    +0.166 HD
ATOM     24 CL   UNL     1       3.093   8.965   5.018  0.00  0.00    -0.082 Cl
ENDBRANCH   7  18
TORSDOF 2
