REMARK  Name = ZINC13010799
REMARK  10 active torsions:
REMARK  status: ('A' for Active; 'I' for Inactive)
REMARK    1  A    between atoms: C_1  and  C_2
REMARK    2  A    between atoms: C_2  and  N_47
REMARK    3  A    between atoms: C_3  and  C_4
REMARK    4  A    between atoms: C_3  and  N_47
REMARK    5  A    between atoms: C_5  and  C_6
REMARK    6  A    between atoms: C_5  and  N_47
REMARK    7  A    between atoms: C_11  and  C_12
REMARK    8  A    between atoms: C_12  and  N_13
REMARK    9  A    between atoms: N_13  and  S_14
REMARK   10  A    between atoms: S_14  and  C_17
REMARK                            x       y       z     vdW  Elec       q    Type
REMARK                         _______ _______ _______ _____ _____    ______ ____
ROOT
ATOM      1  C   UNL     1      -0.673  -2.566   0.378  0.00  0.00    -0.059 A 
ATOM      2  C   UNL     1      -0.366  -3.793  -0.179  0.00  0.00    +0.002 A 
ATOM      3  C   UNL     1      -0.736  -4.074  -1.481  0.00  0.00    +0.000 A 
ATOM      4  C   UNL     1      -1.413  -3.126  -2.226  0.00  0.00    +0.000 A 
ATOM      5  C   UNL     1      -1.725  -1.901  -1.667  0.00  0.00    +0.005 A 
ATOM      6  C   UNL     1      -1.350  -1.619  -0.367  0.00  0.00    -0.031 A 
ENDROOT
BRANCH   1   7
ATOM      7  C   UNL     1      -0.269  -2.261   1.798  0.00  0.00    -0.043 C 
BRANCH   7   8
ATOM      8  N   UNL     1      -1.448  -2.427   2.675  0.00  0.00    +0.382 N 
ATOM      9  H   UNL     1      -2.230  -1.885   2.289  0.00  0.00    -0.081 HD
BRANCH   8  11
ATOM     10  C   UNL     1      -0.704  -4.692   3.330  0.00  0.00    -0.017 C 
ATOM     11  C   UNL     1      -1.836  -3.853   2.734  0.00  0.00    -0.082 C 
ENDBRANCH   8  11
BRANCH   8  12
ATOM     12  C   UNL     1      -1.141  -1.930   4.032  0.00  0.00    -0.082 C 
ATOM     13  C   UNL     1      -2.452  -1.774   4.806  0.00  0.00    -0.017 C 
ENDBRANCH   8  12
ENDBRANCH   7   8
ENDBRANCH   1   7
BRANCH   6  14
ATOM     14  C   UNL     1      -1.685  -0.281   0.241  0.00  0.00    +0.141 C 
BRANCH  14  15
ATOM     15  N   UNL     1      -0.503   0.584   0.199  0.00  0.00    -0.186 NA
ATOM     16  H   UNL     1       0.372   0.202   0.025  0.00  0.00    +0.148 HD
BRANCH  15  17
ATOM     17  S   UNL     1      -0.660   2.214   0.448  0.00  0.00    +0.059 S 
ATOM     18  O   UNL     1       0.648   2.764   0.372  0.00  0.00    -0.153 OA
ATOM     19  O   UNL     1      -1.721   2.652  -0.390  0.00  0.00    -0.153 OA
BRANCH  17  20
ATOM     20  C   UNL     1      -1.205   2.437   2.108  0.00  0.00    +0.107 A 
ATOM     21  C   UNL     1      -2.558   2.476   2.392  0.00  0.00    +0.028 A 
ATOM     22  C   UNL     1      -2.986   2.646   3.695  0.00  0.00    +0.003 A 
ATOM     23  C   UNL     1      -2.062   2.788   4.714  0.00  0.00    +0.020 A 
ATOM     24  C   UNL     1      -0.709   2.754   4.430  0.00  0.00    +0.043 A 
ATOM     25  C   UNL     1      -0.281   2.578   3.126  0.00  0.00    +0.048 A 
ATOM     26 CL   UNL     1       0.452   2.932   5.708  0.00  0.00    -0.083 Cl
ENDBRANCH  17  20
ENDBRANCH  15  17
ENDBRANCH  14  15
ENDBRANCH   6  14
TORSDOF 8
