REMARK  Name = ZINC38935652
REMARK  7 active torsions:
REMARK  status: ('A' for Active; 'I' for Inactive)
REMARK    1  A    between atoms: C_1  and  O_2
REMARK    2  A    between atoms: O_2  and  C_3
REMARK    3  A    between atoms: C_6  and  C_11
REMARK    4  A    between atoms: C_8  and  O_9
REMARK    5  A    between atoms: O_9  and  C_10
REMARK    6  A    between atoms: C_13  and  C_17
REMARK    7  A    between atoms: C_26  and  O_27
REMARK                            x       y       z     vdW  Elec       q    Type
REMARK                         _______ _______ _______ _____ _____    ______ ____
ROOT
ATOM      1  C   UNL     1       2.581  -2.538   4.300  0.00  0.00    +0.089 C 
ATOM      2  C   UNL     1       3.166  -1.896   5.330  0.00  0.00    +0.033 C 
ATOM      3  C   UNL     1       3.704  -3.018   6.199  0.00  0.00    +0.157 C 
ATOM      4  N   UNL     1       3.308  -4.231   5.465  0.00  0.00    -0.297 N 
ATOM      5  N   UNL     1       2.699  -3.884   4.452  0.00  0.00    -0.178 NA
ATOM      6  H   UNL     1       3.490  -5.145   5.735  0.00  0.00    +0.183 HD
ENDROOT
BRANCH   3   7
ATOM      7  C   UNL     1       3.067  -2.986   7.564  0.00  0.00    +0.022 A 
ATOM      8  C   UNL     1       2.025  -3.861   7.857  0.00  0.00    +0.010 A 
ATOM      9  C   UNL     1       1.427  -3.858   9.080  0.00  0.00    +0.009 A 
ATOM     10  C   UNL     1       1.865  -2.960  10.068  0.00  0.00    -0.014 A 
ATOM     11  C   UNL     1       1.271  -2.930  11.342  0.00  0.00    +0.008 A 
ATOM     12  C   UNL     1       1.721  -2.047  12.274  0.00  0.00    +0.001 A 
ATOM     13  C   UNL     1       2.764  -1.169  11.986  0.00  0.00    +0.001 A 
ATOM     14  C   UNL     1       3.363  -1.170  10.763  0.00  0.00    +0.012 A 
ATOM     15  C   UNL     1       2.925  -2.067   9.776  0.00  0.00    +0.024 A 
ATOM     16  C   UNL     1       3.525  -2.102   8.500  0.00  0.00    +0.130 A 
BRANCH  16  17
ATOM     17  O   UNL     1       4.546  -1.258   8.202  0.00  0.00    -0.506 OA
ATOM     18  H   UNL     1       4.262  -0.411   7.830  0.00  0.00    +0.292 HD
ENDBRANCH  16  17
ENDBRANCH   3   7
BRANCH   1  22
ATOM     19  C   UNL     1       0.626  -0.619   1.042  0.00  0.00    +0.162 A 
ATOM     20  C   UNL     1       1.202   0.140   2.050  0.00  0.00    +0.050 A 
ATOM     21  C   UNL     1       1.835  -0.480   3.107  0.00  0.00    +0.014 A 
ATOM     22  C   UNL     1       1.899  -1.871   3.164  0.00  0.00    +0.005 A 
ATOM     23  C   UNL     1       1.321  -2.635   2.151  0.00  0.00    +0.059 A 
ATOM     24  C   UNL     1       0.681  -2.009   1.096  0.00  0.00    +0.162 A 
BRANCH  19  26
ATOM     25  C   UNL     1      -0.017   1.425   0.010  0.00  0.00    +0.277 C 
ATOM     26  O   UNL     1       0.002  -0.004   0.002  0.00  0.00    -0.491 OA
ENDBRANCH  19  26
BRANCH  24  27
ATOM     27  O   UNL     1       0.112  -2.751   0.109  0.00  0.00    -0.491 OA
ATOM     28  C   UNL     1       0.207  -4.172   0.229  0.00  0.00    +0.277 C 
ENDBRANCH  24  27
ENDBRANCH   1  22
TORSDOF 5
