REMARK  Name = ZINC39914763
REMARK  12 active torsions:
REMARK  status: ('A' for Active; 'I' for Inactive)
REMARK    1  A    between atoms: C_1  and  C_2
REMARK    2  A    between atoms: C_2  and  C_3
REMARK    3  A    between atoms: C_3  and  C_4
REMARK    4  A    between atoms: C_4  and  O_5
REMARK    5  A    between atoms: O_5  and  C_6
REMARK    6  A    between atoms: C_10  and  C_12
REMARK    7  A    between atoms: C_15  and  C_31
REMARK    8  A    between atoms: N_22  and  C_23
REMARK    9  A    between atoms: C_23  and  C_24
REMARK   10  A    between atoms: C_27  and  C_30
REMARK   11  A    between atoms: C_34  and  C_38
REMARK   12  A    between atoms: C_36  and  O_37
REMARK                            x       y       z     vdW  Elec       q    Type
REMARK                         _______ _______ _______ _____ _____    ______ ____
ROOT
ATOM      1  C   UNL     1      -5.259  -6.514  -0.163  0.00  0.00    +0.142 C 
ATOM      2  C   UNL     1      -5.952  -6.797  -1.468  0.00  0.00    +0.035 A 
ATOM      3  C   UNL     1      -6.426  -6.295  -2.685  0.00  0.00    +0.102 A 
ATOM      4  N   UNL     1      -6.970  -7.300  -3.342  0.00  0.00    -0.173 NA
ATOM      5  N   UNL     1      -6.887  -8.387  -2.660  0.00  0.00    -0.272 N 
ATOM      6  H   UNL     1      -7.221  -9.251  -2.948  0.00  0.00    +0.189 HD
ATOM      7  C   UNL     1      -6.259  -8.144  -1.472  0.00  0.00    +0.126 A 
ATOM      8  C   UNL     1      -5.786  -8.734  -0.215  0.00  0.00    +0.266 C 
ATOM      9  O   UNL     1      -5.904  -9.905   0.090  0.00  0.00    -0.268 OA
ATOM     10  N   UNL     1      -5.204  -7.794   0.555  0.00  0.00    -0.281 N 
ENDROOT
BRANCH   3  11
ATOM     11  C   UNL     1      -6.333  -4.888  -3.151  0.00  0.00    +0.045 A 
ATOM     12  C   UNL     1      -5.840  -3.901  -2.301  0.00  0.00    +0.034 A 
ATOM     13  C   UNL     1      -5.756  -2.594  -2.739  0.00  0.00    +0.045 A 
ATOM     14  C   UNL     1      -6.160  -2.261  -4.021  0.00  0.00    -0.029 A 
ATOM     15  C   UNL     1      -6.651  -3.234  -4.871  0.00  0.00    +0.050 A 
ATOM     16  C   UNL     1      -6.735  -4.550  -4.446  0.00  0.00    +0.126 A 
ATOM     17  C   UNL     1      -6.065  -0.833  -4.490  0.00  0.00    +0.045 C 
ATOM     18 CL   UNL     1      -5.142  -1.364  -1.679  0.00  0.00    -0.083 Cl
BRANCH  16  19
ATOM     19  O   UNL     1      -7.212  -5.508  -5.283  0.00  0.00    -0.506 OA
ATOM     20  H   UNL     1      -8.169  -5.634  -5.232  0.00  0.00    +0.292 HD
ENDBRANCH  16  19
ENDBRANCH   3  11
BRANCH   1  25
ATOM     21  C   UNL     1      -2.267  -4.215  -0.360  0.00  0.00    +0.121 A 
ATOM     22  C   UNL     1      -1.303  -5.064  -0.885  0.00  0.00    +0.045 A 
ATOM     23  C   UNL     1      -1.623  -6.376  -1.174  0.00  0.00    +0.004 A 
ATOM     24  C   UNL     1      -2.903  -6.844  -0.940  0.00  0.00    +0.006 A 
ATOM     25  C   UNL     1      -3.865  -6.001  -0.417  0.00  0.00    -0.019 A 
ATOM     26  C   UNL     1      -3.549  -4.689  -0.121  0.00  0.00    +0.051 A 
BRANCH  21  27
ATOM     27  O   UNL     1      -1.954  -2.924  -0.075  0.00  0.00    -0.492 OA
BRANCH  27  28
ATOM     28  C   UNL     1      -0.616  -2.505  -0.346  0.00  0.00    +0.229 C 
BRANCH  28  29
ATOM     29  C   UNL     1      -0.454  -1.033   0.036  0.00  0.00    +0.041 C 
BRANCH  29  31
ATOM     30  C   UNL     1       1.141   0.888   0.128  0.00  0.00    +0.004 C 
ATOM     31  C   UNL     1       0.980  -0.584  -0.255  0.00  0.00    -0.000 C 
ENDBRANCH  29  31
ENDBRANCH  28  29
ENDBRANCH  27  28
ENDBRANCH  21  27
ENDBRANCH   1  25
BRANCH  10  32
ATOM     32  C   UNL     1      -4.615  -8.011   1.879  0.00  0.00    +0.144 C 
BRANCH  32  33
ATOM     33  C   UNL     1      -5.667  -7.801   2.937  0.00  0.00    -0.030 A 
ATOM     34  C   UNL     1      -5.862  -6.544   3.478  0.00  0.00    +0.005 A 
ATOM     35  C   UNL     1      -6.827  -6.351   4.449  0.00  0.00    +0.003 A 
ATOM     36  C   UNL     1      -7.598  -7.415   4.878  0.00  0.00    -0.050 A 
ATOM     37  C   UNL     1      -7.404  -8.672   4.336  0.00  0.00    +0.003 A 
ATOM     38  C   UNL     1      -6.441  -8.864   3.362  0.00  0.00    +0.005 A 
ATOM     39  C   UNL     1      -8.649  -7.205   5.937  0.00  0.00    +0.044 C 
ENDBRANCH  32  33
ENDBRANCH  10  32
TORSDOF 9
