REMARK  Name = ZINC06014891
REMARK  15 active torsions:
REMARK  status: ('A' for Active; 'I' for Inactive)
REMARK    1  A    between atoms: C_1  and  C_2
REMARK    2  A    between atoms: C_2  and  C_3
REMARK    3  A    between atoms: C_2  and  C_4
REMARK    4  A    between atoms: C_2  and  N_5
REMARK    5  A    between atoms: C_6  and  C_10
REMARK    6  A    between atoms: C_10  and  C_12
REMARK    7  A    between atoms: C_10  and  N_70
REMARK    8  A    between atoms: C_16  and  O_26
REMARK    9  A    between atoms: C_17  and  O_24
REMARK   10  A    between atoms: O_24  and  C_25
REMARK   11  A    between atoms: O_26  and  C_27
REMARK   12  A    between atoms: C_28  and  C_29
REMARK   13  A    between atoms: C_28  and  N_70
REMARK   14  A    between atoms: C_35  and  C_36
REMARK   15  A    between atoms: C_35  and  N_70
REMARK                            x       y       z     vdW  Elec       q    Type
REMARK                         _______ _______ _______ _____ _____    ______ ____
ROOT
ATOM      1  C   UNL     1       1.776   3.116   0.231  0.00  0.00    +0.040 C 
ENDROOT
BRANCH   1   2
ATOM      2  C   UNL     1       1.046   3.706  -0.948  0.00  0.00    +0.011 A 
ATOM      3  C   UNL     1       0.150   4.709  -0.756  0.00  0.00    +0.017 A 
ATOM      4  C   UNL     1      -0.537   5.264  -1.921  0.00  0.00    +0.002 A 
ATOM      5  C   UNL     1      -1.467   6.303  -1.782  0.00  0.00    +0.059 A 
ATOM      6  C   UNL     1      -2.103   6.801  -2.898  0.00  0.00    +0.162 A 
ATOM      7  C   UNL     1      -1.823   6.275  -4.164  0.00  0.00    +0.163 A 
ATOM      8  C   UNL     1      -0.907   5.250  -4.311  0.00  0.00    +0.075 A 
ATOM      9  C   UNL     1      -0.257   4.735  -3.196  0.00  0.00    +0.053 A 
ATOM     10  N   UNL     1       0.660   3.711  -3.321  0.00  0.00    -0.322 N 
ATOM     11  H   UNL     1       0.858   3.336  -4.227  0.00  0.00    +0.169 HD
ATOM     12  C   UNL     1       1.290   3.211  -2.245  0.00  0.00    +0.251 A 
ATOM     13  O   UNL     1       2.095   2.307  -2.393  0.00  0.00    -0.268 OA
BRANCH   7  14
ATOM     14  O   UNL     1      -2.456   6.774  -5.256  0.00  0.00    -0.491 OA
ATOM     15  C   UNL     1      -2.126   6.193  -6.519  0.00  0.00    +0.277 C 
ENDBRANCH   7  14
BRANCH   6  16
ATOM     16  O   UNL     1      -3.007   7.809  -2.769  0.00  0.00    -0.491 OA
ATOM     17  C   UNL     1      -3.246   8.301  -1.449  0.00  0.00    +0.277 C 
ENDBRANCH   6  16
ENDBRANCH   1   2
BRANCH   1  19
ATOM     18  N   UNL     1       3.975   4.234   0.879  0.00  0.00    -0.225 N 
ATOM     19  C   UNL     1       3.249   3.405   0.105  0.00  0.00    +0.143 A 
ATOM     20  N   UNL     1       4.075   2.894  -0.775  0.00  0.00    -0.115 NA
ATOM     21  N   UNL     1       5.244   3.389  -0.559  0.00  0.00    -0.023 NA
ATOM     22  N   UNL     1       5.188   4.197   0.442  0.00  0.00    -0.043 NA
BRANCH  18  24
ATOM     23  C   UNL     1       2.942   4.096   3.091  0.00  0.00    +0.036 C 
ATOM     24  C   UNL     1       3.479   5.030   2.005  0.00  0.00    +0.059 C 
ATOM     25  C   UNL     1       4.622   5.872   2.575  0.00  0.00    +0.036 C 
ATOM     26  C   UNL     1       2.357   5.951   1.524  0.00  0.00    +0.036 C 
ENDBRANCH  18  24
ENDBRANCH   1  19
BRANCH   1  27
ATOM     27  N   UNL     1       1.573   1.652   0.238  0.00  0.00    +0.397 N 
ATOM     28  H   UNL     1       1.969   1.257  -0.624  0.00  0.00    -0.079 HD
BRANCH  27  29
ATOM     29  C   UNL     1       2.261   1.052   1.401  0.00  0.00    -0.039 C 
BRANCH  29  30
ATOM     30  C   UNL     1       2.436  -0.423   1.150  0.00  0.00    -0.046 A 
ATOM     31  C   UNL     1       1.449  -1.321   1.527  0.00  0.00    +0.005 A 
ATOM     32  C   UNL     1       1.651  -2.669   1.272  0.00  0.00    +0.020 A 
ATOM     33  C   UNL     1       2.826  -3.071   0.664  0.00  0.00    +0.111 A 
ATOM     34  N   UNL     1       3.745  -2.189   0.324  0.00  0.00    -0.263 NA
ATOM     35  C   UNL     1       3.585  -0.899   0.547  0.00  0.00    +0.112 A 
ENDBRANCH  29  30
ENDBRANCH  27  29
BRANCH  27  36
ATOM     36  C   UNL     1       0.129   1.342   0.290  0.00  0.00    -0.001 C 
BRANCH  36  37
ATOM     37  C   UNL     1      -0.476   1.857   1.570  0.00  0.00    +0.089 A 
ATOM     38  C   UNL     1      -1.100   3.039   1.725  0.00  0.00    +0.042 A 
ATOM     39  C   UNL     1      -1.508   3.112   3.077  0.00  0.00    +0.041 A 
ATOM     40  C   UNL     1      -1.109   1.971   3.667  0.00  0.00    +0.195 A 
ATOM     41  O   UNL     1      -0.490   1.212   2.748  0.00  0.00    -0.470 OA
ENDBRANCH  36  37
ENDBRANCH  27  36
ENDBRANCH   1  27
TORSDOF 10
