REMARK  Name = ZINC05765503
REMARK  12 active torsions:
REMARK  status: ('A' for Active; 'I' for Inactive)
REMARK    1  A    between atoms: C_1  and  C_2
REMARK    2  A    between atoms: C_3  and  C_4
REMARK    3  A    between atoms: C_3  and  C_5
REMARK    4  A    between atoms: C_5  and  O_7
REMARK    5  A    between atoms: O_7  and  C_8
REMARK    6  A    between atoms: C_11  and  C_30
REMARK    7  A    between atoms: C_17  and  O_26
REMARK    8  A    between atoms: C_18  and  C_25
REMARK    9  A    between atoms: C_19  and  C_23
REMARK   10  A    between atoms: C_19  and  O_24
REMARK   11  A    between atoms: O_26  and  C_27
REMARK   12  A    between atoms: C_27  and  C_29
REMARK                            x       y       z     vdW  Elec       q    Type
REMARK                         _______ _______ _______ _____ _____    ______ ____
ROOT
ATOM      1  C   UNL     1      -0.019   1.531   0.011  0.00  0.00    +0.224 C 
ATOM      2  C   UNL     1       1.407   2.015  -0.001  0.00  0.00    +0.045 A 
ATOM      3  C   UNL     1       1.956   3.202   0.464  0.00  0.00    -0.005 A 
ATOM      4  C   UNL     1       3.290   3.143   0.222  0.00  0.00    +0.199 A 
ATOM      5  O   UNL     1       3.579   1.972  -0.368  0.00  0.00    -0.459 OA
ATOM      6  C   UNL     1       2.453   1.266  -0.525  0.00  0.00    +0.181 A 
ATOM      7  C   UNL     1       2.244  -0.012  -1.095  0.00  0.00    +0.242 C 
ATOM      8  O   UNL     1       3.174  -0.678  -1.501  0.00  0.00    -0.284 OA
ATOM      9  C   UNL     1       0.822  -0.520  -1.180  0.00  0.00    +0.190 C 
ATOM     10  C   UNL     1       0.002  -0.004   0.002  0.00  0.00    +0.085 C 
ATOM     11  C   UNL     1       0.618  -0.505   1.310  0.00  0.00    +0.076 C 
ATOM     12  C   UNL     1       0.620  -2.035   1.319  0.00  0.00    +0.035 C 
ATOM     13  C   UNL     1       1.447  -2.549   0.138  0.00  0.00    +0.007 C 
ATOM     14  C   UNL     1       0.832  -2.050  -1.171  0.00  0.00    +0.057 C 
ATOM     15  C   UNL     1      -0.205   0.011   2.492  0.00  0.00    +0.042 C 
ATOM     16  C   UNL     1      -1.431  -0.530  -0.107  0.00  0.00    +0.023 C 
ATOM     17  C   UNL     1       1.212   4.340   1.114  0.00  0.00    +0.047 C 
ENDROOT
BRANCH  11  18
ATOM     18  O   UNL     1       1.960  -0.026   1.419  0.00  0.00    -0.388 OA
ATOM     19  H   UNL     1       2.414  -0.306   2.226  0.00  0.00    +0.210 HD
ENDBRANCH  11  18
BRANCH   1  20
ATOM     20  O   UNL     1      -0.712   2.019  -1.168  0.00  0.00    -0.452 OA
BRANCH  20  21
ATOM     21  C   UNL     1      -1.360   3.195  -1.054  0.00  0.00    +0.335 C 
ATOM     22  O   UNL     1      -1.346   3.796   0.002  0.00  0.00    -0.245 OA
BRANCH  21  25
ATOM     23  C   UNL     1      -2.706   5.658  -0.784  0.00  0.00    +0.036 C 
ATOM     24  C   UNL     1      -2.723   4.912  -2.093  0.00  0.00    -0.020 C 
ATOM     25  C   UNL     1      -2.083   3.751  -2.206  0.00  0.00    +0.029 C 
ATOM     26  C   UNL     1      -2.101   3.005  -3.516  0.00  0.00    +0.051 C 
ENDBRANCH  21  25
ENDBRANCH  20  21
ENDBRANCH   1  20
BRANCH   9  27
ATOM     27  O   UNL     1       0.227  -0.051  -2.419  0.00  0.00    -0.449 OA
BRANCH  27  28
ATOM     28  C   UNL     1       0.829  -0.417  -3.561  0.00  0.00    +0.305 C 
ATOM     29  O   UNL     1       1.821  -1.107  -3.527  0.00  0.00    -0.251 OA
ATOM     30  C   UNL     1       0.269   0.032  -4.886  0.00  0.00    +0.136 C 
ENDBRANCH  27  28
ENDBRANCH   9  27
TORSDOF 6
