REMARK  Name = ZINC57531358
REMARK  8 active torsions:
REMARK  status: ('A' for Active; 'I' for Inactive)
REMARK    1  A    between atoms: C_1  and  C_2
REMARK    2  A    between atoms: C_2  and  O_3
REMARK    3  A    between atoms: O_3  and  C_4
REMARK    4  A    between atoms: C_4  and  C_6
REMARK    5  A    between atoms: C_8  and  C_20
REMARK    6  A    between atoms: C_14  and  C_15
REMARK    7  A    between atoms: C_14  and  O_19
REMARK    8  A    between atoms: C_25  and  N_26
REMARK                            x       y       z     vdW  Elec       q    Type
REMARK                         _______ _______ _______ _____ _____    ______ ____
ROOT
ATOM      1  C   UNL     1       1.468  -2.353  -2.550  0.00  0.00    +0.181 C 
ATOM      2  C   UNL     1       1.443  -3.885  -2.497  0.00  0.00    +0.123 C 
ATOM      3  N   UNL     1       0.056  -4.346  -2.573  0.00  0.00    -0.319 N 
ATOM      4  C   UNL     1      -0.881  -3.635  -3.219  0.00  0.00    +0.133 C 
ATOM      5  S   UNL     1      -2.479  -4.245  -3.278  0.00  0.00    -0.019 S 
ATOM      6  N   UNL     1      -0.614  -2.466  -3.820  0.00  0.00    -0.291 N 
ATOM      7  C   UNL     1       0.737  -1.894  -3.816  0.00  0.00    +0.244 C 
ATOM      8  H   UNL     1      -0.191  -5.182  -2.148  0.00  0.00    +0.148 HD
ATOM      9  H   UNL     1      -1.330  -1.988  -4.267  0.00  0.00    +0.151 HD
ENDROOT
BRANCH   2  10
ATOM     10  C   UNL     1       2.061  -4.354  -1.204  0.00  0.00    +0.004 A 
ATOM     11  C   UNL     1       1.252  -4.737  -0.150  0.00  0.00    +0.008 A 
ATOM     12  C   UNL     1       1.818  -5.167   1.035  0.00  0.00    +0.000 A 
ATOM     13  C   UNL     1       3.194  -5.215   1.166  0.00  0.00    +0.002 A 
ATOM     14  C   UNL     1       4.002  -4.833   0.112  0.00  0.00    +0.033 A 
ATOM     15  C   UNL     1       3.436  -4.407  -1.075  0.00  0.00    +0.131 A 
BRANCH  15  16
ATOM     16  N   UNL     1       4.302  -4.003  -2.205  0.00  0.00    +0.057 N 
ATOM     17  O   UNL     1       5.505  -4.049  -2.092  0.00  0.00    -0.126 OA
ATOM     18  O   UNL     1       3.806  -3.626  -3.242  0.00  0.00    -0.126 OA
ENDBRANCH  15  16
ENDBRANCH   2  10
BRANCH   7  19
ATOM     19  C   UNL     1       1.500  -2.377  -5.051  0.00  0.00    +0.436 C 
ATOM     20  F   UNL     1       1.573  -3.774  -5.037  0.00  0.00    -0.166 F 
ATOM     21  F   UNL     1       0.832  -1.956  -6.206  0.00  0.00    -0.166 F 
ATOM     22  F   UNL     1       2.793  -1.842  -5.039  0.00  0.00    -0.166 F 
ENDBRANCH   7  19
BRANCH   1  23
ATOM     23  C   UNL     1       0.775  -1.794  -1.334  0.00  0.00    +0.317 C 
ATOM     24  O   UNL     1       0.314  -2.540  -0.504  0.00  0.00    -0.250 OA
BRANCH  23  25
ATOM     25  O   UNL     1       0.671  -0.465  -1.174  0.00  0.00    -0.465 OA
BRANCH  25  27
ATOM     26  C   UNL     1      -0.019   1.526   0.010  0.00  0.00    +0.048 C 
ATOM     27  C   UNL     1       0.002  -0.004   0.002  0.00  0.00    +0.229 C 
ENDBRANCH  25  27
ENDBRANCH  23  25
ENDBRANCH   1  23
BRANCH   7  28
ATOM     28  O   UNL     1       0.658  -0.467  -3.830  0.00  0.00    -0.364 OA
ATOM     29  H   UNL     1       0.206  -0.106  -4.605  0.00  0.00    +0.212 HD
ENDBRANCH   7  28
TORSDOF 7
