REMARK  Name = ZINC36716980
REMARK  5 active torsions:
REMARK  status: ('A' for Active; 'I' for Inactive)
REMARK    1  A    between atoms: C_3  and  C_6
REMARK    2  A    between atoms: C_9  and  S_12
REMARK    3  A    between atoms: S_12  and  C_13
REMARK    4  A    between atoms: C_13  and  C_14
REMARK    5  A    between atoms: N_16  and  C_17
REMARK                            x       y       z     vdW  Elec       q    Type
REMARK                         _______ _______ _______ _____ _____    ______ ____
ROOT
ATOM      1  C   UNL     1       7.558   5.304  -0.052  0.00  0.00    +0.172 C 
ENDROOT
BRANCH   1   2
ATOM      2  C   UNL     1       8.876   6.035  -0.048  0.00  0.00    +0.227 C 
ATOM      3  O   UNL     1       9.915   5.410  -0.061  0.00  0.00    -0.275 OA
ATOM      4  N   UNL     1       8.899   7.382  -0.029  0.00  0.00    -0.284 N 
ATOM      5  H   UNL     1       8.070   7.882  -0.083  0.00  0.00    +0.155 HD
BRANCH   4   6
ATOM      6  C   UNL     1      10.120   8.059   0.070  0.00  0.00    +0.053 A 
ATOM      7  C   UNL     1      11.255   7.540  -0.538  0.00  0.00    +0.044 A 
ATOM      8  C   UNL     1      12.459   8.212  -0.439  0.00  0.00    +0.043 A 
ATOM      9  C   UNL     1      12.534   9.400   0.266  0.00  0.00    +0.021 A 
ATOM     10  C   UNL     1      11.406   9.920   0.873  0.00  0.00    +0.023 A 
ATOM     11  C   UNL     1      10.198   9.256   0.773  0.00  0.00    +0.062 A 
ATOM     12 CL   UNL     1       8.780   9.912   1.530  0.00  0.00    -0.082 Cl
ATOM     13 CL   UNL     1      13.879   7.563  -1.199  0.00  0.00    -0.083 Cl
ENDBRANCH   4   6
ENDBRANCH   1   2
BRANCH   1  14
ATOM     14  S   UNL     1       7.858   3.515  -0.078  0.00  0.00    -0.095 S 
BRANCH  14  18
ATOM     15  C   UNL     1       3.740   1.823  -0.083  0.00  0.00    +0.100 A 
ATOM     16  C   UNL     1       4.810   0.917  -0.101  0.00  0.00    +0.033 A 
ATOM     17  C   UNL     1       6.085   1.424  -0.100  0.00  0.00    +0.039 A 
ATOM     18  C   UNL     1       6.243   2.812  -0.081  0.00  0.00    +0.120 A 
ATOM     19  N   UNL     1       5.177   3.599  -0.065  0.00  0.00    -0.142 NA
ATOM     20  N   UNL     1       3.982   3.129  -0.071  0.00  0.00    -0.148 NA
BRANCH  15  23
ATOM     21  C   UNL     1      -0.015   1.351  -0.075  0.00  0.00    +0.008 A 
ATOM     22  C   UNL     1       1.179   2.039  -0.072  0.00  0.00    +0.018 A 
ATOM     23  C   UNL     1       2.349   1.327  -0.083  0.00  0.00    +0.039 A 
ATOM     24  S   UNL     1       1.755  -0.356  -0.098  0.00  0.00    -0.095 S 
ATOM     25  C   UNL     1       0.004  -0.006  -0.089  0.00  0.00    +0.046 A 
ENDBRANCH  15  23
ENDBRANCH  14  18
ENDBRANCH   1  14
TORSDOF 5
