REMARK  Name = ZINC36493752
REMARK  15 active torsions:
REMARK  status: ('A' for Active; 'I' for Inactive)
REMARK    1  A    between atoms: C_1  and  C_2
REMARK    2  A    between atoms: C_2  and  C_3
REMARK    3  A    between atoms: C_3  and  C_4
REMARK    4  A    between atoms: C_4  and  C_5
REMARK    5  A    between atoms: N_7  and  C_8
REMARK    6  A    between atoms: N_7  and  C_14
REMARK    7  A    between atoms: C_14  and  C_16
REMARK    8  A    between atoms: C_14  and  C_25
REMARK    9  A    between atoms: C_19  and  O_24
REMARK   10  A    between atoms: C_20  and  O_22
REMARK   11  A    between atoms: O_22  and  C_23
REMARK   12  A    between atoms: N_27  and  C_28
REMARK   13  A    between atoms: C_28  and  S_29
REMARK   14  A    between atoms: S_29  and  C_32
REMARK   15  A    between atoms: C_35  and  C_38
REMARK                            x       y       z     vdW  Elec       q    Type
REMARK                         _______ _______ _______ _____ _____    ______ ____
ROOT
ATOM      1  C   UNL     1       2.168  -4.472   4.029  0.00  0.00    +0.193 C 
ENDROOT
BRANCH   1   2
ATOM      2  C   UNL     1       0.981  -5.216   4.584  0.00  0.00    -0.015 A 
ATOM      3  C   UNL     1       1.101  -6.551   4.925  0.00  0.00    +0.010 A 
ATOM      4  C   UNL     1       0.014  -7.237   5.434  0.00  0.00    +0.049 A 
ATOM      5  C   UNL     1      -1.198  -6.588   5.604  0.00  0.00    +0.158 A 
ATOM      6  C   UNL     1      -1.319  -5.245   5.261  0.00  0.00    +0.162 A 
ATOM      7  C   UNL     1      -0.225  -4.561   4.756  0.00  0.00    +0.055 A 
BRANCH   6   8
ATOM      8  O   UNL     1      -2.506  -4.603   5.426  0.00  0.00    -0.491 OA
ATOM      9  C   UNL     1      -2.557  -3.225   5.053  0.00  0.00    +0.277 C 
ENDBRANCH   6   8
BRANCH   5  10
ATOM     10  O   UNL     1      -2.268  -7.262   6.105  0.00  0.00    -0.503 OA
ATOM     11  H   UNL     1      -2.339  -7.227   7.069  0.00  0.00    +0.292 HD
ENDBRANCH   5  10
ENDBRANCH   1   2
BRANCH   1  12
ATOM     12  C   UNL     1       3.310  -5.433   3.821  0.00  0.00    +0.239 C 
ATOM     13  O   UNL     1       3.769  -5.598   2.710  0.00  0.00    -0.273 OA
ATOM     14  N   UNL     1       3.822  -6.109   4.868  0.00  0.00    -0.294 N 
ATOM     15  H   UNL     1       3.455  -5.977   5.756  0.00  0.00    +0.150 HD
BRANCH  14  16
ATOM     16  C   UNL     1       4.932  -7.043   4.666  0.00  0.00    +0.278 C 
BRANCH  16  17
ATOM     17  S   UNL     1       6.502  -6.198   5.000  0.00  0.00    +0.013 S 
ATOM     18  O   UNL     1       7.585  -7.108   4.869  0.00  0.00    -0.168 OA
ATOM     19  O   UNL     1       6.530  -4.939   4.341  0.00  0.00    -0.168 OA
BRANCH  17  20
ATOM     20  C   UNL     1       6.449  -5.806   6.716  0.00  0.00    +0.090 A 
ATOM     21  C   UNL     1       5.911  -4.603   7.134  0.00  0.00    +0.027 A 
ATOM     22  C   UNL     1       5.870  -4.295   8.481  0.00  0.00    +0.005 A 
ATOM     23  C   UNL     1       6.365  -5.190   9.411  0.00  0.00    -0.050 A 
ATOM     24  C   UNL     1       6.902  -6.394   8.993  0.00  0.00    +0.005 A 
ATOM     25  C   UNL     1       6.940  -6.703   7.646  0.00  0.00    +0.027 A 
ATOM     26  C   UNL     1       6.321  -4.854  10.879  0.00  0.00    +0.044 C 
ENDBRANCH  17  20
ENDBRANCH  16  17
ENDBRANCH  14  16
ENDBRANCH   1  12
BRANCH   1  29
ATOM     27  C   UNL     1       1.929  -2.528   2.580  0.00  0.00    +0.217 C 
ATOM     28  O   UNL     1       2.444  -1.852   3.445  0.00  0.00    -0.276 OA
ATOM     29  N   UNL     1       1.806  -3.860   2.748  0.00  0.00    -0.283 N 
BRANCH  29  30
ATOM     30  C   UNL     1       1.310  -4.694   1.651  0.00  0.00    +0.077 C 
ATOM     31  C   UNL     1       1.077  -6.119   2.159  0.00  0.00    +0.022 C 
ATOM     32  C   UNL     1       0.558  -6.990   1.013  0.00  0.00    +0.002 C 
ATOM     33  C   UNL     1       1.590  -7.014  -0.116  0.00  0.00    +0.000 C 
ATOM     34  C   UNL     1       1.823  -5.590  -0.624  0.00  0.00    +0.002 C 
ATOM     35  C   UNL     1       2.341  -4.718   0.522  0.00  0.00    +0.022 C 
ENDBRANCH  29  30
BRANCH  27  36
ATOM     36  C   UNL     1       1.426  -1.879   1.316  0.00  0.00    +0.096 C 
BRANCH  36  37
ATOM     37  C   UNL     1       1.530  -0.358   1.447  0.00  0.00    +0.009 C 
BRANCH  37  39
ATOM     38  C   UNL     1       1.124   1.821   0.295  0.00  0.00    +0.004 C 
ATOM     39  C   UNL     1       1.020   0.300   0.164  0.00  0.00    -0.003 C 
ENDBRANCH  37  39
ENDBRANCH  36  37
ENDBRANCH  27  36
ENDBRANCH   1  29
TORSDOF 12
