REMARK  Name = ZINC53712116
REMARK  5 active torsions:
REMARK  status: ('A' for Active; 'I' for Inactive)
REMARK    1  A    between atoms: C_1  and  C_2
REMARK    2  A    between atoms: N_5  and  C_11
REMARK    3  A    between atoms: C_7  and  C_10
REMARK    4  A    between atoms: C_16  and  S_17
REMARK    5  A    between atoms: S_17  and  C_20
REMARK                            x       y       z     vdW  Elec       q    Type
REMARK                         _______ _______ _______ _____ _____    ______ ____
ROOT
ATOM      1  C   UNL     1       2.542   0.429  -2.079  0.00  0.00    +0.055 A 
ATOM      2  C   UNL     1       2.370   1.807  -2.061  0.00  0.00    +0.025 A 
ATOM      3  C   UNL     1       3.039   2.597  -2.974  0.00  0.00    +0.002 A 
ATOM      4  C   UNL     1       3.879   2.018  -3.908  0.00  0.00    +0.002 A 
ATOM      5  C   UNL     1       4.053   0.646  -3.929  0.00  0.00    +0.029 A 
ATOM      6  C   UNL     1       3.392  -0.149  -3.014  0.00  0.00    +0.115 A 
ENDROOT
BRANCH   1  10
ATOM      7  C   UNL     1      -0.439   1.018   0.021  0.00  0.00    -0.012 C 
ATOM      8  C   UNL     1      -0.355  -0.498  -0.164  0.00  0.00    -0.057 C 
ATOM      9  C   UNL     1       0.487  -0.815  -1.404  0.00  0.00    +0.089 C 
ATOM     10  N   UNL     1       1.868  -0.374  -1.156  0.00  0.00    -0.332 N 
ATOM     11  C   UNL     1       2.518  -0.801   0.093  0.00  0.00    +0.089 C 
ATOM     12  C   UNL     1       1.580  -0.484   1.262  0.00  0.00    -0.057 C 
ATOM     13  N   UNL     1       0.271  -1.102   1.019  0.00  0.00    +0.384 N 
ATOM     14  C   UNL     1       2.174  -1.041   2.558  0.00  0.00    -0.012 C 
ATOM     15  H   UNL     1      -0.323  -0.958   1.822  0.00  0.00    -0.085 HD
ATOM     16  H   UNL     1       0.390  -2.092   0.866  0.00  0.00    -0.085 HD
ENDBRANCH   1  10
BRANCH   6  17
ATOM     17  S   UNL     1       3.620  -1.897  -3.037  0.00  0.00    +0.060 S 
ATOM     18  O   UNL     1       2.613  -2.405  -2.172  0.00  0.00    -0.164 OA
ATOM     19  O   UNL     1       3.634  -2.242  -4.415  0.00  0.00    -0.164 OA
BRANCH  17  20
ATOM     20  C   UNL     1       5.260  -2.162  -2.309  0.00  0.00    +0.485 C 
ATOM     21  F   UNL     1       6.228  -1.533  -3.099  0.00  0.00    -0.183 F 
ATOM     22  F   UNL     1       5.290  -1.625  -1.018  0.00  0.00    -0.183 F 
ENDBRANCH  17  20
ENDBRANCH   6  17
TORSDOF 3
