REMARK  Name = ZINC44941784
REMARK  8 active torsions:
REMARK  status: ('A' for Active; 'I' for Inactive)
REMARK    1  A    between atoms: C_4  and  S_7
REMARK    2  A    between atoms: S_7  and  C_8
REMARK    3  A    between atoms: C_8  and  C_9
REMARK    4  A    between atoms: C_9  and  C_10
REMARK    5  A    between atoms: C_10  and  N_11
REMARK    6  A    between atoms: C_12  and  C_14
REMARK    7  A    between atoms: N_19  and  C_21
REMARK    8  A    between atoms: C_21  and  C_22
REMARK                            x       y       z     vdW  Elec       q    Type
REMARK                         _______ _______ _______ _____ _____    ______ ____
ROOT
ATOM      1  C   UNL     1       6.662  -7.955  -0.107  0.00  0.00    +0.058 C 
ATOM      2  C   UNL     1       7.479  -7.646  -1.365  0.00  0.00    +0.009 C 
ATOM      3  C   UNL     1       8.695  -8.575  -1.413  0.00  0.00    -0.018 C 
ATOM      4  C   UNL     1       8.221 -10.030  -1.372  0.00  0.00    -0.078 C 
ATOM      5  N   UNL     1       7.470 -10.268  -0.134  0.00  0.00    +0.383 N 
ATOM      6  C   UNL     1       6.263  -9.432  -0.113  0.00  0.00    -0.066 C 
ATOM      7  H   UNL     1       8.049 -10.039   0.660  0.00  0.00    -0.081 HD
ENDROOT
BRANCH   1   9
ATOM      8  N   UNL     1       5.530  -5.756  -0.084  0.00  0.00    -0.315 N 
ATOM      9  C   UNL     1       5.422  -7.099  -0.090  0.00  0.00    +0.214 C 
ATOM     10  O   UNL     1       4.326  -7.619  -0.082  0.00  0.00    -0.276 OA
ATOM     11  H   UNL     1       6.407  -5.340  -0.091  0.00  0.00    +0.149 HD
BRANCH   8  12
ATOM     12  C   UNL     1       4.325  -4.923  -0.067  0.00  0.00    +0.105 C 
BRANCH  12  13
ATOM     13  C   UNL     1       4.724  -3.447  -0.064  0.00  0.00    +0.030 C 
BRANCH  13  14
ATOM     14  C   UNL     1       3.465  -2.578  -0.046  0.00  0.00    +0.076 C 
BRANCH  14  15
ATOM     15  S   UNL     1       3.939  -0.827  -0.042  0.00  0.00    -0.125 S 
BRANCH  15  19
ATOM     16  C   UNL     1      -0.017   1.379   0.010  0.00  0.00    +0.000 A 
ATOM     17  C   UNL     1       1.169   2.090   0.002  0.00  0.00    +0.001 A 
ATOM     18  C   UNL     1       2.377   1.421  -0.013  0.00  0.00    +0.015 A 
ATOM     19  C   UNL     1       2.400   0.031  -0.021  0.00  0.00    +0.008 A 
ATOM     20  C   UNL     1       1.206  -0.680  -0.013  0.00  0.00    +0.015 A 
ATOM     21  C   UNL     1       0.002  -0.004   0.002  0.00  0.00    +0.001 A 
ENDBRANCH  15  19
ENDBRANCH  14  15
ENDBRANCH  13  14
ENDBRANCH  12  13
ENDBRANCH   8  12
ENDBRANCH   1   9
BRANCH   5  22
ATOM     22  C   UNL     1       7.084 -11.684  -0.062  0.00  0.00    -0.043 C 
BRANCH  22  23
ATOM     23  C   UNL     1       8.321 -12.537   0.051  0.00  0.00    -0.063 A 
ATOM     24  C   UNL     1       8.948 -12.999  -1.091  0.00  0.00    +0.002 A 
ATOM     25  C   UNL     1      10.083 -13.781  -0.987  0.00  0.00    +0.001 A 
ATOM     26  C   UNL     1      10.591 -14.102   0.258  0.00  0.00    +0.015 A 
ATOM     27  C   UNL     1       9.964 -13.639   1.400  0.00  0.00    +0.018 A 
ATOM     28  C   UNL     1       8.831 -12.852   1.296  0.00  0.00    +0.017 A 
ATOM     29 BR   UNL     1      10.658 -14.077   3.104  0.00  0.00    -0.050 Br
ENDBRANCH  22  23
ENDBRANCH   5  22
TORSDOF 8
