REMARK  Name = ZINC63134379
REMARK  13 active torsions:
REMARK  status: ('A' for Active; 'I' for Inactive)
REMARK    1  A    between atoms: C_1  and  C_2
REMARK    2  A    between atoms: C_7  and  O_16
REMARK    3  A    between atoms: C_13  and  C_15
REMARK    4  A    between atoms: O_16  and  C_17
REMARK    5  A    between atoms: C_17  and  C_19
REMARK    6  A    between atoms: C_19  and  C_21
REMARK    7  A    between atoms: C_19  and  N_31
REMARK    8  A    between atoms: C_21  and  C_22
REMARK    9  A    between atoms: C_32  and  O_34
REMARK   10  A    between atoms: O_34  and  C_35
REMARK   11  A    between atoms: C_35  and  C_36
REMARK   12  A    between atoms: C_35  and  C_37
REMARK   13  A    between atoms: C_35  and  C_38
REMARK                            x       y       z     vdW  Elec       q    Type
REMARK                         _______ _______ _______ _____ _____    ______ ____
ROOT
ATOM      1  C   UNL     1      -7.681  -1.524  -0.728  0.00  0.00    +0.189 C 
ENDROOT
BRANCH   1   2
ATOM      2  N   UNL     1      -8.500  -0.370  -1.110  0.00  0.00    -0.268 N 
ATOM      3  C   UNL     1      -8.338   0.198  -2.321  0.00  0.00    +0.401 C 
ATOM      4  O   UNL     1      -7.514  -0.245  -3.096  0.00  0.00    -0.226 OA
ATOM      5  H   UNL     1      -9.158  -0.016  -0.492  0.00  0.00    +0.153 HD
BRANCH   3   6
ATOM      6  O   UNL     1      -9.091   1.258  -2.673  0.00  0.00    -0.445 OA
BRANCH   6   7
ATOM      7  C   UNL     1      -8.866   1.811  -3.971  0.00  0.00    +0.107 C 
ATOM      8  C   UNL     1      -9.138   0.744  -5.034  0.00  0.00    +0.055 C 
ATOM      9  C   UNL     1      -9.806   2.998  -4.190  0.00  0.00    +0.055 C 
ATOM     10  C   UNL     1      -7.415   2.282  -4.081  0.00  0.00    +0.055 C 
ENDBRANCH   6   7
ENDBRANCH   3   6
ENDBRANCH   1   2
BRANCH   1  11
ATOM     11  C   UNL     1      -6.225  -1.138  -0.757  0.00  0.00    +0.333 C 
ATOM     12  O   UNL     1      -5.868  -0.173  -1.392  0.00  0.00    -0.248 OA
BRANCH  11  13
ATOM     13  O   UNL     1      -5.323  -1.866  -0.079  0.00  0.00    -0.424 OA
BRANCH  13  19
ATOM     14  C   UNL     1       0.260   0.561   1.531  0.00  0.00    +0.013 C 
ATOM     15  C   UNL     1      -0.020   0.051   0.116  0.00  0.00    +0.033 C 
ATOM     16  C   UNL     1      -1.425  -0.493   0.048  0.00  0.00    -0.001 A 
ATOM     17  C   UNL     1      -2.429   0.186   0.723  0.00  0.00    +0.011 A 
ATOM     18  C   UNL     1      -3.730  -0.270   0.683  0.00  0.00    +0.047 A 
ATOM     19  C   UNL     1      -4.042  -1.416  -0.036  0.00  0.00    +0.135 A 
ATOM     20  C   UNL     1      -3.042  -2.099  -0.708  0.00  0.00    +0.093 A 
ATOM     21  C   UNL     1      -1.731  -1.639  -0.664  0.00  0.00    +0.139 A 
ATOM     22  O   UNL     1      -0.776  -2.351  -1.323  0.00  0.00    -0.425 OA
ATOM     23  C   UNL     1       0.445  -1.792  -1.444  0.00  0.00    +0.316 C 
ATOM     24  O   UNL     1       1.081  -1.876  -2.468  0.00  0.00    -0.250 OA
ATOM     25  C   UNL     1       0.981  -1.054  -0.234  0.00  0.00    +0.102 C 
ATOM     26  C   UNL     1       1.121  -2.020   0.944  0.00  0.00    +0.020 C 
ENDBRANCH  13  19
ENDBRANCH  11  13
ENDBRANCH   1  11
BRANCH   1  27
ATOM     27  C   UNL     1      -7.925  -2.671  -1.710  0.00  0.00    +0.067 C 
BRANCH  27  28
ATOM     28  C   UNL     1      -9.353  -3.138  -1.592  0.00  0.00    -0.039 C 
ATOM     29  C   UNL     1     -10.402  -2.750  -2.353  0.00  0.00    -0.001 A 
ATOM     30  C   UNL     1     -10.522  -1.812  -3.475  0.00  0.00    +0.010 A 
ATOM     31  C   UNL     1     -11.733  -1.627  -4.048  0.00  0.00    +0.001 A 
ATOM     32  C   UNL     1     -12.873  -2.307  -3.598  0.00  0.00    +0.002 A 
ATOM     33  C   UNL     1     -12.842  -3.184  -2.573  0.00  0.00    +0.026 A 
ATOM     34  C   UNL     1     -11.620  -3.456  -1.897  0.00  0.00    +0.043 A 
ATOM     35  N   UNL     1     -11.336  -4.250  -0.893  0.00  0.00    -0.380 N 
ATOM     36  C   UNL     1      -9.902  -4.142  -0.602  0.00  0.00    +0.144 C 
ATOM     37  H   UNL     1     -11.968  -4.817  -0.424  0.00  0.00    +0.160 HD
ENDBRANCH  27  28
ENDBRANCH   1  27
TORSDOF 8
