REMARK  Name = ZINC66925373
REMARK  7 active torsions:
REMARK  status: ('A' for Active; 'I' for Inactive)
REMARK    1  A    between atoms: C_1  and  C_2
REMARK    2  A    between atoms: C_2  and  C_4
REMARK    3  A    between atoms: C_2  and  N_10
REMARK    4  A    between atoms: C_13  and  N_16
REMARK    5  A    between atoms: N_19  and  N_20
REMARK    6  A    between atoms: C_21  and  C_23
REMARK    7  A    between atoms: C_23  and  C_24
REMARK                            x       y       z     vdW  Elec       q    Type
REMARK                         _______ _______ _______ _____ _____    ______ ____
ROOT
ATOM      1  N   UNL     1       0.832  -0.633  -4.644  0.00  0.00    -0.297 N 
ATOM      2  C   UNL     1       0.671  -1.240  -5.837  0.00  0.00    +0.316 C 
ATOM      3  O   UNL     1      -0.088  -2.184  -5.941  0.00  0.00    -0.251 OA
ATOM      4  N   UNL     1       1.352  -0.801  -6.914  0.00  0.00    -0.218 N 
ATOM      5  H   UNL     1       1.438   0.120  -4.562  0.00  0.00    +0.150 HD
ATOM      6  H   UNL     1       1.236  -1.239  -7.772  0.00  0.00    +0.174 HD
ENDROOT
BRANCH   1  10
ATOM      7  N   UNL     1       0.690  -0.478  -1.207  0.00  0.00    +0.385 N 
ATOM      8  C   UNL     1       0.642  -1.961  -1.275  0.00  0.00    -0.076 C 
ATOM      9  C   UNL     1       0.867  -2.254  -2.779  0.00  0.00    +0.002 C 
ATOM     10  C   UNL     1       0.092  -1.110  -3.474  0.00  0.00    +0.056 C 
ATOM     11  C   UNL     1      -0.014   0.004  -2.415  0.00  0.00    -0.056 C 
ATOM     12  H   UNL     1       1.647  -0.159  -1.211  0.00  0.00    -0.081 HD
BRANCH   7  14
ATOM     13  C   UNL     1      -0.019   1.526   0.010  0.00  0.00    -0.008 C 
ATOM     14  C   UNL     1       0.002  -0.004   0.002  0.00  0.00    -0.041 C 
BRANCH  14  15
ATOM     15  C   UNL     1       0.731  -0.503   1.223  0.00  0.00    -0.061 A 
ATOM     16  C   UNL     1       2.113  -0.514   1.247  0.00  0.00    +0.002 A 
ATOM     17  C   UNL     1       2.782  -0.972   2.366  0.00  0.00    +0.000 A 
ATOM     18  C   UNL     1       2.068  -1.419   3.463  0.00  0.00    +0.000 A 
ATOM     19  C   UNL     1       0.686  -1.407   3.439  0.00  0.00    +0.000 A 
ATOM     20  C   UNL     1       0.017  -0.945   2.321  0.00  0.00    +0.002 A 
ENDBRANCH  14  15
ENDBRANCH   7  14
ENDBRANCH   1  10
BRANCH   4  21
ATOM     21  N   UNL     1       2.227   0.287  -6.795  0.00  0.00    -0.233 N 
ATOM     22  C   UNL     1       2.907   0.726  -7.872  0.00  0.00    +0.234 C 
ATOM     23  O   UNL     1       2.762   0.179  -8.945  0.00  0.00    -0.274 OA
ATOM     24  H   UNL     1       2.342   0.724  -5.936  0.00  0.00    +0.173 HD
BRANCH  22  25
ATOM     25  C   UNL     1       3.848   1.896  -7.743  0.00  0.00    +0.135 C 
BRANCH  25  26
ATOM     26  C   UNL     1       4.478   2.183  -9.082  0.00  0.00    -0.003 A 
ATOM     27  C   UNL     1       5.711   1.643  -9.396  0.00  0.00    +0.007 A 
ATOM     28  C   UNL     1       6.289   1.907 -10.624  0.00  0.00    +0.000 A 
ATOM     29  C   UNL     1       5.635   2.711 -11.539  0.00  0.00    +0.003 A 
ATOM     30  C   UNL     1       4.402   3.252 -11.227  0.00  0.00    +0.038 A 
ATOM     31  C   UNL     1       3.819   2.984  -9.999  0.00  0.00    +0.127 A 
ATOM     32  F   UNL     1       2.612   3.508  -9.695  0.00  0.00    -0.205 F 
ENDBRANCH  25  26
ENDBRANCH  22  25
ENDBRANCH   4  21
TORSDOF 6
