REMARK  Name = ZINC12291441
REMARK  9 active torsions:
REMARK  status: ('A' for Active; 'I' for Inactive)
REMARK    1  A    between atoms: C_1  and  C_2
REMARK    2  A    between atoms: C_4  and  C_35
REMARK    3  A    between atoms: C_5  and  S_9
REMARK    4  A    between atoms: C_6  and  C_8
REMARK    5  A    between atoms: S_9  and  N_12
REMARK    6  A    between atoms: C_15  and  N_24
REMARK    7  A    between atoms: N_24  and  N_25
REMARK    8  A    between atoms: C_26  and  C_28
REMARK    9  A    between atoms: C_33  and  O_34
REMARK                            x       y       z     vdW  Elec       q    Type
REMARK                         _______ _______ _______ _____ _____    ______ ____
ROOT
ATOM      1  N   UNL     1       0.263  -5.419   0.799  0.00  0.00    -0.128 NA
ATOM      2  C   UNL     1       0.380  -6.690   1.079  0.00  0.00    +0.095 C 
ATOM      3  C   UNL     1       1.648  -7.392   0.831  0.00  0.00    +0.058 C 
ATOM      4  C   UNL     1       1.867  -8.615   1.364  0.00  0.00    +0.094 C 
ATOM      5  C   UNL     1       0.835  -9.261   2.202  0.00  0.00    +0.209 C 
ATOM      6  O   UNL     1       1.111 -10.231   2.881  0.00  0.00    -0.285 OA
ATOM      7  C   UNL     1      -0.536  -8.712   2.206  0.00  0.00    +0.033 A 
ATOM      8  C   UNL     1      -0.762  -7.438   1.657  0.00  0.00    +0.013 A 
ATOM      9  C   UNL     1      -2.043  -6.906   1.657  0.00  0.00    +0.011 A 
ATOM     10  C   UNL     1      -3.088  -7.631   2.204  0.00  0.00    +0.001 A 
ATOM     11  C   UNL     1      -2.865  -8.882   2.751  0.00  0.00    +0.001 A 
ATOM     12  C   UNL     1      -1.598  -9.431   2.747  0.00  0.00    +0.012 A 
ENDROOT
BRANCH   1  13
ATOM     13  S   UNL     1      -0.674  -4.444   1.754  0.00  0.00    +0.100 S 
ATOM     14  O   UNL     1      -0.975  -5.190   2.925  0.00  0.00    -0.146 OA
ATOM     15  O   UNL     1      -1.685  -3.904   0.914  0.00  0.00    -0.146 OA
BRANCH  13  20
ATOM     16  C   UNL     1       2.776   0.189   3.497  0.00  0.00    +0.044 C 
ATOM     17  C   UNL     1       1.914  -0.968   3.062  0.00  0.00    -0.050 A 
ATOM     18  C   UNL     1       1.830  -2.102   3.849  0.00  0.00    +0.008 A 
ATOM     19  C   UNL     1       1.039  -3.163   3.450  0.00  0.00    -0.023 A 
ATOM     20  C   UNL     1       0.333  -3.091   2.264  0.00  0.00    +0.118 A 
ATOM     21  C   UNL     1       0.416  -1.957   1.477  0.00  0.00    -0.023 A 
ATOM     22  C   UNL     1       1.204  -0.894   1.879  0.00  0.00    +0.008 A 
ATOM     23  C   UNL     1      -0.354  -1.878   0.184  0.00  0.00    +0.046 C 
ATOM     24  C   UNL     1       0.948  -4.399   4.307  0.00  0.00    +0.046 C 
ENDBRANCH  13  20
ENDBRANCH   1  13
BRANCH   4  25
ATOM     25  N   UNL     1       3.068  -9.268   1.124  0.00  0.00    -0.261 N 
ATOM     26  H   UNL     1       3.228 -10.145   1.505  0.00  0.00    +0.170 HD
BRANCH  25  27
ATOM     27  N   UNL     1       4.049  -8.660   0.330  0.00  0.00    -0.232 N 
ATOM     28  C   UNL     1       5.215  -9.294   0.096  0.00  0.00    +0.264 C 
ATOM     29  O   UNL     1       5.415 -10.394   0.574  0.00  0.00    -0.269 OA
ATOM     30  H   UNL     1       3.889  -7.782  -0.052  0.00  0.00    +0.173 HD
BRANCH  28  31
ATOM     31  C   UNL     1       6.248  -8.653  -0.741  0.00  0.00    +0.079 A 
ATOM     32  C   UNL     1       6.024  -7.388  -1.287  0.00  0.00    +0.017 A 
ATOM     33  C   UNL     1       6.993  -6.795  -2.067  0.00  0.00    +0.001 A 
ATOM     34  C   UNL     1       8.189  -7.449  -2.313  0.00  0.00    +0.004 A 
ATOM     35  C   UNL     1       8.424  -8.700  -1.779  0.00  0.00    +0.046 A 
ATOM     36  C   UNL     1       7.462  -9.309  -0.986  0.00  0.00    +0.129 A 
BRANCH  36  37
ATOM     37  O   UNL     1       7.693 -10.536  -0.456  0.00  0.00    -0.506 OA
ATOM     38  H   UNL     1       7.411 -11.268  -1.021  0.00  0.00    +0.292 HD
ENDBRANCH  36  37
ENDBRANCH  28  31
ENDBRANCH  25  27
ENDBRANCH   4  25
TORSDOF 6
