REMARK  Name = ZINC39965291
REMARK  12 active torsions:
REMARK  status: ('A' for Active; 'I' for Inactive)
REMARK    1  A    between atoms: C_1  and  C_2
REMARK    2  A    between atoms: C_2  and  C_3
REMARK    3  A    between atoms: C_3  and  C_4
REMARK    4  A    between atoms: C_4  and  N_5
REMARK    5  A    between atoms: N_8  and  C_11
REMARK    6  A    between atoms: C_11  and  C_12
REMARK    7  A    between atoms: N_14  and  C_15
REMARK    8  A    between atoms: C_16  and  C_26
REMARK    9  A    between atoms: C_21  and  C_25
REMARK   10  A    between atoms: C_26  and  O_28
REMARK   11  A    between atoms: O_28  and  C_29
REMARK   12  A    between atoms: C_29  and  C_30
REMARK                            x       y       z     vdW  Elec       q    Type
REMARK                         _______ _______ _______ _____ _____    ______ ____
ROOT
ATOM      1  C   UNL     1      -6.214  -6.200  -1.211  0.00  0.00    +0.232 C 
ATOM      2  O   UNL     1      -5.142  -6.768  -1.251  0.00  0.00    -0.274 OA
ATOM      3  N   UNL     1      -7.356  -6.914  -1.258  0.00  0.00    -0.278 N 
ATOM      4  H   UNL     1      -8.213  -6.460  -1.226  0.00  0.00    +0.155 HD
ENDROOT
BRANCH   3   5
ATOM      5  C   UNL     1      -7.307  -8.296  -1.353  0.00  0.00    +0.086 A 
ATOM      6  C   UNL     1      -8.370  -9.185  -1.418  0.00  0.00    +0.091 A 
ATOM      7  C   UNL     1      -8.047 -10.598  -1.514  0.00  0.00    -0.021 A 
ATOM      8  C   UNL     1      -6.724 -10.864  -1.528  0.00  0.00    -0.004 A 
ATOM      9  S   UNL     1      -5.947  -9.278  -1.422  0.00  0.00    -0.077 S 
ATOM     10  C   UNL     1      -6.077 -12.211  -1.619  0.00  0.00    +0.046 C 
ATOM     11  C   UNL     1      -7.137 -13.225  -2.075  0.00  0.00    -0.009 C 
ATOM     12  C   UNL     1      -8.399 -13.036  -1.228  0.00  0.00    +0.008 C 
ATOM     13  C   UNL     1      -9.079 -11.714  -1.593  0.00  0.00    +0.037 C 
ATOM     14  C   UNL     1      -6.601 -14.646  -1.891  0.00  0.00    +0.008 C 
BRANCH   6  15
ATOM     15  C   UNL     1      -9.757  -8.718  -1.390  0.00  0.00    +0.342 C 
ATOM     16  O   UNL     1     -10.330  -8.452  -2.430  0.00  0.00    -0.245 OA
BRANCH  15  17
ATOM     17  O   UNL     1     -10.400  -8.584  -0.212  0.00  0.00    -0.461 OA
BRANCH  17  18
ATOM     18  C   UNL     1     -11.753  -8.124  -0.260  0.00  0.00    +0.229 C 
ATOM     19  C   UNL     1     -12.311  -8.034   1.161  0.00  0.00    +0.048 C 
ENDBRANCH  17  18
ENDBRANCH  15  17
ENDBRANCH   6  15
ENDBRANCH   3   5
BRANCH   1  20
ATOM     20  C   UNL     1      -6.267  -4.698  -1.109  0.00  0.00    +0.180 C 
BRANCH  20  24
ATOM     21  N   UNL     1      -2.791  -2.572   0.015  0.00  0.00    +0.381 N 
ATOM     22  C   UNL     1      -3.465  -2.184  -1.231  0.00  0.00    -0.063 C 
ATOM     23  C   UNL     1      -4.906  -2.697  -1.212  0.00  0.00    +0.066 C 
ATOM     24  N   UNL     1      -4.901  -4.160  -1.073  0.00  0.00    -0.298 NA
ATOM     25  C   UNL     1      -4.207  -4.565   0.157  0.00  0.00    +0.066 C 
ATOM     26  C   UNL     1      -2.771  -4.036   0.128  0.00  0.00    -0.063 C 
ATOM     27  H   UNL     1      -3.287  -2.181   0.801  0.00  0.00    -0.082 HD
BRANCH  21  28
ATOM     28  C   UNL     1      -1.413  -2.063   0.004  0.00  0.00    -0.079 C 
BRANCH  28  29
ATOM     29  C   UNL     1      -1.433  -0.534   0.013  0.00  0.00    -0.019 C 
BRANCH  29  31
ATOM     30  C   UNL     1      -0.019   1.526   0.010  0.00  0.00    +0.004 C 
ATOM     31  C   UNL     1       0.002  -0.004   0.002  0.00  0.00    -0.005 C 
ENDBRANCH  29  31
ENDBRANCH  28  29
ENDBRANCH  21  28
ENDBRANCH  20  24
ENDBRANCH   1  20
TORSDOF 9
