REMARK  Name = ZINC37281086
REMARK  5 active torsions:
REMARK  status: ('A' for Active; 'I' for Inactive)
REMARK    1  A    between atoms: C_1  and  C_2
REMARK    2  A    between atoms: C_2  and  C_4
REMARK    3  A    between atoms: C_2  and  N_10
REMARK    4  A    between atoms: N_10  and  C_11
REMARK    5  A    between atoms: C_16  and  N_17
REMARK                            x       y       z     vdW  Elec       q    Type
REMARK                         _______ _______ _______ _____ _____    ______ ____
ROOT
ATOM      1  N   UNL     1       0.867  -0.034   1.390  0.00  0.00    -0.335 N 
ATOM      2  H   UNL     1       1.814  -0.242   1.359  0.00  0.00    +0.147 HD
ENDROOT
BRANCH   1   3
ATOM      3  C   UNL     1       0.104  -0.412   2.499  0.00  0.00    +0.058 A 
ATOM      4  C   UNL     1      -1.221  -0.009   2.602  0.00  0.00    +0.028 A 
ATOM      5  C   UNL     1      -1.972  -0.383   3.699  0.00  0.00    +0.040 A 
ATOM      6  C   UNL     1      -1.405  -1.161   4.695  0.00  0.00    +0.126 A 
ATOM      7  C   UNL     1      -0.085  -1.563   4.595  0.00  0.00    +0.073 A 
ATOM      8  C   UNL     1       0.669  -1.196   3.497  0.00  0.00    +0.150 A 
ATOM      9  F   UNL     1      -2.142  -1.526   5.767  0.00  0.00    -0.205 F 
BRANCH   8  10
ATOM     10  N   UNL     1       2.079  -1.632   3.387  0.00  0.00    +0.058 N 
ATOM     11  O   UNL     1       2.534  -1.940   2.310  0.00  0.00    -0.126 OA
ATOM     12  O   UNL     1       2.776  -1.681   4.374  0.00  0.00    -0.126 OA
ENDBRANCH   8  10
ENDBRANCH   1   3
BRANCH   1  14
ATOM     13  C   UNL     1       0.203   2.176   0.580  0.00  0.00    +0.033 C 
ATOM     14  C   UNL     1       0.236   0.677   0.275  0.00  0.00    +0.105 C 
BRANCH  14  15
ATOM     15  C   UNL     1       1.027   0.437  -0.985  0.00  0.00    +0.024 A 
ATOM     16  C   UNL     1       0.580   0.132  -2.228  0.00  0.00    +0.030 A 
ATOM     17  C   UNL     1       1.500  -0.045  -3.246  0.00  0.00    +0.023 A 
ATOM     18  C   UNL     1       2.820   0.091  -2.970  0.00  0.00    +0.046 A 
ATOM     19  S   UNL     1       2.795   0.489  -1.230  0.00  0.00    -0.099 S 
ATOM     20 BR   UNL     1      -1.272  -0.049  -2.565  0.00  0.00    -0.049 Br
ENDBRANCH  14  15
ENDBRANCH   1  14
TORSDOF 4
