REMARK  Name = ZINC38677356
REMARK  11 active torsions:
REMARK  status: ('A' for Active; 'I' for Inactive)
REMARK    1  A    between atoms: C_1  and  C_2
REMARK    2  A    between atoms: C_2  and  C_3
REMARK    3  A    between atoms: C_6  and  C_9
REMARK    4  A    between atoms: C_14  and  O_23
REMARK    5  A    between atoms: C_18  and  N_22
REMARK    6  A    between atoms: C_19  and  C_20
REMARK    7  A    between atoms: O_23  and  C_24
REMARK    8  A    between atoms: C_24  and  C_26
REMARK    9  A    between atoms: C_26  and  O_27
REMARK   10  A    between atoms: O_27  and  C_28
REMARK   11  A    between atoms: C_32  and  C_34
REMARK                            x       y       z     vdW  Elec       q    Type
REMARK                         _______ _______ _______ _____ _____    ______ ____
ROOT
ATOM      1  C   UNL     1       2.764  -1.846  -4.774  0.00  0.00    +0.098 C 
ATOM      2  C   UNL     1       3.403  -3.178  -4.482  0.00  0.00    +0.008 A 
ATOM      3  C   UNL     1       2.605  -4.298  -4.332  0.00  0.00    +0.012 A 
ATOM      4  C   UNL     1       3.174  -5.527  -4.064  0.00  0.00    +0.047 A 
ATOM      5  C   UNL     1       4.552  -5.642  -3.946  0.00  0.00    +0.135 A 
ATOM      6  C   UNL     1       5.354  -4.523  -4.096  0.00  0.00    +0.093 A 
ATOM      7  C   UNL     1       4.780  -3.287  -4.364  0.00  0.00    +0.138 A 
ATOM      8  O   UNL     1       5.579  -2.201  -4.509  0.00  0.00    -0.441 OA
ATOM      9  C   UNL     1       5.115  -1.107  -5.136  0.00  0.00    +0.199 C 
ATOM     10  C   UNL     1       3.793  -0.881  -5.292  0.00  0.00    +0.098 C 
ENDROOT
BRANCH   1  14
ATOM     11  C   UNL     1       1.042  -0.290  -1.188  0.00  0.00    -0.048 A 
ATOM     12  C   UNL     1       0.241  -0.540  -2.287  0.00  0.00    +0.004 A 
ATOM     13  C   UNL     1       0.799  -1.043  -3.447  0.00  0.00    +0.005 A 
ATOM     14  C   UNL     1       2.156  -1.296  -3.509  0.00  0.00    -0.035 A 
ATOM     15  C   UNL     1       2.957  -1.046  -2.410  0.00  0.00    +0.005 A 
ATOM     16  C   UNL     1       2.400  -0.538  -1.251  0.00  0.00    +0.004 A 
BRANCH  11  18
ATOM     17  C   UNL     1       0.452   1.788   0.030  0.00  0.00    +0.009 C 
ATOM     18  C   UNL     1       0.434   0.259   0.078  0.00  0.00    +0.032 C 
ENDBRANCH  11  18
ENDBRANCH   1  14
BRANCH   9  19
ATOM     19  N   UNL     1       6.012  -0.192  -5.630  0.00  0.00    -0.328 N 
ATOM     20  H   UNL     1       6.964  -0.341  -5.524  0.00  0.00    +0.145 HD
ATOM     21  H   UNL     1       5.692   0.603  -6.085  0.00  0.00    +0.145 HD
ENDBRANCH   9  19
BRANCH  10  22
ATOM     22  C   UNL     1       3.364   0.306  -5.969  0.00  0.00    +0.101 C 
ATOM     23  N   UNL     1       3.023   1.247  -6.506  0.00  0.00    -0.191 NA
ENDBRANCH  10  22
BRANCH   5  24
ATOM     24  O   UNL     1       5.113  -6.852  -3.682  0.00  0.00    -0.423 OA
BRANCH  24  25
ATOM     25  C   UNL     1       5.679  -7.035  -2.478  0.00  0.00    +0.350 C 
ATOM     26  O   UNL     1       5.587  -6.178  -1.631  0.00  0.00    -0.247 OA
BRANCH  25  27
ATOM     27  C   UNL     1       6.427  -8.309  -2.183  0.00  0.00    +0.349 C 
BRANCH  27  28
ATOM     28  O   UNL     1       6.932  -8.267  -0.847  0.00  0.00    -0.481 OA
BRANCH  28  29
ATOM     29  C   UNL     1       7.637  -9.348  -0.419  0.00  0.00    +0.122 A 
ATOM     30  C   UNL     1       7.843 -10.424  -1.270  0.00  0.00    +0.047 A 
ATOM     31  C   UNL     1       8.559 -11.521  -0.834  0.00  0.00    +0.024 A 
ATOM     32  C   UNL     1       9.071 -11.548   0.452  0.00  0.00    +0.044 A 
ATOM     33  C   UNL     1       8.867 -10.475   1.302  0.00  0.00    -0.029 A 
ATOM     34  C   UNL     1       8.156  -9.373   0.867  0.00  0.00    +0.050 A 
ATOM     35  C   UNL     1       9.425 -10.507   2.701  0.00  0.00    +0.045 C 
ATOM     36 CL   UNL     1       9.971 -12.928   0.998  0.00  0.00    -0.083 Cl
ENDBRANCH  28  29
ENDBRANCH  27  28
ENDBRANCH  25  27
ENDBRANCH  24  25
ENDBRANCH   5  24
TORSDOF 9
