REMARK  Name = ZINC02815314
REMARK  3 active torsions:
REMARK  status: ('A' for Active; 'I' for Inactive)
REMARK    1  A    between atoms: C_2  and  C_3
REMARK    2  A    between atoms: C_3  and  N_4
REMARK    3  A    between atoms: C_8  and  C_9
REMARK                            x       y       z     vdW  Elec       q    Type
REMARK                         _______ _______ _______ _____ _____    ______ ____
ROOT
ATOM      1  N   UNL     1      -2.500   1.664  -1.062  0.00  0.00    -0.225 N 
ATOM      2  C   UNL     1      -3.031   0.455  -0.997  0.00  0.00    +0.261 C 
ATOM      3  O   UNL     1      -2.752  -0.319  -0.100  0.00  0.00    -0.269 OA
ATOM      4  C   UNL     1      -3.982   0.092  -2.067  0.00  0.00    +0.080 C 
ATOM      5  C   UNL     1      -4.672  -1.063  -2.257  0.00  0.00    +0.029 C 
ATOM      6  S   UNL     1      -3.974   1.589  -3.044  0.00  0.00    -0.026 S 
ATOM      7  C   UNL     1      -2.817   2.521  -2.054  0.00  0.00    +0.286 C 
ATOM      8  O   UNL     1      -2.411   3.654  -2.232  0.00  0.00    -0.262 OA
ENDROOT
BRANCH   5   9
ATOM      9  C   UNL     1      -5.445  -1.261  -3.486  0.00  0.00    -0.016 A 
ATOM     10  C   UNL     1      -5.201  -0.480  -4.614  0.00  0.00    +0.008 A 
ATOM     11  C   UNL     1      -5.934  -0.671  -5.775  0.00  0.00    +0.001 A 
ATOM     12  C   UNL     1      -6.910  -1.617  -5.862  0.00  0.00    +0.008 A 
ATOM     13  C   UNL     1      -7.211  -2.441  -4.764  0.00  0.00    -0.017 A 
ATOM     14  C   UNL     1      -6.485  -2.288  -3.558  0.00  0.00    -0.011 A 
ATOM     15  C   UNL     1      -6.786  -3.102  -2.461  0.00  0.00    +0.009 A 
ATOM     16  C   UNL     1      -7.768  -4.043  -2.569  0.00  0.00    +0.001 A 
ATOM     17  C   UNL     1      -8.480  -4.200  -3.755  0.00  0.00    +0.001 A 
ATOM     18  C   UNL     1      -8.216  -3.421  -4.840  0.00  0.00    +0.008 A 
ENDBRANCH   5   9
BRANCH   1  19
ATOM     19  C   UNL     1      -1.550   2.085  -0.029  0.00  0.00    +0.144 C 
BRANCH  19  21
ATOM     20  C   UNL     1       0.780   2.636  -0.510  0.00  0.00    +0.005 C 
ATOM     21  C   UNL     1      -0.151   1.716  -0.453  0.00  0.00    -0.015 C 
ENDBRANCH  19  21
ENDBRANCH   1  19
TORSDOF 3
