REMARK  Name = ZINC37725530
REMARK  12 active torsions:
REMARK  status: ('A' for Active; 'I' for Inactive)
REMARK    1  A    between atoms: C_1  and  C_2
REMARK    2  A    between atoms: C_2  and  C_3
REMARK    3  A    between atoms: C_3  and  C_5
REMARK    4  A    between atoms: C_3  and  N_23
REMARK    5  A    between atoms: C_5  and  C_6
REMARK    6  A    between atoms: C_11  and  O_12
REMARK    7  A    between atoms: O_12  and  C_13
REMARK    8  A    between atoms: C_13  and  C_15
REMARK    9  A    between atoms: C_13  and  C_16
REMARK   10  A    between atoms: N_18  and  C_19
REMARK   11  A    between atoms: C_19  and  C_20
REMARK   12  A    between atoms: C_19  and  C_21
REMARK                            x       y       z     vdW  Elec       q    Type
REMARK                         _______ _______ _______ _____ _____    ______ ____
ROOT
ATOM      1  C   UNL     1       1.686  -2.296  -2.470  0.00  0.00    -0.006 A 
ATOM      2  C   UNL     1       1.074  -2.508  -3.691  0.00  0.00    +0.022 A 
ATOM      3  C   UNL     1       1.841  -2.736  -4.819  0.00  0.00    +0.018 A 
ATOM      4  C   UNL     1       3.222  -2.752  -4.728  0.00  0.00    +0.019 A 
ATOM      5  C   UNL     1       3.837  -2.539  -3.510  0.00  0.00    +0.047 A 
ATOM      6  C   UNL     1       3.070  -2.305  -2.378  0.00  0.00    +0.125 A 
ATOM      7 BR   UNL     1       1.002  -3.028  -6.489  0.00  0.00    -0.050 Br
ENDROOT
BRANCH   1   8
ATOM      8  C   UNL     1       0.849  -2.047  -1.242  0.00  0.00    +0.022 C 
BRANCH   8   9
ATOM      9  C   UNL     1       0.698  -0.540  -1.023  0.00  0.00    -0.071 C 
BRANCH   9  10
ATOM     10  N   UNL     1      -0.064   0.042  -2.136  0.00  0.00    +0.380 N 
ATOM     11  H   UNL     1      -0.163   1.035  -1.992  0.00  0.00    -0.090 HD
ATOM     12  H   UNL     1       0.426  -0.126  -3.003  0.00  0.00    -0.090 HD
ATOM     13  H   UNL     1      -0.977  -0.385  -2.178  0.00  0.00    -0.090 HD
ENDBRANCH   9  10
BRANCH   9  15
ATOM     14  C   UNL     1      -0.085   1.216   0.571  0.00  0.00    +0.002 C 
ATOM     15  C   UNL     1      -0.044  -0.287   0.290  0.00  0.00    -0.019 C 
ENDBRANCH   9  15
ENDBRANCH   8   9
ENDBRANCH   1   8
BRANCH   6  16
ATOM     16  O   UNL     1       3.673  -2.091  -1.179  0.00  0.00    -0.480 OA
BRANCH  16  17
ATOM     17  C   UNL     1       5.093  -2.239  -1.132  0.00  0.00    +0.255 C 
ATOM     18  C   UNL     1       5.757  -0.930  -1.567  0.00  0.00    +0.062 C 
BRANCH  17  19
ATOM     19  C   UNL     1       5.518  -2.573   0.275  0.00  0.00    +0.254 C 
ATOM     20  O   UNL     1       4.685  -2.675   1.151  0.00  0.00    -0.272 OA
ATOM     21  N   UNL     1       6.822  -2.758   0.560  0.00  0.00    -0.310 N 
ATOM     22  H   UNL     1       7.487  -2.677  -0.141  0.00  0.00    +0.149 HD
BRANCH  21  23
ATOM     23  C   UNL     1       7.234  -3.083   1.927  0.00  0.00    +0.067 C 
ATOM     24  C   UNL     1       7.122  -4.593   2.149  0.00  0.00    +0.027 C 
ATOM     25  C   UNL     1       8.684  -2.643   2.141  0.00  0.00    +0.027 C 
ENDBRANCH  21  23
ENDBRANCH  17  19
ENDBRANCH  16  17
ENDBRANCH   6  16
TORSDOF 8
