REMARK  Name = ZINC39672508
REMARK  9 active torsions:
REMARK  status: ('A' for Active; 'I' for Inactive)
REMARK    1  A    between atoms: C_1  and  C_2
REMARK    2  A    between atoms: C_2  and  C_4
REMARK    3  A    between atoms: C_2  and  S_15
REMARK    4  A    between atoms: C_4  and  C_6
REMARK    5  A    between atoms: S_15  and  C_16
REMARK    6  A    between atoms: C_20  and  C_29
REMARK    7  A    between atoms: N_21  and  C_22
REMARK    8  A    between atoms: C_22  and  C_23
REMARK    9  A    between atoms: C_29  and  N_30
REMARK                            x       y       z     vdW  Elec       q    Type
REMARK                         _______ _______ _______ _____ _____    ______ ____
ROOT
ATOM      1  C   UNL     1      -2.006   0.202  -1.724  0.00  0.00    +0.237 C 
ATOM      2  N   UNL     1      -1.257  -0.123  -2.950  0.00  0.00    -0.238 N 
ATOM      3  N   UNL     1      -0.765   1.094  -3.438  0.00  0.00    -0.176 NA
ATOM      4  C   UNL     1      -1.110   2.077  -2.689  0.00  0.00    +0.101 C 
ATOM      5  N   UNL     1      -1.875   1.664  -1.605  0.00  0.00    -0.286 N 
ATOM      6  H   UNL     1      -1.129  -1.001  -3.341  0.00  0.00    +0.171 HD
ENDROOT
BRANCH   1   7
ATOM      7  S   UNL     1      -1.266  -0.623  -0.288  0.00  0.00    -0.107 S 
BRANCH   7   9
ATOM      8  C   UNL     1      -1.401  -3.026  -1.587  0.00  0.00    +0.027 C 
ATOM      9  C   UNL     1      -1.942  -2.305  -0.351  0.00  0.00    +0.117 C 
BRANCH   9  10
ATOM     10  C   UNL     1      -1.533  -3.058   0.889  0.00  0.00    +0.174 C 
ATOM     11  O   UNL     1      -0.532  -2.732   1.494  0.00  0.00    -0.291 OA
BRANCH  10  12
ATOM     12  C   UNL     1      -2.313  -4.141   1.346  0.00  0.00    +0.024 C 
ATOM     13  C   UNL     1      -2.082  -4.927   2.461  0.00  0.00    +0.006 A 
ATOM     14  C   UNL     1      -1.069  -4.921   3.449  0.00  0.00    +0.010 A 
ATOM     15  C   UNL     1      -1.090  -5.828   4.451  0.00  0.00    +0.001 A 
ATOM     16  C   UNL     1      -2.095  -6.802   4.566  0.00  0.00    +0.002 A 
ATOM     17  C   UNL     1      -3.107  -6.893   3.676  0.00  0.00    +0.026 A 
ATOM     18  C   UNL     1      -3.159  -5.943   2.552  0.00  0.00    +0.043 A 
ATOM     19  N   UNL     1      -4.002  -5.805   1.569  0.00  0.00    -0.380 N 
ATOM     20  C   UNL     1      -3.582  -4.682   0.724  0.00  0.00    +0.152 C 
ATOM     21  H   UNL     1      -4.787  -6.355   1.421  0.00  0.00    +0.160 HD
ENDBRANCH  10  12
ENDBRANCH   9  10
ENDBRANCH   7   9
ENDBRANCH   1   7
BRANCH   5  22
ATOM     22  C   UNL     1      -2.439   2.512  -0.553  0.00  0.00    +0.144 C 
BRANCH  22  23
ATOM     23  C   UNL     1      -1.474   2.589   0.602  0.00  0.00    -0.030 A 
ATOM     24  C   UNL     1      -1.612   1.731   1.677  0.00  0.00    +0.005 A 
ATOM     25  C   UNL     1      -0.726   1.802   2.736  0.00  0.00    +0.000 A 
ATOM     26  C   UNL     1       0.297   2.731   2.720  0.00  0.00    +0.000 A 
ATOM     27  C   UNL     1       0.436   3.588   1.644  0.00  0.00    +0.000 A 
ATOM     28  C   UNL     1      -0.447   3.514   0.583  0.00  0.00    +0.005 A 
ENDBRANCH  22  23
ENDBRANCH   5  22
BRANCH   4  29
ATOM     29  C   UNL     1      -0.730   3.511  -2.954  0.00  0.00    -0.004 C 
BRANCH  29  30
ATOM     30  N   UNL     1       0.076   3.586  -4.180  0.00  0.00    +0.384 N 
ATOM     31  C   UNL     1      -0.760   3.265  -5.364  0.00  0.00    -0.078 C 
ATOM     32  C   UNL     1       0.018   3.915  -6.535  0.00  0.00    -0.020 C 
ATOM     33  C   UNL     1       0.557   5.222  -5.908  0.00  0.00    -0.020 C 
ATOM     34  C   UNL     1       0.558   4.969  -4.389  0.00  0.00    -0.078 C 
ATOM     35  H   UNL     1       0.858   2.951  -4.122  0.00  0.00    -0.081 HD
ENDBRANCH  29  30
ENDBRANCH   4  29
TORSDOF 8
