REMARK  Name = ZINC62001638
REMARK  7 active torsions:
REMARK  status: ('A' for Active; 'I' for Inactive)
REMARK    1  A    between atoms: C_1  and  O_2
REMARK    2  A    between atoms: O_2  and  C_3
REMARK    3  A    between atoms: C_13  and  C_15
REMARK    4  A    between atoms: C_17  and  O_23
REMARK    5  A    between atoms: C_19  and  O_21
REMARK    6  A    between atoms: O_21  and  C_22
REMARK    7  A    between atoms: O_23  and  C_24
REMARK                            x       y       z     vdW  Elec       q    Type
REMARK                         _______ _______ _______ _____ _____    ______ ____
ROOT
ATOM      1  C   UNL     1       0.606  -0.381   1.907  0.00  0.00    +0.120 A 
ATOM      2  C   UNL     1       0.991   0.189   3.112  0.00  0.00    +0.047 A 
ATOM      3  C   UNL     1       1.506  -0.599   4.120  0.00  0.00    +0.027 A 
ATOM      4  C   UNL     1       1.642  -1.973   3.938  0.00  0.00    +0.038 A 
ATOM      5  C   UNL     1       1.252  -2.536   2.726  0.00  0.00    -0.009 A 
ATOM      6  C   UNL     1       0.734  -1.750   1.721  0.00  0.00    +0.052 A 
ATOM      7  C   UNL     1       1.521  -4.009   2.851  0.00  0.00    +0.064 C 
ATOM      8  C   UNL     1       2.506  -4.490   1.774  0.00  0.00    +0.000 C 
ATOM      9  C   UNL     1       1.958  -5.896   1.415  0.00  0.00    -0.080 C 
ATOM     10  N   UNL     1       0.485  -5.722   1.497  0.00  0.00    +0.385 N 
ATOM     11  C   UNL     1       0.246  -4.834   2.659  0.00  0.00    -0.021 C 
ATOM     12  C   UNL     1       2.092  -4.187   4.231  0.00  0.00    +0.226 C 
ATOM     13  O   UNL     1       2.450  -5.230   4.738  0.00  0.00    -0.275 OA
ATOM     14  N   UNL     1       2.129  -2.965   4.795  0.00  0.00    -0.285 N 
ATOM     15  H   UNL     1       0.138  -5.291   0.653  0.00  0.00    -0.085 HD
ATOM     16  H   UNL     1       2.457  -2.792   5.692  0.00  0.00    +0.155 HD
ATOM     17  H   UNL     1       0.037  -6.614   1.643  0.00  0.00    -0.085 HD
ENDROOT
BRANCH  11  18
ATOM     18  C   UNL     1      -0.921  -3.923   2.380  0.00  0.00    -0.053 A 
ATOM     19  C   UNL     1      -1.220  -3.562   1.080  0.00  0.00    +0.048 A 
ATOM     20  C   UNL     1      -2.295  -2.723   0.821  0.00  0.00    +0.124 A 
ATOM     21  C   UNL     1      -3.069  -2.247   1.868  0.00  0.00    +0.091 A 
ATOM     22  C   UNL     1      -2.767  -2.610   3.171  0.00  0.00    +0.124 A 
ATOM     23  C   UNL     1      -1.695  -3.454   3.425  0.00  0.00    +0.048 A 
BRANCH  22  24
ATOM     24  O   UNL     1      -3.523  -2.144   4.200  0.00  0.00    -0.495 OA
ATOM     25  C   UNL     1      -4.614  -1.284   3.865  0.00  0.00    +0.277 C 
ENDBRANCH  22  24
BRANCH  20  26
ATOM     26  O   UNL     1      -2.588  -2.369  -0.458  0.00  0.00    -0.495 OA
ATOM     27  C   UNL     1      -3.708  -1.502  -0.650  0.00  0.00    +0.277 C 
ENDBRANCH  20  26
ENDBRANCH  11  18
BRANCH   1  29
ATOM     28  C   UNL     1      -0.004   1.800   1.179  0.00  0.00    +0.277 C 
ATOM     29  O   UNL     1       0.099   0.399   0.915  0.00  0.00    -0.495 OA
ENDBRANCH   1  29
TORSDOF 4
