REMARK  Name = ZINC65011123
REMARK  9 active torsions:
REMARK  status: ('A' for Active; 'I' for Inactive)
REMARK    1  A    between atoms: C_1  and  C_2
REMARK    2  A    between atoms: C_2  and  C_3
REMARK    3  A    between atoms: C_3  and  C_4
REMARK    4  A    between atoms: C_5  and  C_16
REMARK    5  A    between atoms: C_19  and  C_34
REMARK    6  A    between atoms: C_20  and  S_22
REMARK    7  A    between atoms: S_22  and  N_25
REMARK    8  A    between atoms: N_25  and  C_26
REMARK    9  A    between atoms: C_29  and  C_33
REMARK                            x       y       z     vdW  Elec       q    Type
REMARK                         _______ _______ _______ _____ _____    ______ ____
ROOT
ATOM      1  C   UNL     1      -1.543  -3.022   2.600  0.00  0.00    -0.011 A 
ATOM      2  C   UNL     1      -1.253  -2.142   3.641  0.00  0.00    +0.009 A 
ATOM      3  C   UNL     1      -2.269  -1.420   4.233  0.00  0.00    +0.006 A 
ATOM      4  C   UNL     1      -3.573  -1.568   3.795  0.00  0.00    -0.024 A 
ATOM      5  C   UNL     1      -3.866  -2.440   2.763  0.00  0.00    +0.112 A 
ATOM      6  C   UNL     1      -2.857  -3.163   2.159  0.00  0.00    +0.037 A 
ATOM      7  C   UNL     1      -4.678  -0.776   4.446  0.00  0.00    +0.046 C 
ENDROOT
BRANCH   1   9
ATOM      8  C   UNL     1       0.619  -3.276   1.218  0.00  0.00    +0.073 A 
ATOM      9  C   UNL     1      -0.456  -3.801   1.959  0.00  0.00    +0.045 A 
ATOM     10  C   UNL     1      -0.312  -5.184   1.982  0.00  0.00    +0.139 A 
ATOM     11  N   UNL     1       0.844  -5.471   1.329  0.00  0.00    -0.185 N 
ATOM     12  N   UNL     1       1.369  -4.265   0.825  0.00  0.00    -0.167 NA
ATOM     13  C   UNL     1       1.487  -6.651   1.193  0.00  0.00    +0.250 C 
ATOM     14  O   UNL     1       2.451  -6.702   0.465  0.00  0.00    -0.271 OA
ATOM     15  C   UNL     1       1.068  -7.879   1.891  0.00  0.00    +0.110 C 
ATOM     16  C   UNL     1       0.471  -7.653   3.256  0.00  0.00    +0.105 C 
ATOM     17  C   UNL     1      -0.947  -7.196   3.169  0.00  0.00    +0.219 C 
ATOM     18  O   UNL     1      -1.835  -7.873   3.643  0.00  0.00    -0.275 OA
ATOM     19  N   UNL     1      -1.239  -6.026   2.561  0.00  0.00    -0.270 N 
ATOM     20  H   UNL     1      -2.170  -5.757   2.529  0.00  0.00    +0.156 HD
BRANCH   8  21
ATOM     21  C   UNL     1       0.858  -1.818   0.924  0.00  0.00    +0.058 C 
BRANCH  21  23
ATOM     22  C   UNL     1       0.398   0.042  -0.680  0.00  0.00    +0.004 C 
ATOM     23  C   UNL     1       0.156  -1.439  -0.381  0.00  0.00    +0.003 C 
ENDBRANCH  21  23
ENDBRANCH   8  21
ENDBRANCH   1   9
BRANCH   5  24
ATOM     24  S   UNL     1      -5.530  -2.623   2.212  0.00  0.00    +0.073 S 
ATOM     25  O   UNL     1      -6.037  -1.311   2.009  0.00  0.00    -0.150 OA
ATOM     26  O   UNL     1      -5.512  -3.601   1.181  0.00  0.00    -0.150 OA
BRANCH  24  27
ATOM     27  N   UNL     1      -6.392  -3.274   3.467  0.00  0.00    -0.216 N 
ATOM     28  H   UNL     1      -7.133  -2.781   3.854  0.00  0.00    +0.174 HD
BRANCH  27  29
ATOM     29  C   UNL     1      -6.053  -4.533   3.969  0.00  0.00    +0.051 A 
ATOM     30  C   UNL     1      -5.806  -5.586   3.097  0.00  0.00    +0.025 A 
ATOM     31  C   UNL     1      -5.470  -6.829   3.595  0.00  0.00    +0.008 A 
ATOM     32  C   UNL     1      -5.380  -7.028   4.960  0.00  0.00    -0.015 A 
ATOM     33  C   UNL     1      -5.625  -5.981   5.833  0.00  0.00    +0.128 A 
ATOM     34  C   UNL     1      -5.957  -4.732   5.340  0.00  0.00    +0.063 A 
ATOM     35  F   UNL     1      -5.537  -6.179   7.167  0.00  0.00    -0.205 F 
ATOM     36  C   UNL     1      -5.014  -8.387   5.500  0.00  0.00    +0.047 C 
ENDBRANCH  27  29
ENDBRANCH  24  27
ENDBRANCH   5  24
TORSDOF 6
