REMARK  Name = ZINC24311118
REMARK  11 active torsions:
REMARK  status: ('A' for Active; 'I' for Inactive)
REMARK    1  A    between atoms: C_1  and  C_2
REMARK    2  A    between atoms: C_4  and  C_20
REMARK    3  A    between atoms: C_5  and  C_19
REMARK    4  A    between atoms: N_6  and  C_7
REMARK    5  A    between atoms: C_7  and  C_8
REMARK    6  A    between atoms: C_20  and  C_22
REMARK    7  A    between atoms: C_22  and  O_23
REMARK    8  A    between atoms: O_23  and  C_24
REMARK    9  A    between atoms: C_24  and  C_26
REMARK   10  A    between atoms: C_29  and  S_32
REMARK   11  A    between atoms: S_32  and  N_35
REMARK                            x       y       z     vdW  Elec       q    Type
REMARK                         _______ _______ _______ _____ _____    ______ ____
ROOT
ATOM      1  C   UNL     1       4.994   2.449   2.682  0.00  0.00    +0.063 C 
ATOM      2  C   UNL     1       4.242   3.552   1.982  0.00  0.00    +0.017 A 
ATOM      3  C   UNL     1       4.087   4.804   2.445  0.00  0.00    +0.034 A 
ATOM      4  C   UNL     1       3.291   5.521   1.440  0.00  0.00    +0.042 A 
ATOM      5  C   UNL     1       3.039   4.606   0.434  0.00  0.00    +0.027 A 
ATOM      6  N   UNL     1       3.609   3.438   0.778  0.00  0.00    -0.344 N 
ATOM      7  C   UNL     1       2.259   4.872  -0.827  0.00  0.00    +0.064 C 
ENDROOT
BRANCH   4   8
ATOM      8  C   UNL     1       2.858   6.919   1.490  0.00  0.00    +0.202 C 
ATOM      9  O   UNL     1       2.200   7.383   0.582  0.00  0.00    -0.288 OA
BRANCH   8  10
ATOM     10  C   UNL     1       3.231   7.781   2.668  0.00  0.00    +0.311 C 
BRANCH  10  11
ATOM     11  O   UNL     1       2.688   9.115   2.483  0.00  0.00    -0.453 OA
BRANCH  11  12
ATOM     12  C   UNL     1       2.933  10.015   3.454  0.00  0.00    +0.340 C 
ATOM     13  O   UNL     1       3.583   9.695   4.429  0.00  0.00    -0.245 OA
BRANCH  12  14
ATOM     14  C   UNL     1       2.412  11.393   3.333  0.00  0.00    +0.059 A 
ATOM     15  C   UNL     1       1.671  11.766   2.211  0.00  0.00    +0.017 A 
ATOM     16  C   UNL     1       1.183  13.052   2.107  0.00  0.00    +0.029 A 
ATOM     17  C   UNL     1       1.436  13.974   3.107  0.00  0.00    +0.105 A 
ATOM     18  C   UNL     1       2.175  13.613   4.219  0.00  0.00    +0.029 A 
ATOM     19  C   UNL     1       2.664  12.329   4.338  0.00  0.00    +0.017 A 
BRANCH  17  20
ATOM     20  S   UNL     1       0.814  15.617   2.963  0.00  0.00    +0.056 S 
ATOM     21  O   UNL     1      -0.306  15.552   2.091  0.00  0.00    -0.153 OA
ATOM     22  O   UNL     1       0.723  16.134   4.283  0.00  0.00    -0.153 OA
BRANCH  20  23
ATOM     23  N   UNL     1       1.969  16.511   2.183  0.00  0.00    -0.204 NA
ATOM     24  H   UNL     1       1.618  17.547   2.072  0.00  0.00    +0.144 HD
ATOM     25  H   UNL     1       2.157  16.080   1.188  0.00  0.00    +0.144 HD
ENDBRANCH  20  23
ENDBRANCH  17  20
ENDBRANCH  12  14
ENDBRANCH  11  12
ENDBRANCH  10  11
ENDBRANCH   8  10
ENDBRANCH   4   8
BRANCH   6  26
ATOM     26  C   UNL     1       3.562   2.216  -0.029  0.00  0.00    +0.169 C 
BRANCH  26  27
ATOM     27  C   UNL     1       2.334   1.392   0.364  0.00  0.00    +0.230 C 
ATOM     28  C   UNL     1       2.347   0.053  -0.387  0.00  0.00    +0.275 C 
ATOM     29  O   UNL     1       1.181  -0.685  -0.007  0.00  0.00    -0.485 OA
ATOM     30  C   UNL     1       0.002  -0.004   0.002  0.00  0.00    +0.162 A 
ATOM     31  C   UNL     1      -1.192  -0.710   0.004  0.00  0.00    +0.049 A 
ATOM     32  C   UNL     1      -2.397  -0.033   0.016  0.00  0.00    +0.004 A 
ATOM     33  C   UNL     1      -2.415   1.349   0.026  0.00  0.00    +0.004 A 
ATOM     34  C   UNL     1      -1.229   2.059   0.019  0.00  0.00    +0.049 A 
ATOM     35  C   UNL     1      -0.017   1.385   0.010  0.00  0.00    +0.163 A 
ATOM     36  O   UNL     1       1.143   2.098   0.002  0.00  0.00    -0.480 OA
ENDBRANCH  26  27
ENDBRANCH   6  26
TORSDOF 9
