REMARK  Name = ZINC61888098
REMARK  5 active torsions:
REMARK  status: ('A' for Active; 'I' for Inactive)
REMARK    1  A    between atoms: C_4  and  S_8
REMARK    2  A    between atoms: S_8  and  N_11
REMARK    3  A    between atoms: N_11  and  C_12
REMARK    4  A    between atoms: C_17  and  C_19
REMARK    5  A    between atoms: N_20  and  O_21
REMARK                            x       y       z     vdW  Elec       q    Type
REMARK                         _______ _______ _______ _____ _____    ______ ____
ROOT
ATOM      1  N   UNL     1       4.777  -0.471  -1.647  0.00  0.00    -0.186 NA
ATOM      2  H   UNL     1       5.203  -1.106  -2.245  0.00  0.00    +0.148 HD
ENDROOT
BRANCH   1   3
ATOM      3  C   UNL     1       5.099   0.955  -1.743  0.00  0.00    +0.087 C 
ATOM      4  C   UNL     1       6.622   1.158  -1.663  0.00  0.00    +0.021 C 
ATOM      5  C   UNL     1       7.048   1.826  -2.987  0.00  0.00    +0.002 C 
ATOM      6  C   UNL     1       5.930   1.437  -3.986  0.00  0.00    +0.013 C 
ATOM      7  C   UNL     1       4.651   1.507  -3.112  0.00  0.00    +0.074 C 
BRANCH   7   8
ATOM      8  C   UNL     1       3.563   0.644  -3.699  0.00  0.00    +0.136 C 
ATOM      9  N   UNL     1       2.323   0.968  -3.534  0.00  0.00    -0.076 NA
ATOM     10  N   UNL     1       3.891  -0.489  -4.409  0.00  0.00    -0.344 N 
ATOM     11  H   UNL     1       4.822  -0.732  -4.532  0.00  0.00    +0.144 HD
ATOM     12  H   UNL     1       3.191  -1.044  -4.786  0.00  0.00    +0.144 HD
BRANCH   9  13
ATOM     13  O   UNL     1       1.988   2.188  -2.899  0.00  0.00    -0.408 OA
ATOM     14  H   UNL     1       1.040   2.308  -2.753  0.00  0.00    +0.328 HD
ENDBRANCH   9  13
ENDBRANCH   7   8
ENDBRANCH   1   3
BRANCH   1  15
ATOM     15  S   UNL     1       3.688  -1.000  -0.518  0.00  0.00    +0.060 S 
ATOM     16  O   UNL     1       3.644  -2.416  -0.628  0.00  0.00    -0.153 OA
ATOM     17  O   UNL     1       2.530  -0.189  -0.660  0.00  0.00    -0.153 OA
BRANCH  15  21
ATOM     18  C   UNL     1       5.429  -0.072   3.557  0.00  0.00    +0.016 A 
ATOM     19  C   UNL     1       6.069  -0.966   2.720  0.00  0.00    +0.018 A 
ATOM     20  C   UNL     1       5.537  -1.250   1.475  0.00  0.00    +0.044 A 
ATOM     21  C   UNL     1       4.364  -0.639   1.068  0.00  0.00    +0.120 A 
ATOM     22  C   UNL     1       3.724   0.254   1.906  0.00  0.00    +0.045 A 
ATOM     23  C   UNL     1       4.256   0.539   3.151  0.00  0.00    +0.020 A 
ATOM     24 BR   UNL     1       3.380   1.761   4.297  0.00  0.00    -0.050 Br
ATOM     25 BR   UNL     1       6.414  -2.472   0.329  0.00  0.00    -0.048 Br
ENDBRANCH  15  21
ENDBRANCH   1  15
TORSDOF 5
