REMARK  Name = ZINC02963695
REMARK  5 active torsions:
REMARK  status: ('A' for Active; 'I' for Inactive)
REMARK    1  A    between atoms: C_1  and  C_2
REMARK    2  A    between atoms: C_11  and  C_25
REMARK    3  A    between atoms: N_13  and  C_17
REMARK    4  A    between atoms: C_21  and  S_23
REMARK    5  A    between atoms: S_23  and  C_24
REMARK                            x       y       z     vdW  Elec       q    Type
REMARK                         _______ _______ _______ _____ _____    ______ ____
ROOT
ATOM      1  C   UNL     1       2.091   6.226  -4.361  0.00  0.00    +0.044 C 
ATOM      2  C   UNL     1       1.093   5.781  -3.322  0.00  0.00    -0.050 A 
ATOM      3  C   UNL     1      -0.251   6.061  -3.490  0.00  0.00    +0.007 A 
ATOM      4  C   UNL     1      -1.165   5.657  -2.538  0.00  0.00    +0.046 A 
ATOM      5  C   UNL     1      -0.738   4.967  -1.407  0.00  0.00    +0.128 A 
ATOM      6  C   UNL     1       0.607   4.685  -1.248  0.00  0.00    +0.015 A 
ATOM      7  C   UNL     1       1.520   5.093  -2.203  0.00  0.00    +0.012 A 
ATOM      8  C   UNL     1       1.103   3.929  -0.035  0.00  0.00    +0.111 C 
ATOM      9  C   UNL     1       0.095   4.109   1.111  0.00  0.00    +0.096 C 
ATOM     10  C   UNL     1      -1.284   3.682   0.539  0.00  0.00    +0.183 C 
ATOM     11  O   UNL     1      -1.665   4.594  -0.487  0.00  0.00    -0.468 OA
ATOM     12  N   UNL     1      -1.187   2.323   0.013  0.00  0.00    -0.244 N 
ATOM     13  C   UNL     1      -0.017   1.792  -0.374  0.00  0.00    +0.141 C 
ATOM     14  S   UNL     1       0.021   0.156  -0.875  0.00  0.00    -0.018 S 
ATOM     15  N   UNL     1       1.125   2.500  -0.388  0.00  0.00    -0.319 N 
ATOM     16  C   UNL     1      -2.325   3.715   1.660  0.00  0.00    +0.079 C 
ATOM     17  H   UNL     1       1.961   2.071  -0.629  0.00  0.00    +0.148 HD
ENDROOT
BRANCH  12  18
ATOM     18  C   UNL     1      -2.348   1.550  -0.087  0.00  0.00    +0.040 A 
ATOM     19  C   UNL     1      -3.170   1.670  -1.202  0.00  0.00    +0.024 A 
ATOM     20  C   UNL     1      -4.315   0.903  -1.304  0.00  0.00    +0.003 A 
ATOM     21  C   UNL     1      -4.653   0.023  -0.294  0.00  0.00    +0.015 A 
ATOM     22  C   UNL     1      -3.838  -0.098   0.826  0.00  0.00    +0.009 A 
ATOM     23  C   UNL     1      -2.684   0.667   0.928  0.00  0.00    +0.038 A 
BRANCH  22  24
ATOM     24  S   UNL     1      -4.269  -1.222   2.113  0.00  0.00    -0.129 S 
ATOM     25  C   UNL     1      -5.817  -1.974   1.539  0.00  0.00    +0.090 C 
ENDBRANCH  22  24
ENDBRANCH  12  18
TORSDOF 2
