REMARK  Name = ZINC05275208
REMARK  9 active torsions:
REMARK  status: ('A' for Active; 'I' for Inactive)
REMARK    1  A    between atoms: C_1  and  C_2
REMARK    2  A    between atoms: C_2  and  C_4
REMARK    3  A    between atoms: C_2  and  C_10
REMARK    4  A    between atoms: C_4  and  C_5
REMARK    5  A    between atoms: C_5  and  C_6
REMARK    6  A    between atoms: C_6  and  O_8
REMARK    7  A    between atoms: O_8  and  C_9
REMARK    8  A    between atoms: C_16  and  C_34
REMARK    9  A    between atoms: C_27  and  C_33
REMARK                            x       y       z     vdW  Elec       q    Type
REMARK                         _______ _______ _______ _____ _____    ______ ____
ROOT
ATOM      1  C   UNL     1       1.884   0.806  -0.416  0.00  0.00    -0.002 C 
ATOM      2  C   UNL     1       0.999   1.936   0.165  0.00  0.00    +0.004 C 
ATOM      3  C   UNL     1      -0.475   1.498  -0.055  0.00  0.00    +0.004 C 
ATOM      4  C   UNL     1      -0.348   0.004  -0.387  0.00  0.00    -0.001 C 
ATOM      5  C   UNL     1       0.908  -0.022  -1.281  0.00  0.00    -0.026 C 
ATOM      6  C   UNL     1       1.360  -1.437  -1.542  0.00  0.00    +0.007 C 
ATOM      7  C   UNL     1       0.160  -2.388  -1.656  0.00  0.00    +0.005 C 
ATOM      8  C   UNL     1      -1.092  -1.645  -2.102  0.00  0.00    -0.001 C 
ATOM      9  C   UNL     1      -1.533  -0.659  -1.020  0.00  0.00    -0.004 C 
ATOM     10  C   UNL     1      -2.574   0.307  -1.571  0.00  0.00    +0.004 C 
ATOM     11  C   UNL     1      -3.601  -0.486  -2.396  0.00  0.00    +0.005 C 
ATOM     12  C   UNL     1      -3.549  -1.943  -1.955  0.00  0.00    +0.002 C 
ATOM     13  C   UNL     1      -2.245  -2.598  -2.415  0.00  0.00    -0.025 C 
ATOM     14  C   UNL     1      -2.092  -3.945  -1.718  0.00  0.00    +0.015 C 
ATOM     15  C   UNL     1      -3.240  -4.873  -2.135  0.00  0.00    +0.075 C 
ATOM     16  C   UNL     1      -4.567  -4.178  -1.961  0.00  0.00    +0.134 C 
ATOM     17  O   UNL     1      -5.492  -4.755  -1.436  0.00  0.00    -0.297 OA
ATOM     18  C   UNL     1      -4.744  -2.753  -2.447  0.00  0.00    +0.078 C 
ATOM     19  C   UNL     1      -2.266  -2.811  -3.930  0.00  0.00    +0.012 C 
ATOM     20  C   UNL     1       0.715   0.745  -2.590  0.00  0.00    +0.012 C 
ENDROOT
BRANCH   1  22
ATOM     21  C   UNL     1       3.861   2.329  -0.463  0.00  0.00    +0.008 C 
ATOM     22  C   UNL     1       2.989   1.387  -1.296  0.00  0.00    -0.010 C 
BRANCH  22  23
ATOM     23  C   UNL     1       3.850   0.251  -1.850  0.00  0.00    +0.014 C 
BRANCH  23  24
ATOM     24  C   UNL     1       4.866   0.820  -2.843  0.00  0.00    +0.121 C 
BRANCH  24  25
ATOM     25  C   UNL     1       5.715  -0.299  -3.390  0.00  0.00    +0.307 C 
ATOM     26  O   UNL     1       5.526  -1.435  -3.023  0.00  0.00    -0.251 OA
BRANCH  25  27
ATOM     27  O   UNL     1       6.679  -0.035  -4.285  0.00  0.00    -0.468 OA
ATOM     28  C   UNL     1       7.458  -1.161  -4.768  0.00  0.00    +0.280 C 
ENDBRANCH  25  27
ENDBRANCH  24  25
ENDBRANCH  23  24
ENDBRANCH  22  23
ENDBRANCH   1  22
TORSDOF 5
