REMARK  Name = ZINC64816290
REMARK  9 active torsions:
REMARK  status: ('A' for Active; 'I' for Inactive)
REMARK    1  A    between atoms: C_1  and  C_2
REMARK    2  A    between atoms: C_7  and  N_8
REMARK    3  A    between atoms: C_13  and  C_26
REMARK    4  A    between atoms: C_17  and  C_18
REMARK    5  A    between atoms: C_17  and  C_19
REMARK    6  A    between atoms: N_21  and  C_22
REMARK    7  A    between atoms: C_22  and  C_23
REMARK    8  A    between atoms: C_22  and  C_24
REMARK    9  A    between atoms: C_22  and  C_25
REMARK                            x       y       z     vdW  Elec       q    Type
REMARK                         _______ _______ _______ _____ _____    ______ ____
ROOT
ATOM      1  N   UNL     1       0.025  -0.015   2.416  0.00  0.00    -0.250 N 
ATOM      2  C   UNL     1      -1.156   0.290   3.006  0.00  0.00    +0.270 C 
ATOM      3  O   UNL     1      -2.208  -0.181   2.618  0.00  0.00    -0.268 OA
ATOM      4  C   UNL     1      -1.096   1.224   4.142  0.00  0.00    +0.125 A 
ATOM      5  C   UNL     1      -2.042   1.597   5.052  0.00  0.00    +0.065 A 
ATOM      6  C   UNL     1      -1.383   2.508   5.909  0.00  0.00    +0.128 A 
ATOM      7  N   UNL     1      -0.138   2.629   5.483  0.00  0.00    -0.167 NA
ATOM      8  N   UNL     1       0.061   1.907   4.451  0.00  0.00    -0.256 N 
ATOM      9  C   UNL     1       1.271   1.758   3.633  0.00  0.00    +0.179 C 
ATOM     10  C   UNL     1       1.299   0.354   3.024  0.00  0.00    +0.135 C 
ATOM     11  C   UNL     1       2.391   0.300   1.954  0.00  0.00    +0.044 C 
ENDROOT
BRANCH   1  18
ATOM     12  C   UNL     1      -0.018   1.503   0.010  0.00  0.00    +0.045 C 
ATOM     13  C   UNL     1       0.002  -0.004   0.002  0.00  0.00    -0.029 A 
ATOM     14  C   UNL     1       0.006  -0.689  -1.198  0.00  0.00    +0.005 A 
ATOM     15  C   UNL     1       0.024  -2.071  -1.206  0.00  0.00    +0.000 A 
ATOM     16  C   UNL     1       0.039  -2.773  -0.014  0.00  0.00    +0.002 A 
ATOM     17  C   UNL     1       0.035  -2.095   1.188  0.00  0.00    +0.024 A 
ATOM     18  C   UNL     1       0.023  -0.706   1.200  0.00  0.00    +0.041 A 
ENDBRANCH   1  18
BRANCH   6  19
ATOM     19  C   UNL     1      -1.980   3.200   7.072  0.00  0.00    +0.155 A 
ATOM     20  C   UNL     1      -1.344   4.079   7.890  0.00  0.00    +0.051 A 
ATOM     21  C   UNL     1      -2.284   4.488   8.857  0.00  0.00    +0.042 A 
ATOM     22  C   UNL     1      -3.436   3.846   8.584  0.00  0.00    +0.196 A 
ATOM     23  O   UNL     1      -3.251   3.072   7.501  0.00  0.00    -0.461 OA
ENDBRANCH   6  19
BRANCH  10  24
ATOM     24  C   UNL     1       1.631  -0.644   4.104  0.00  0.00    +0.239 C 
ATOM     25  O   UNL     1       2.784  -0.961   4.303  0.00  0.00    -0.273 OA
ATOM     26  N   UNL     1       0.645  -1.184   4.848  0.00  0.00    -0.309 N 
ATOM     27  H   UNL     1      -0.277  -0.930   4.689  0.00  0.00    +0.149 HD
BRANCH  26  28
ATOM     28  C   UNL     1       0.967  -2.153   5.898  0.00  0.00    +0.026 C 
ATOM     29  C   UNL     1       1.893  -1.502   6.927  0.00  0.00    +0.031 C 
ATOM     30  C   UNL     1      -0.321  -2.607   6.587  0.00  0.00    +0.031 C 
ATOM     31  C   UNL     1       1.667  -3.364   5.277  0.00  0.00    +0.031 C 
ENDBRANCH  26  28
ENDBRANCH  10  24
TORSDOF 4
