REMARK  Name = ZINC38649652
REMARK  15 active torsions:
REMARK  status: ('A' for Active; 'I' for Inactive)
REMARK    1  A    between atoms: C_1  and  C_2
REMARK    2  A    between atoms: C_2  and  C_4
REMARK    3  A    between atoms: C_2  and  O_30
REMARK    4  A    between atoms: C_4  and  O_6
REMARK    5  A    between atoms: O_6  and  C_7
REMARK    6  A    between atoms: C_14  and  N_29
REMARK    7  A    between atoms: C_15  and  C_27
REMARK    8  A    between atoms: C_16  and  C_18
REMARK    9  A    between atoms: C_21  and  C_24
REMARK   10  A    between atoms: C_24  and  C_25
REMARK   11  A    between atoms: C_24  and  C_26
REMARK   12  A    between atoms: O_30  and  C_31
REMARK   13  A    between atoms: C_34  and  C_37
REMARK   14  A    between atoms: C_37  and  C_38
REMARK   15  A    between atoms: C_37  and  C_39
REMARK                            x       y       z     vdW  Elec       q    Type
REMARK                         _______ _______ _______ _____ _____    ______ ____
ROOT
ATOM      1  C   UNL     1       1.094  -0.482  -3.615  0.00  0.00    +0.135 A 
ATOM      2  C   UNL     1       2.200  -1.294  -3.404  0.00  0.00    +0.047 A 
ATOM      3  C   UNL     1       2.941  -1.744  -4.479  0.00  0.00    +0.012 A 
ATOM      4  C   UNL     1       2.585  -1.388  -5.768  0.00  0.00    +0.008 A 
ATOM      5  C   UNL     1       1.481  -0.578  -5.984  0.00  0.00    +0.138 A 
ATOM      6  C   UNL     1       0.732  -0.130  -4.904  0.00  0.00    +0.093 A 
ATOM      7  O   UNL     1       1.117  -0.219  -7.240  0.00  0.00    -0.441 OA
ATOM      8  C   UNL     1       1.558  -0.926  -8.294  0.00  0.00    +0.199 C 
ATOM      9  C   UNL     1       2.639  -1.737  -8.211  0.00  0.00    +0.098 C 
ATOM     10  C   UNL     1       3.406  -1.888  -6.927  0.00  0.00    +0.098 C 
ENDROOT
BRANCH  10  11
ATOM     11  C   UNL     1       4.684  -1.094  -7.013  0.00  0.00    -0.035 A 
ATOM     12  C   UNL     1       4.636   0.275  -7.195  0.00  0.00    +0.005 A 
ATOM     13  C   UNL     1       5.808   1.004  -7.274  0.00  0.00    +0.004 A 
ATOM     14  C   UNL     1       7.029   0.363  -7.169  0.00  0.00    -0.045 A 
ATOM     15  C   UNL     1       7.077  -1.006  -6.986  0.00  0.00    +0.004 A 
ATOM     16  C   UNL     1       5.904  -1.734  -6.903  0.00  0.00    +0.005 A 
BRANCH  14  17
ATOM     17  C   UNL     1       8.306   1.157  -7.256  0.00  0.00    +0.013 C 
ATOM     18  C   UNL     1       9.102   0.986  -5.960  0.00  0.00    +0.012 C 
ATOM     19  C   UNL     1       9.140   0.655  -8.436  0.00  0.00    +0.012 C 
ENDBRANCH  14  17
ENDBRANCH  10  11
BRANCH   8  20
ATOM     20  N   UNL     1       0.893  -0.824  -9.490  0.00  0.00    -0.328 N 
ATOM     21  H   UNL     1       0.117  -0.247  -9.566  0.00  0.00    +0.145 HD
ATOM     22  H   UNL     1       1.200  -1.328 -10.260  0.00  0.00    +0.145 HD
ENDBRANCH   8  20
BRANCH   9  23
ATOM     23  C   UNL     1       3.060  -2.466  -9.369  0.00  0.00    +0.101 C 
ATOM     24  N   UNL     1       3.394  -3.045 -10.288  0.00  0.00    -0.191 NA
ENDBRANCH   9  23
BRANCH   1  25
ATOM     25  O   UNL     1       0.364  -0.039  -2.558  0.00  0.00    -0.423 OA
BRANCH  25  26
ATOM     26  C   UNL     1       0.875   0.952  -1.810  0.00  0.00    +0.353 C 
ATOM     27  O   UNL     1       1.908   1.485  -2.138  0.00  0.00    -0.246 OA
BRANCH  26  29
ATOM     28  C   UNL     1      -1.191   2.012  -0.939  0.00  0.00    +0.064 C 
ATOM     29  C   UNL     1       0.160   1.400  -0.561  0.00  0.00    +0.279 C 
BRANCH  29  30
ATOM     30  O   UNL     1       0.952   2.377   0.117  0.00  0.00    -0.478 OA
BRANCH  30  31
ATOM     31  C   UNL     1       0.756   2.509   1.455  0.00  0.00    +0.122 A 
ATOM     32  C   UNL     1      -0.252   1.793   2.084  0.00  0.00    +0.046 A 
ATOM     33  C   UNL     1      -0.449   1.929   3.445  0.00  0.00    +0.007 A 
ATOM     34  C   UNL     1       0.358   2.777   4.180  0.00  0.00    -0.045 A 
ATOM     35  C   UNL     1       1.363   3.492   3.555  0.00  0.00    +0.007 A 
ATOM     36  C   UNL     1       1.568   3.356   2.196  0.00  0.00    +0.046 A 
BRANCH  34  37
ATOM     37  C   UNL     1       0.141   2.924   5.664  0.00  0.00    +0.013 C 
ATOM     38  C   UNL     1       1.410   2.505   6.409  0.00  0.00    +0.012 C 
ATOM     39  C   UNL     1      -0.184   4.383   5.990  0.00  0.00    +0.012 C 
ENDBRANCH  34  37
ENDBRANCH  30  31
ENDBRANCH  29  30
ENDBRANCH  26  29
ENDBRANCH  25  26
ENDBRANCH   1  25
TORSDOF 10
