REMARK  Name = ZINC40460760
REMARK  3 active torsions:
REMARK  status: ('A' for Active; 'I' for Inactive)
REMARK    1  A    between atoms: C_5  and  C_6
REMARK    2  A    between atoms: C_11  and  C_14
REMARK    3  A    between atoms: C_14  and  N_15
REMARK                            x       y       z     vdW  Elec       q    Type
REMARK                         _______ _______ _______ _____ _____    ______ ____
ROOT
ATOM      1  C   UNL     1      -1.122  -0.942   0.008  0.00  0.00    +0.256 C 
ATOM      2  O   UNL     1      -2.265  -0.523   0.021  0.00  0.00    -0.269 OA
ATOM      3  N   UNL     1      -0.892  -2.270  -0.002  0.00  0.00    -0.260 N 
ATOM      4  C   UNL     1      -1.958  -3.160   0.004  0.00  0.00    +0.165 A 
ATOM      5  N   UNL     1      -1.925  -4.475   0.002  0.00  0.00    -0.228 NA
ATOM      6  C   UNL     1      -3.038  -5.185   0.008  0.00  0.00    +0.064 A 
ATOM      7  C   UNL     1      -4.207  -4.498   0.017  0.00  0.00    +0.073 A 
ATOM      8  S   UNL     1      -3.606  -2.817   0.022  0.00  0.00    -0.060 S 
ATOM      9  H   UNL     1       0.019  -2.604  -0.012  0.00  0.00    +0.157 HD
ENDROOT
BRANCH   1  14
ATOM     10  C   UNL     1      -0.017   1.383   0.010  0.00  0.00    +0.022 A 
ATOM     11  C   UNL     1       1.212   1.997   0.001  0.00  0.00    +0.028 A 
ATOM     12  C   UNL     1       2.332   1.229  -0.014  0.00  0.00    +0.079 A 
ATOM     13  S   UNL     1       1.751  -0.347  -0.017  0.00  0.00    -0.072 S 
ATOM     14  C   UNL     1       0.002  -0.004   0.002  0.00  0.00    +0.076 A 
ATOM     15 CL   UNL     1       3.986   1.756  -0.027  0.00  0.00    -0.076 Cl
ENDBRANCH   1  14
BRANCH   6  16
ATOM     16  C   UNL     1      -3.011  -6.692   0.006  0.00  0.00    +0.140 C 
BRANCH  16  17
ATOM     17  N   UNL     1      -2.890  -7.177  -1.376  0.00  0.00    -0.292 NA
ATOM     18  C   UNL     1      -4.095  -6.854  -2.154  0.00  0.00    +0.113 C 
ATOM     19  C   UNL     1      -3.903  -7.323  -3.599  0.00  0.00    +0.175 C 
ATOM     20  O   UNL     1      -3.612  -8.724  -3.606  0.00  0.00    -0.377 OA
ATOM     21  C   UNL     1      -2.445  -9.073  -2.857  0.00  0.00    +0.175 C 
ATOM     22  C   UNL     1      -2.622  -8.622  -1.405  0.00  0.00    +0.113 C 
ENDBRANCH  16  17
ENDBRANCH   6  16
TORSDOF 3
