REMARK  Name = ZINC55576342
REMARK  9 active torsions:
REMARK  status: ('A' for Active; 'I' for Inactive)
REMARK    1  A    between atoms: C_1  and  C_2
REMARK    2  A    between atoms: C_2  and  C_28
REMARK    3  A    between atoms: C_4  and  N_10
REMARK    4  A    between atoms: C_6  and  C_8
REMARK    5  A    between atoms: C_6  and  C_9
REMARK    6  A    between atoms: C_11  and  C_13
REMARK    7  A    between atoms: C_13  and  C_14
REMARK    8  A    between atoms: N_21  and  C_22
REMARK    9  A    between atoms: C_22  and  C_23
REMARK                            x       y       z     vdW  Elec       q    Type
REMARK                         _______ _______ _______ _____ _____    ______ ____
ROOT
ATOM      1  C   UNL     1       2.108  -3.992  -4.268  0.00  0.00    +0.124 C 
ENDROOT
BRANCH   1   2
ATOM      2  C   UNL     1       1.944  -5.496  -4.495  0.00  0.00    +0.152 C 
ATOM      3  C   UNL     1       2.362  -6.236  -3.256  0.00  0.00    +0.231 C 
ATOM      4  O   UNL     1       3.364  -5.878  -2.676  0.00  0.00    -0.274 OA
ATOM      5  N   UNL     1       1.674  -7.274  -2.767  0.00  0.00    -0.313 N 
ATOM      6  C   UNL     1       0.436  -7.760  -3.369  0.00  0.00    +0.119 C 
ATOM      7  C   UNL     1       0.314  -7.247  -4.805  0.00  0.00    +0.104 C 
ATOM      8  N   UNL     1       0.539  -5.792  -4.805  0.00  0.00    -0.285 NA
ATOM      9  H   UNL     1       2.013  -7.723  -1.977  0.00  0.00    +0.149 HD
BRANCH   8  10
ATOM     10  C   UNL     1       0.147  -5.201  -6.091  0.00  0.00    +0.127 C 
BRANCH  10  11
ATOM     11  C   UNL     1      -1.356  -5.184  -6.199  0.00  0.00    +0.004 A 
ATOM     12  C   UNL     1      -2.228  -4.217  -5.821  0.00  0.00    +0.012 A 
ATOM     13  C   UNL     1      -3.581  -4.420  -6.019  0.00  0.00    +0.008 A 
ATOM     14  C   UNL     1      -3.995  -5.579  -6.587  0.00  0.00    +0.045 A 
ATOM     15  S   UNL     1      -2.450  -6.427  -6.866  0.00  0.00    -0.100 S 
ENDBRANCH  10  11
ENDBRANCH   8  10
ENDBRANCH   1   2
BRANCH   1  17
ATOM     16  N   UNL     1       1.252  -2.283  -2.698  0.00  0.00    -0.312 N 
ATOM     17  C   UNL     1       1.197  -3.551  -3.151  0.00  0.00    +0.215 C 
ATOM     18  O   UNL     1       0.414  -4.337  -2.660  0.00  0.00    -0.276 OA
ATOM     19  H   UNL     1       1.877  -1.654  -3.090  0.00  0.00    +0.149 HD
BRANCH  16  23
ATOM     20  C   UNL     1      -0.746   1.689  -0.608  0.00  0.00    +0.011 C 
ATOM     21  C   UNL     1      -0.770   0.145  -0.592  0.00  0.00    -0.033 C 
ATOM     22  C   UNL     1       0.158  -0.342  -1.700  0.00  0.00    +0.028 C 
ATOM     23  C   UNL     1       0.364  -1.853  -1.609  0.00  0.00    +0.074 C 
ATOM     24  C   UNL     1       1.019  -2.182  -0.270  0.00  0.00    +0.028 C 
ATOM     25  C   UNL     1       0.124  -1.761   0.889  0.00  0.00    -0.033 C 
ATOM     26  C   UNL     1      -0.328  -0.316   0.784  0.00  0.00    +0.013 C 
ATOM     27  C   UNL     1       0.943  -1.910   2.191  0.00  0.00    +0.011 C 
ATOM     28  C   UNL     1      -1.076  -2.707   0.995  0.00  0.00    +0.011 C 
ATOM     29  C   UNL     1      -2.208  -0.292  -0.885  0.00  0.00    +0.011 C 
ENDBRANCH  16  23
ENDBRANCH   1  17
TORSDOF 5
