REMARK  Name = ZINC37641909
REMARK  2 active torsions:
REMARK  status: ('A' for Active; 'I' for Inactive)
REMARK    1  A    between atoms: C_4  and  C_8
REMARK    2  A    between atoms: C_6  and  N_7
REMARK                            x       y       z     vdW  Elec       q    Type
REMARK                         _______ _______ _______ _____ _____    ______ ____
ROOT
ATOM      1  C   UNL     1       3.702  -0.679  -0.037  0.00  0.00    +0.141 A 
ATOM      2  N   UNL     1       4.930  -0.082  -0.139  0.00  0.00    -0.338 N 
ATOM      3  H   UNL     1       5.103   0.869  -0.211  0.00  0.00    +0.167 HD
ATOM      4  C   UNL     1       5.876  -1.089  -0.118  0.00  0.00    +0.068 A 
ATOM      5  C   UNL     1       7.262  -1.109  -0.186  0.00  0.00    +0.043 A 
ATOM      6  C   UNL     1       7.931  -2.315  -0.139  0.00  0.00    +0.020 A 
ATOM      7  C   UNL     1       7.227  -3.506  -0.023  0.00  0.00    +0.017 A 
ATOM      8  C   UNL     1       5.863  -3.505   0.045  0.00  0.00    +0.031 A 
ATOM      9  C   UNL     1       5.163  -2.295  -0.002  0.00  0.00    +0.090 A 
ATOM     10  N   UNL     1       3.846  -1.979   0.048  0.00  0.00    -0.228 NA
ATOM     11 BR   UNL     1       9.819  -2.345  -0.232  0.00  0.00    -0.050 Br
ENDROOT
BRANCH   1  15
ATOM     12  C   UNL     1      -0.025   1.370   0.011  0.00  0.00    +0.024 A 
ATOM     13  C   UNL     1       0.002  -0.012  -0.010  0.00  0.00    +0.022 A 
ATOM     14  C   UNL     1       1.210  -0.682  -0.026  0.00  0.00    +0.052 A 
ATOM     15  C   UNL     1       2.407   0.036  -0.021  0.00  0.00    +0.037 A 
ATOM     16  C   UNL     1       2.378   1.430   0.000  0.00  0.00    +0.035 A 
ATOM     17  C   UNL     1       1.161   2.094   0.016  0.00  0.00    +0.025 A 
ATOM     18 CL   UNL     1       1.238  -2.418  -0.051  0.00  0.00    -0.083 Cl
BRANCH  17  19
ATOM     19  N   UNL     1       1.127   3.491   0.037  0.00  0.00    -0.358 N 
ATOM     20  H   UNL     1       0.276   3.955   0.048  0.00  0.00    +0.142 HD
ATOM     21  H   UNL     1       1.956   3.996   0.041  0.00  0.00    +0.142 HD
ENDBRANCH  17  19
ENDBRANCH   1  15
TORSDOF 2
