REMARK  Name = ZINC49974238
REMARK  9 active torsions:
REMARK  status: ('A' for Active; 'I' for Inactive)
REMARK    1  A    between atoms: C_1  and  C_2
REMARK    2  A    between atoms: C_2  and  C_4
REMARK    3  A    between atoms: C_2  and  N_17
REMARK    4  A    between atoms: N_6  and  C_7
REMARK    5  A    between atoms: C_10  and  S_13
REMARK    6  A    between atoms: S_13  and  N_16
REMARK    7  A    between atoms: N_17  and  C_18
REMARK    8  A    between atoms: C_18  and  C_20
REMARK    9  A    between atoms: C_18  and  C_26
REMARK                            x       y       z     vdW  Elec       q    Type
REMARK                         _______ _______ _______ _____ _____    ______ ____
ROOT
ATOM      1  C   UNL     1      -0.028   1.531   0.022  0.00  0.00    +0.034 C 
ATOM      2  C   UNL     1       0.000   0.002   0.005  0.00  0.00    +0.138 C 
ENDROOT
BRANCH   2   3
ATOM      3  C   UNL     1      -1.411  -0.527   0.012  0.00  0.00    +0.234 C 
ATOM      4  O   UNL     1      -1.787  -1.242   0.917  0.00  0.00    -0.274 OA
ATOM      5  N   UNL     1      -2.256  -0.206  -0.988  0.00  0.00    -0.284 N 
ATOM      6  H   UNL     1      -1.977   0.418  -1.677  0.00  0.00    +0.155 HD
BRANCH   5   7
ATOM      7  C   UNL     1      -3.534  -0.773  -1.034  0.00  0.00    +0.034 A 
ATOM      8  C   UNL     1      -4.114  -1.085  -2.257  0.00  0.00    +0.025 A 
ATOM      9  C   UNL     1      -5.376  -1.644  -2.299  0.00  0.00    +0.030 A 
ATOM     10  C   UNL     1      -6.061  -1.895  -1.124  0.00  0.00    +0.105 A 
ATOM     11  C   UNL     1      -5.487  -1.586   0.095  0.00  0.00    +0.030 A 
ATOM     12  C   UNL     1      -4.223  -1.032   0.144  0.00  0.00    +0.025 A 
BRANCH  10  13
ATOM     13  S   UNL     1      -7.671  -2.610  -1.182  0.00  0.00    +0.056 S 
ATOM     14  O   UNL     1      -8.322  -2.241   0.026  0.00  0.00    -0.153 OA
ATOM     15  O   UNL     1      -8.207  -2.301  -2.461  0.00  0.00    -0.153 OA
BRANCH  13  16
ATOM     16  N   UNL     1      -7.479  -4.254  -1.133  0.00  0.00    -0.204 NA
ATOM     17  H   UNL     1      -6.589  -4.637  -1.083  0.00  0.00    +0.144 HD
ATOM     18  H   UNL     1      -8.256  -4.834  -1.155  0.00  0.00    +0.144 HD
ENDBRANCH  13  16
ENDBRANCH  10  13
ENDBRANCH   5   7
ENDBRANCH   2   3
BRANCH   2  19
ATOM     19  N   UNL     1       0.712  -0.488   1.194  0.00  0.00    -0.293 NA
ATOM     20  H   UNL     1       0.488   0.069   2.004  0.00  0.00    +0.124 HD
BRANCH  19  21
ATOM     21  C   UNL     1       2.162  -0.521   0.962  0.00  0.00    +0.151 C 
BRANCH  21  22
ATOM     22  C   UNL     1       2.884  -0.418   2.281  0.00  0.00    -0.023 A 
ATOM     23  C   UNL     1       2.406  -1.099   3.385  0.00  0.00    +0.005 A 
ATOM     24  C   UNL     1       3.068  -1.004   4.595  0.00  0.00    +0.000 A 
ATOM     25  C   UNL     1       4.208  -0.230   4.700  0.00  0.00    +0.000 A 
ATOM     26  C   UNL     1       4.687   0.449   3.596  0.00  0.00    +0.000 A 
ATOM     27  C   UNL     1       4.027   0.351   2.385  0.00  0.00    +0.005 A 
ENDBRANCH  21  22
BRANCH  21  28
ATOM     28  C   UNL     1       2.533  -1.816   0.286  0.00  0.00    +0.126 A 
ATOM     29  C   UNL     1       3.440  -1.958  -0.698  0.00  0.00    +0.046 A 
ATOM     30  C   UNL     1       3.469  -3.331  -1.033  0.00  0.00    +0.041 A 
ATOM     31  C   UNL     1       2.579  -3.946  -0.234  0.00  0.00    +0.195 A 
ATOM     32  O   UNL     1       2.019  -3.024   0.566  0.00  0.00    -0.466 OA
ENDBRANCH  21  28
ENDBRANCH  19  21
ENDBRANCH   2  19
TORSDOF 8
