REMARK  Name = ZINC14545875
REMARK  8 active torsions:
REMARK  status: ('A' for Active; 'I' for Inactive)
REMARK    1  A    between atoms: C_1  and  O_2
REMARK    2  A    between atoms: O_2  and  C_3
REMARK    3  A    between atoms: C_6  and  N_9
REMARK    4  A    between atoms: N_9  and  S_10
REMARK    5  A    between atoms: S_10  and  C_13
REMARK    6  A    between atoms: C_26  and  C_29
REMARK    7  A    between atoms: C_34  and  O_35
REMARK    8  A    between atoms: O_35  and  C_36
REMARK                            x       y       z     vdW  Elec       q    Type
REMARK                         _______ _______ _______ _____ _____    ______ ____
ROOT
ATOM      1  C   UNL     1       0.205   0.273  -0.391  0.00  0.00    +0.109 A 
ATOM      2  C   UNL     1      -0.862  -0.430  -0.921  0.00  0.00    +0.030 A 
ATOM      3  C   UNL     1      -0.753  -1.793  -1.116  0.00  0.00    +0.025 A 
ATOM      4  C   UNL     1       0.423  -2.452  -0.781  0.00  0.00    +0.031 A 
ATOM      5  C   UNL     1       1.495  -1.751  -0.251  0.00  0.00    -0.018 A 
ATOM      6  C   UNL     1       1.376  -0.380  -0.064  0.00  0.00    +0.034 A 
ATOM      7  C   UNL     1       2.783  -2.416   0.119  0.00  0.00    +0.049 C 
ATOM      8  C   UNL     1       2.919  -2.560   1.615  0.00  0.00    -0.023 C 
ATOM      9  C   UNL     1       3.516  -3.689   1.910  0.00  0.00    -0.030 C 
ATOM     10  C   UNL     1       3.864  -4.451   0.646  0.00  0.00    +0.033 C 
ATOM     11  C   UNL     1       2.888  -3.859  -0.412  0.00  0.00    +0.029 C 
ATOM     12  C   UNL     1       1.545  -4.576  -0.245  0.00  0.00    +0.108 C 
ATOM     13  N   UNL     1       0.515  -3.833  -0.980  0.00  0.00    -0.336 N 
ATOM     14  H   UNL     1      -0.087  -4.289  -1.588  0.00  0.00    +0.147 HD
ENDROOT
BRANCH  12  15
ATOM     15  C   UNL     1       1.648  -5.976  -0.792  0.00  0.00    +0.015 A 
ATOM     16  C   UNL     1       1.709  -7.053   0.071  0.00  0.00    +0.009 A 
ATOM     17  C   UNL     1       1.804  -8.338  -0.431  0.00  0.00    +0.001 A 
ATOM     18  C   UNL     1       1.838  -8.548  -1.797  0.00  0.00    +0.004 A 
ATOM     19  C   UNL     1       1.778  -7.475  -2.664  0.00  0.00    +0.046 A 
ATOM     20  C   UNL     1       1.677  -6.185  -2.163  0.00  0.00    +0.125 A 
BRANCH  20  21
ATOM     21  O   UNL     1       1.612  -5.127  -3.014  0.00  0.00    -0.495 OA
ATOM     22  C   UNL     1       1.647  -5.417  -4.413  0.00  0.00    +0.277 C 
ENDBRANCH  20  21
ENDBRANCH  12  15
BRANCH   1  23
ATOM     23  S   UNL     1       0.071   2.012  -0.139  0.00  0.00    +0.072 S 
ATOM     24  O   UNL     1       1.397   2.510  -0.028  0.00  0.00    -0.150 OA
ATOM     25  O   UNL     1      -0.845   2.494  -1.113  0.00  0.00    -0.150 OA
BRANCH  23  26
ATOM     26  N   UNL     1      -0.645   2.239   1.337  0.00  0.00    -0.216 N 
ATOM     27  H   UNL     1      -0.169   2.707   2.040  0.00  0.00    +0.174 HD
BRANCH  26  31
ATOM     28  C   UNL     1      -4.496   0.801   2.028  0.00  0.00    +0.120 A 
ATOM     29  C   UNL     1      -3.497   0.586   2.966  0.00  0.00    +0.047 A 
ATOM     30  C   UNL     1      -2.221   1.062   2.738  0.00  0.00    +0.028 A 
ATOM     31  C   UNL     1      -1.938   1.756   1.569  0.00  0.00    +0.048 A 
ATOM     32  C   UNL     1      -2.940   1.976   0.633  0.00  0.00    +0.028 A 
ATOM     33  C   UNL     1      -4.215   1.495   0.860  0.00  0.00    +0.047 A 
BRANCH  28  35
ATOM     34  C   UNL     1      -6.732   0.591   1.246  0.00  0.00    +0.277 C 
ATOM     35  O   UNL     1      -5.753   0.333   2.254  0.00  0.00    -0.495 OA
ENDBRANCH  28  35
ENDBRANCH  26  31
ENDBRANCH  23  26
ENDBRANCH   1  23
TORSDOF 6
