REMARK  Name = ZINC34747200
REMARK  7 active torsions:
REMARK  status: ('A' for Active; 'I' for Inactive)
REMARK    1  A    between atoms: C_1  and  C_2
REMARK    2  A    between atoms: C_5  and  N_8
REMARK    3  A    between atoms: C_9  and  C_11
REMARK    4  A    between atoms: C_11  and  N_12
REMARK    5  A    between atoms: N_25  and  C_28
REMARK    6  A    between atoms: C_28  and  C_29
REMARK    7  A    between atoms: C_29  and  C_31
REMARK                            x       y       z     vdW  Elec       q    Type
REMARK                         _______ _______ _______ _____ _____    ______ ____
ROOT
ATOM      1  N   UNL     1       0.426  -7.007   2.850  0.00  0.00    -0.271 N 
ATOM      2  C   UNL     1       1.584  -6.995   3.537  0.00  0.00    +0.264 A 
ATOM      3  O   UNL     1       2.626  -6.686   2.985  0.00  0.00    -0.267 OA
ATOM      4  C   UNL     1       1.574  -7.349   4.923  0.00  0.00    +0.076 A 
ATOM      5  C   UNL     1       2.703  -7.404   5.854  0.00  0.00    -0.023 A 
ATOM      6  C   UNL     1       2.432  -7.770   7.123  0.00  0.00    -0.004 A 
ATOM      7  S   UNL     1       0.683  -8.058   7.156  0.00  0.00    -0.073 S 
ATOM      8  C   UNL     1       0.320  -7.686   5.459  0.00  0.00    +0.117 A 
ATOM      9  N   UNL     1      -0.787  -7.679   4.725  0.00  0.00    -0.208 NA
ATOM     10  C   UNL     1      -0.750  -7.344   3.452  0.00  0.00    +0.202 A 
ATOM     11  N   UNL     1      -1.911  -7.339   2.720  0.00  0.00    -0.304 N 
ATOM     12  C   UNL     1      -2.316  -8.516   1.935  0.00  0.00    +0.089 C 
ATOM     13  C   UNL     1      -3.769  -8.854   2.281  0.00  0.00    -0.059 C 
ATOM     14  N   UNL     1      -4.610  -7.669   2.072  0.00  0.00    +0.384 N 
ATOM     15  C   UNL     1      -4.218  -6.606   3.007  0.00  0.00    -0.059 C 
ATOM     16  C   UNL     1      -2.789  -6.159   2.701  0.00  0.00    +0.089 C 
ATOM     17  C   UNL     1       3.403  -7.903   8.256  0.00  0.00    +0.043 C 
ATOM     18  C   UNL     1       4.825  -7.922   7.676  0.00  0.00    +0.005 C 
ATOM     19  C   UNL     1       4.961  -6.771   6.675  0.00  0.00    +0.005 C 
ATOM     20  C   UNL     1       4.129  -7.068   5.427  0.00  0.00    +0.037 C 
ATOM     21  H   UNL     1      -4.496  -7.340   1.125  0.00  0.00    -0.081 HD
ENDROOT
BRANCH   1  22
ATOM     22  C   UNL     1       0.429  -6.646   1.431  0.00  0.00    +0.224 C 
BRANCH  22  24
ATOM     23  N   UNL     1       0.320  -4.584   0.069  0.00  0.00    -0.284 N 
ATOM     24  C   UNL     1       0.334  -5.149   1.293  0.00  0.00    +0.237 C 
ATOM     25  O   UNL     1       0.270  -4.451   2.283  0.00  0.00    -0.274 OA
ATOM     26  H   UNL     1       0.296  -5.143  -0.723  0.00  0.00    +0.155 HD
BRANCH  23  31
ATOM     27  C   UNL     1       0.400   1.065  -0.450  0.00  0.00    +0.044 C 
ATOM     28  C   UNL     1       0.379  -0.436  -0.312  0.00  0.00    -0.050 A 
ATOM     29  C   UNL     1       1.035  -1.041   0.743  0.00  0.00    +0.005 A 
ATOM     30  C   UNL     1       1.018  -2.416   0.873  0.00  0.00    +0.023 A 
ATOM     31  C   UNL     1       0.339  -3.191  -0.059  0.00  0.00    +0.033 A 
ATOM     32  C   UNL     1      -0.320  -2.580  -1.118  0.00  0.00    +0.023 A 
ATOM     33  C   UNL     1      -0.302  -1.204  -1.239  0.00  0.00    +0.005 A 
ENDBRANCH  23  31
ENDBRANCH  22  24
ENDBRANCH   1  22
BRANCH  14  34
ATOM     34  C   UNL     1      -6.018  -8.023   2.298  0.00  0.00    -0.048 C 
BRANCH  34  35
ATOM     35  C   UNL     1      -6.462  -9.009   1.248  0.00  0.00    -0.096 C 
ATOM     36  C   UNL     1      -6.439 -10.293   1.505  0.00  0.00    +0.005 C 
ATOM     37  C   UNL     1      -6.933  -8.518  -0.096  0.00  0.00    +0.036 C 
ENDBRANCH  34  35
ENDBRANCH  14  34
TORSDOF 5
