REMARK  Name = ZINC63376137
REMARK  8 active torsions:
REMARK  status: ('A' for Active; 'I' for Inactive)
REMARK    1  A    between atoms: C_1  and  C_2
REMARK    2  A    between atoms: C_2  and  C_3
REMARK    3  A    between atoms: C_3  and  C_4
REMARK    4  A    between atoms: C_4  and  N_5
REMARK    5  A    between atoms: C_6  and  C_8
REMARK    6  A    between atoms: C_8  and  C_10
REMARK    7  A    between atoms: C_8  and  N_11
REMARK    8  A    between atoms: C_12  and  C_14
REMARK                            x       y       z     vdW  Elec       q    Type
REMARK                         _______ _______ _______ _____ _____    ______ ____
ROOT
ATOM      1  C   UNL     1       3.268  -7.937  -4.631  0.00  0.00    +0.167 C 
ATOM      2  C   UNL     1       3.553  -8.460  -3.209  0.00  0.00    +0.065 C 
ATOM      3  C   UNL     1       3.985  -9.899  -3.345  0.00  0.00    -0.034 C 
ATOM      4  C   UNL     1       3.530 -11.000  -2.757  0.00  0.00    -0.001 A 
ATOM      5  C   UNL     1       2.524 -11.200  -1.701  0.00  0.00    +0.010 A 
ATOM      6  C   UNL     1       2.284 -12.488  -1.339  0.00  0.00    +0.001 A 
ATOM      7  C   UNL     1       2.936 -13.583  -1.915  0.00  0.00    +0.002 A 
ATOM      8  C   UNL     1       3.880 -13.491  -2.884  0.00  0.00    +0.026 A 
ATOM      9  C   UNL     1       4.225 -12.186  -3.342  0.00  0.00    +0.043 A 
ATOM     10  N   UNL     1       5.097 -11.809  -4.229  0.00  0.00    -0.375 N 
ATOM     11  C   UNL     1       5.103 -10.345  -4.280  0.00  0.00    +0.131 C 
ATOM     12  C   UNL     1       4.737  -9.827  -5.675  0.00  0.00    +0.134 C 
ATOM     13  N   UNL     1       4.333  -8.412  -5.523  0.00  0.00    -0.276 N 
ATOM     14  C   UNL     1       5.107  -7.655  -6.322  0.00  0.00    +0.248 C 
ATOM     15  O   UNL     1       4.972  -6.458  -6.491  0.00  0.00    -0.270 OA
ATOM     16  C   UNL     1       6.134  -8.481  -6.959  0.00  0.00    +0.042 A 
ATOM     17  C   UNL     1       5.926  -9.844  -6.580  0.00  0.00    -0.013 A 
ATOM     18  C   UNL     1       6.729 -10.872  -7.021  0.00  0.00    +0.006 A 
ATOM     19  C   UNL     1       7.772 -10.535  -7.880  0.00  0.00    +0.000 A 
ATOM     20  C   UNL     1       7.996  -9.232  -8.277  0.00  0.00    +0.001 A 
ATOM     21  C   UNL     1       7.180  -8.134  -7.818  0.00  0.00    +0.013 A 
ATOM     22  H   UNL     1       5.650 -12.397  -4.767  0.00  0.00    +0.160 HD
ENDROOT
BRANCH   1  24
ATOM     23  N   UNL     1       2.091  -5.771  -4.830  0.00  0.00    -0.303 N 
ATOM     24  C   UNL     1       3.248  -6.430  -4.622  0.00  0.00    +0.234 C 
ATOM     25  O   UNL     1       4.272  -5.811  -4.429  0.00  0.00    -0.274 OA
ATOM     26  H   UNL     1       1.271  -6.266  -4.985  0.00  0.00    +0.149 HD
BRANCH  23  27
ATOM     27  C   UNL     1       2.071  -4.306  -4.822  0.00  0.00    +0.156 C 
ATOM     28  C   UNL     1       2.448  -3.783  -6.210  0.00  0.00    +0.038 C 
BRANCH  27  30
ATOM     29  N   UNL     1       0.433  -2.503  -4.393  0.00  0.00    -0.314 N 
ATOM     30  C   UNL     1       0.689  -3.824  -4.462  0.00  0.00    +0.233 C 
ATOM     31  O   UNL     1      -0.192  -4.625  -4.235  0.00  0.00    -0.274 OA
ATOM     32  H   UNL     1       1.138  -1.862  -4.575  0.00  0.00    +0.149 HD
BRANCH  29  33
ATOM     33  C   UNL     1      -0.911  -2.034  -4.043  0.00  0.00    +0.104 C 
BRANCH  33  34
ATOM     34  C   UNL     1      -0.931  -0.505  -4.035  0.00  0.00    +0.018 C 
BRANCH  34  36
ATOM     35  C   UNL     1      -2.355   1.514  -3.661  0.00  0.00    +0.004 C 
ATOM     36  C   UNL     1      -2.334  -0.016  -3.669  0.00  0.00    -0.002 C 
ENDBRANCH  34  36
ENDBRANCH  33  34
ENDBRANCH  29  33
ENDBRANCH  27  30
ENDBRANCH  23  27
ENDBRANCH   1  24
TORSDOF 6
