REMARK  Name = ZINC09707535
REMARK  9 active torsions:
REMARK  status: ('A' for Active; 'I' for Inactive)
REMARK    1  A    between atoms: C_1  and  C_2
REMARK    2  A    between atoms: C_4  and  C_33
REMARK    3  A    between atoms: N_6  and  C_26
REMARK    4  A    between atoms: N_12  and  C_25
REMARK    5  A    between atoms: N_15  and  C_18
REMARK    6  A    between atoms: C_18  and  C_19
REMARK    7  A    between atoms: C_19  and  N_71
REMARK    8  A    between atoms: C_26  and  C_27
REMARK    9  A    between atoms: C_27  and  N_73
REMARK                            x       y       z     vdW  Elec       q    Type
REMARK                         _______ _______ _______ _____ _____    ______ ____
ROOT
ATOM      1  C   UNL     1       1.403  -0.550   1.970  0.00  0.00    +0.037 C 
ATOM      2  C   UNL     1       0.024  -0.715   1.327  0.00  0.00    +0.133 C 
ATOM      3  C   UNL     1       0.002  -0.004   0.002  0.00  0.00    +0.057 C 
ATOM      4  N   UNL     1      -0.006  -0.592  -1.123  0.00  0.00    -0.185 NA
ATOM      5  N   UNL     1       0.008  -1.991  -1.249  0.00  0.00    -0.194 N 
ATOM      6  C   UNL     1      -0.249  -2.728  -0.110  0.00  0.00    +0.221 A 
ATOM      7  N   UNL     1      -0.253  -2.137   1.128  0.00  0.00    -0.296 N 
ATOM      8  C   UNL     1      -0.550  -3.120   2.031  0.00  0.00    +0.153 A 
ATOM      9  C   UNL     1      -0.714  -4.300   1.288  0.00  0.00    +0.170 A 
ATOM     10  N   UNL     1      -0.520  -4.006   0.011  0.00  0.00    -0.195 NA
ATOM     11  N   UNL     1      -1.025  -5.490   1.931  0.00  0.00    -0.280 N 
ATOM     12  C   UNL     1      -1.159  -5.449   3.277  0.00  0.00    +0.333 A 
ATOM     13  O   UNL     1      -1.432  -6.479   3.863  0.00  0.00    -0.246 OA
ATOM     14  N   UNL     1      -1.005  -4.327   3.997  0.00  0.00    -0.261 N 
ATOM     15  C   UNL     1      -0.701  -3.133   3.432  0.00  0.00    +0.282 A 
ATOM     16  O   UNL     1      -0.563  -2.124   4.101  0.00  0.00    -0.265 OA
ATOM     17  C   UNL     1      -1.201  -6.738   1.185  0.00  0.00    +0.155 C 
ATOM     18  C   UNL     1      -0.018   1.503   0.010  0.00  0.00    +0.064 C 
ENDROOT
BRANCH  14  19
ATOM     19  C   UNL     1      -1.173  -4.396   5.450  0.00  0.00    +0.111 C 
BRANCH  19  20
ATOM     20  C   UNL     1       0.174  -4.707   6.105  0.00  0.00    -0.057 C 
BRANCH  20  26
ATOM     21  C   UNL     1      -0.360  -3.464   8.113  0.00  0.00    -0.079 C 
ATOM     22  C   UNL     1      -0.669  -3.603   9.605  0.00  0.00    -0.019 C 
ATOM     23  C   UNL     1       0.564  -4.154  10.327  0.00  0.00    -0.004 C 
ATOM     24  C   UNL     1       0.954  -5.497   9.704  0.00  0.00    -0.019 C 
ATOM     25  C   UNL     1       1.215  -5.303   8.208  0.00  0.00    -0.079 C 
ATOM     26  N   UNL     1      -0.017  -4.795   7.568  0.00  0.00    +0.381 N 
ATOM     27  H   UNL     1      -0.787  -5.445   7.765  0.00  0.00    -0.082 HD
ENDBRANCH  20  26
ENDBRANCH  19  20
ENDBRANCH  14  19
BRANCH   5  28
ATOM     28  C   UNL     1       0.280  -2.640  -2.534  0.00  0.00    +0.117 C 
BRANCH  28  29
ATOM     29  C   UNL     1      -1.035  -2.849  -3.288  0.00  0.00    -0.058 C 
BRANCH  29  35
ATOM     30  C   UNL     1       0.015  -2.619  -5.457  0.00  0.00    -0.079 C 
ATOM     31  C   UNL     1       0.404  -3.379  -6.727  0.00  0.00    -0.019 C 
ATOM     32  C   UNL     1      -0.865  -3.853  -7.440  0.00  0.00    -0.004 C 
ATOM     33  C   UNL     1      -1.681  -4.729  -6.486  0.00  0.00    -0.019 C 
ATOM     34  C   UNL     1      -2.009  -3.929  -5.223  0.00  0.00    -0.079 C 
ATOM     35  N   UNL     1      -0.746  -3.524  -4.570  0.00  0.00    +0.381 N 
ATOM     36  H   UNL     1      -0.182  -4.362  -4.386  0.00  0.00    -0.082 HD
ENDBRANCH  29  35
ENDBRANCH  28  29
ENDBRANCH   5  28
TORSDOF 6
