REMARK  Name = ZINC28054707
REMARK  3 active torsions:
REMARK  status: ('A' for Active; 'I' for Inactive)
REMARK    1  A    between atoms: C_1  and  C_2
REMARK    2  A    between atoms: C_5  and  C_8
REMARK    3  A    between atoms: C_19  and  C_21
REMARK                            x       y       z     vdW  Elec       q    Type
REMARK                         _______ _______ _______ _____ _____    ______ ____
ROOT
ATOM      1  C   UNL     1       0.355  -2.948  -2.304  0.00  0.00    +0.174 C 
ATOM      2  C   UNL     1       1.548  -2.631  -1.436  0.00  0.00    +0.025 C 
ATOM      3  C   UNL     1       2.802  -2.754  -1.874  0.00  0.00    +0.050 C 
ATOM      4  C   UNL     1       3.909  -2.421  -0.946  0.00  0.00    +0.039 A 
ATOM      5  C   UNL     1       5.199  -2.188  -1.406  0.00  0.00    +0.033 A 
ATOM      6  C   UNL     1       6.200  -1.884  -0.502  0.00  0.00    +0.042 A 
ATOM      7  C   UNL     1       5.920  -1.811   0.853  0.00  0.00    +0.023 A 
ATOM      8  C   UNL     1       4.638  -2.041   1.318  0.00  0.00    +0.048 A 
ATOM      9  C   UNL     1       3.628  -2.346   0.425  0.00  0.00    +0.131 A 
ATOM     10  O   UNL     1       2.357  -2.578   0.841  0.00  0.00    -0.479 OA
ATOM     11  C   UNL     1       1.303  -2.153  -0.022  0.00  0.00    +0.235 C 
ATOM     12 CL   UNL     1       7.816  -1.592  -1.067  0.00  0.00    -0.084 Cl
ATOM     13  N   UNL     1       3.102  -3.190  -3.170  0.00  0.00    -0.282 N 
ATOM     14  C   UNL     1       2.074  -3.762  -3.901  0.00  0.00    +0.240 A 
ATOM     15  N   UNL     1       0.780  -3.660  -3.500  0.00  0.00    -0.201 N 
ATOM     16  N   UNL     1       0.039  -4.352  -4.458  0.00  0.00    -0.042 NA
ATOM     17  N   UNL     1       0.886  -4.796  -5.329  0.00  0.00    -0.021 NA
ATOM     18  N   UNL     1       2.086  -4.450  -5.006  0.00  0.00    -0.092 NA
ATOM     19  H   UNL     1       4.121  -3.073  -3.567  0.00  0.00    +0.155 HD
ENDROOT
BRANCH   1  24
ATOM     20  C   UNL     1      -2.263   1.972  -3.831  0.00  0.00    +0.044 C 
ATOM     21  C   UNL     1      -1.581   0.689  -3.433  0.00  0.00    -0.050 A 
ATOM     22  C   UNL     1      -2.268  -0.262  -2.703  0.00  0.00    +0.004 A 
ATOM     23  C   UNL     1      -1.642  -1.439  -2.338  0.00  0.00    +0.006 A 
ATOM     24  C   UNL     1      -0.328  -1.665  -2.702  0.00  0.00    -0.019 A 
ATOM     25  C   UNL     1       0.361  -0.711  -3.427  0.00  0.00    +0.006 A 
ATOM     26  C   UNL     1      -0.266   0.464  -3.797  0.00  0.00    +0.004 A 
ENDBRANCH   1  24
BRANCH  11  27
ATOM     27  C   UNL     1       1.230  -0.647  -0.013  0.00  0.00    +0.015 A 
ATOM     28  C   UNL     1       0.002  -0.004   0.002  0.00  0.00    +0.010 A 
ATOM     29  C   UNL     1      -0.017   1.382   0.010  0.00  0.00    +0.020 A 
ATOM     30  C   UNL     1       1.181   2.072   0.002  0.00  0.00    +0.111 A 
ATOM     31  N   UNL     1       2.331   1.427  -0.013  0.00  0.00    -0.263 NA
ATOM     32  C   UNL     1       2.387   0.109  -0.020  0.00  0.00    +0.118 A 
ENDBRANCH  11  27
TORSDOF 2
