REMARK  Name = ZINC39486982
REMARK  5 active torsions:
REMARK  status: ('A' for Active; 'I' for Inactive)
REMARK    1  A    between atoms: C_1  and  C_2
REMARK    2  A    between atoms: C_2  and  C_23
REMARK    3  A    between atoms: N_7  and  C_8
REMARK    4  A    between atoms: C_8  and  C_9
REMARK    5  A    between atoms: C_9  and  C_16
REMARK                            x       y       z     vdW  Elec       q    Type
REMARK                         _______ _______ _______ _____ _____    ______ ____
ROOT
ATOM      1  C   UNL     1      -0.755  -1.567   3.190  0.00  0.00    -0.008 C 
ATOM      2  C   UNL     1       0.061  -2.855   3.333  0.00  0.00    +0.025 C 
ATOM      3  C   UNL     1       0.607  -3.262   1.963  0.00  0.00    +0.103 C 
ATOM      4  N   UNL     1      -0.509  -3.470   1.031  0.00  0.00    -0.219 NA
ATOM      5  C   UNL     1      -1.279  -2.234   0.841  0.00  0.00    +0.103 C 
ATOM      6  C   UNL     1      -1.881  -1.796   2.178  0.00  0.00    +0.025 C 
ATOM      7 CL   UNL     1       0.047  -4.082  -0.466  0.00  0.00    -0.021 Cl
ENDROOT
BRANCH   1   8
ATOM      8  C   UNL     1      -1.354  -1.186   4.545  0.00  0.00    -0.003 C 
ATOM      9  C   UNL     1      -0.254  -1.190   5.608  0.00  0.00    +0.004 C 
ATOM     10  C   UNL     1      -0.853  -0.809   6.963  0.00  0.00    +0.000 C 
ATOM     11  C   UNL     1      -1.935  -1.822   7.345  0.00  0.00    +0.000 C 
ATOM     12  C   UNL     1      -3.035  -1.818   6.282  0.00  0.00    +0.000 C 
ATOM     13  C   UNL     1      -2.436  -2.199   4.927  0.00  0.00    +0.004 C 
ENDBRANCH   1   8
BRANCH   1  14
ATOM     14  C   UNL     1       0.153  -0.439   2.697  0.00  0.00    +0.117 C 
BRANCH  14  21
ATOM     15  C   UNL     1       0.737   2.608   3.312  0.00  0.00    +0.033 C 
ATOM     16  C   UNL     1      -0.654   1.972   3.281  0.00  0.00    +0.050 C 
ATOM     17  C   UNL     1      -1.658   2.903   2.574  0.00  0.00    +0.146 C 
ATOM     18  N   UNL     1      -2.113   2.117   1.417  0.00  0.00    -0.226 N 
ATOM     19  C   UNL     1      -1.497   0.928   1.423  0.00  0.00    +0.314 C 
ATOM     20  O   UNL     1      -1.689   0.077   0.576  0.00  0.00    -0.252 OA
ATOM     21  N   UNL     1      -0.650   0.761   2.447  0.00  0.00    -0.278 N 
ATOM     22  I   UNL     1      -3.474   2.743   0.018  0.00  0.00    +0.049 I 
ATOM     23  C   UNL     1      -1.126   1.646   4.699  0.00  0.00    +0.033 C 
ENDBRANCH  14  21
ENDBRANCH   1  14
TORSDOF 3
