REMARK  Name = ZINC45189801
REMARK  8 active torsions:
REMARK  status: ('A' for Active; 'I' for Inactive)
REMARK    1  A    between atoms: C_1  and  O_2
REMARK    2  A    between atoms: O_2  and  C_3
REMARK    3  A    between atoms: C_9  and  N_13
REMARK    4  A    between atoms: C_16  and  C_19
REMARK    5  A    between atoms: C_19  and  C_20
REMARK    6  A    between atoms: C_20  and  N_21
REMARK    7  A    between atoms: N_21  and  C_22
REMARK    8  A    between atoms: C_22  and  C_23
REMARK                            x       y       z     vdW  Elec       q    Type
REMARK                         _______ _______ _______ _____ _____    ______ ____
ROOT
ATOM      1  N   UNL     1       0.792  -4.819  -1.340  0.00  0.00    -0.329 N 
ATOM      2  C   UNL     1      -0.603  -5.272  -1.438  0.00  0.00    +0.105 C 
ATOM      3  C   UNL     1      -1.331  -4.912  -0.139  0.00  0.00    +0.022 C 
ATOM      4  C   UNL     1      -0.564  -5.497   1.049  0.00  0.00    -0.010 C 
ATOM      5  C   UNL     1       0.841  -4.891   1.099  0.00  0.00    +0.022 C 
ATOM      6  C   UNL     1       1.595  -5.254  -0.189  0.00  0.00    +0.105 C 
ENDROOT
BRANCH   1  13
ATOM      7  C   UNL     1       0.606  -0.607  -1.056  0.00  0.00    +0.121 A 
ATOM      8  C   UNL     1       1.174   0.174  -2.065  0.00  0.00    +0.047 A 
ATOM      9  C   UNL     1       1.785  -0.401  -3.136  0.00  0.00    +0.030 A 
ATOM     10  C   UNL     1       1.849  -1.802  -3.236  0.00  0.00    +0.048 A 
ATOM     11  C   UNL     1       1.274  -2.592  -2.212  0.00  0.00    +0.023 A 
ATOM     12  C   UNL     1       0.655  -1.972  -1.119  0.00  0.00    +0.057 A 
ATOM     13  C   UNL     1       1.341  -4.002  -2.317  0.00  0.00    +0.040 A 
ATOM     14  C   UNL     1       1.973  -4.541  -3.426  0.00  0.00    +0.041 A 
ATOM     15  C   UNL     1       2.513  -3.697  -4.387  0.00  0.00    +0.085 A 
ATOM     16  N   UNL     1       2.445  -2.391  -4.279  0.00  0.00    -0.361 N 
ATOM     17  H   UNL     1       2.836  -1.838  -4.974  0.00  0.00    +0.165 HD
BRANCH   7  19
ATOM     18  C   UNL     1      -0.017   1.425   0.010  0.00  0.00    +0.277 C 
ATOM     19  O   UNL     1       0.002  -0.004   0.002  0.00  0.00    -0.495 OA
ENDBRANCH   7  19
ENDBRANCH   1  13
BRANCH   4  20
ATOM     20  C   UNL     1      -1.306  -5.169   2.346  0.00  0.00    -0.016 C 
BRANCH  20  21
ATOM     21  C   UNL     1      -0.609  -5.857   3.521  0.00  0.00    -0.082 C 
BRANCH  21  22
ATOM     22  N   UNL     1      -1.322  -5.543   4.766  0.00  0.00    +0.383 N 
ATOM     23  H   UNL     1      -1.320  -4.545   4.912  0.00  0.00    -0.085 HD
ATOM     24  H   UNL     1      -2.274  -5.872   4.701  0.00  0.00    -0.085 HD
BRANCH  22  25
ATOM     25  C   UNL     1      -0.652  -6.204   5.894  0.00  0.00    -0.026 C 
BRANCH  25  26
ATOM     26  C   UNL     1      -1.384  -5.881   7.171  0.00  0.00    +0.028 A 
ATOM     27  C   UNL     1      -2.335  -6.761   7.652  0.00  0.00    +0.070 A 
ATOM     28  C   UNL     1      -3.001  -6.452   8.832  0.00  0.00    +0.165 A 
ATOM     29  C   UNL     1      -2.682  -5.263   9.485  0.00  0.00    +0.180 A 
ATOM     30  C   UNL     1      -1.718  -4.434   8.938  0.00  0.00    +0.160 A 
ATOM     31  N   UNL     1      -1.104  -4.766   7.818  0.00  0.00    -0.258 NA
ATOM     32  O   UNL     1      -3.301  -4.920  10.646  0.00  0.00    -0.483 OA
ATOM     33  C   UNL     1      -4.520  -5.609  10.949  0.00  0.00    +0.270 C 
ATOM     34  C   UNL     1      -4.303  -7.108  10.704  0.00  0.00    +0.270 C 
ATOM     35  O   UNL     1      -3.942  -7.292   9.330  0.00  0.00    -0.485 OA
ENDBRANCH  25  26
ENDBRANCH  22  25
ENDBRANCH  21  22
ENDBRANCH  20  21
ENDBRANCH   4  20
TORSDOF 7
