REMARK  Name = ZINC39995185
REMARK  7 active torsions:
REMARK  status: ('A' for Active; 'I' for Inactive)
REMARK    1  A    between atoms: C_1  and  C_2
REMARK    2  A    between atoms: C_2  and  C_4
REMARK    3  A    between atoms: C_2  and  S_15
REMARK    4  A    between atoms: N_6  and  C_7
REMARK    5  A    between atoms: S_15  and  C_16
REMARK    6  A    between atoms: C_20  and  C_25
REMARK    7  A    between atoms: N_21  and  C_22
REMARK                            x       y       z     vdW  Elec       q    Type
REMARK                         _______ _______ _______ _____ _____    ______ ____
ROOT
ATOM      1  C   UNL     1       1.813   0.826  -1.675  0.00  0.00    +0.238 C 
ATOM      2  N   UNL     1       2.670  -0.191  -1.045  0.00  0.00    -0.237 N 
ATOM      3  N   UNL     1       3.501   0.490  -0.148  0.00  0.00    -0.169 NA
ATOM      4  C   UNL     1       3.258   1.773  -0.156  0.00  0.00    +0.147 C 
ATOM      5  N   UNL     1       2.238   2.094  -1.060  0.00  0.00    -0.282 N 
ATOM      6  H   UNL     1       2.661  -1.146  -1.218  0.00  0.00    +0.171 HD
ENDROOT
BRANCH   4   7
ATOM      7  C   UNL     1       3.933   2.712   0.640  0.00  0.00    +0.022 C 
ATOM      8  C   UNL     1       5.021   2.477   1.481  0.00  0.00    +0.006 A 
ATOM      9  C   UNL     1       5.753   1.311   1.790  0.00  0.00    +0.010 A 
ATOM     10  C   UNL     1       6.790   1.378   2.664  0.00  0.00    +0.001 A 
ATOM     11  C   UNL     1       7.157   2.581   3.272  0.00  0.00    +0.002 A 
ATOM     12  C   UNL     1       6.498   3.739   3.022  0.00  0.00    +0.026 A 
ATOM     13  C   UNL     1       5.404   3.747   2.119  0.00  0.00    +0.043 A 
ATOM     14  N   UNL     1       4.614   4.723   1.714  0.00  0.00    -0.380 N 
ATOM     15  C   UNL     1       3.636   4.190   0.761  0.00  0.00    +0.152 C 
ATOM     16  H   UNL     1       4.675   5.649   1.998  0.00  0.00    +0.160 HD
ENDBRANCH   4   7
BRANCH   5  17
ATOM     17  C   UNL     1       1.699   3.427  -1.340  0.00  0.00    +0.078 C 
ATOM     18  C   UNL     1       0.537   3.526  -2.331  0.00  0.00    +0.024 C 
ATOM     19  C   UNL     1       1.933   4.005  -2.737  0.00  0.00    +0.024 C 
ENDBRANCH   5  17
BRANCH   1  20
ATOM     20  S   UNL     1       0.066   0.498  -1.310  0.00  0.00    -0.106 S 
BRANCH  20  22
ATOM     21  C   UNL     1       0.155   1.577   1.202  0.00  0.00    +0.029 C 
ATOM     22  C   UNL     1       0.035   0.231   0.483  0.00  0.00    +0.133 C 
BRANCH  22  23
ATOM     23  C   UNL     1      -1.262  -0.431   0.870  0.00  0.00    +0.230 C 
ATOM     24  O   UNL     1      -2.218  -0.374   0.126  0.00  0.00    -0.274 OA
ATOM     25  N   UNL     1      -1.360  -1.087   2.044  0.00  0.00    -0.280 N 
ATOM     26  H   UNL     1      -0.612  -1.090   2.662  0.00  0.00    +0.155 HD
BRANCH  25  27
ATOM     27  C   UNL     1      -2.542  -1.765   2.371  0.00  0.00    +0.105 A 
ATOM     28  C   UNL     1      -2.967  -1.827   3.693  0.00  0.00    +0.147 A 
ATOM     29  C   UNL     1      -4.135  -2.497   4.012  0.00  0.00    +0.040 A 
ATOM     30  C   UNL     1      -4.879  -3.104   3.018  0.00  0.00    +0.006 A 
ATOM     31  C   UNL     1      -4.460  -3.045   1.702  0.00  0.00    +0.040 A 
ATOM     32  C   UNL     1      -3.297  -2.372   1.374  0.00  0.00    +0.147 A 
ATOM     33  F   UNL     1      -2.891  -2.309   0.087  0.00  0.00    -0.203 F 
ATOM     34  F   UNL     1      -2.240  -1.234   4.665  0.00  0.00    -0.203 F 
ENDBRANCH  25  27
ENDBRANCH  22  23
ENDBRANCH  20  22
ENDBRANCH   1  20
TORSDOF 6
