REMARK  Name = ZINC50441534
REMARK  9 active torsions:
REMARK  status: ('A' for Active; 'I' for Inactive)
REMARK    1  A    between atoms: C_1  and  C_2
REMARK    2  A    between atoms: C_2  and  C_3
REMARK    3  A    between atoms: C_2  and  C_18
REMARK    4  A    between atoms: C_2  and  N_21
REMARK    5  A    between atoms: C_3  and  C_4
REMARK    6  A    between atoms: C_4  and  C_5
REMARK    7  A    between atoms: C_5  and  O_6
REMARK    8  A    between atoms: O_6  and  C_7
REMARK    9  A    between atoms: C_10  and  N_14
REMARK                            x       y       z     vdW  Elec       q    Type
REMARK                         _______ _______ _______ _____ _____    ______ ____
ROOT
ATOM      1  C   UNL     1      -0.042  -0.124   2.497  0.00  0.00    +0.040 C 
ENDROOT
BRANCH   1   2
ATOM      2  C   UNL     1       0.742  -0.511   1.242  0.00  0.00    -0.001 C 
BRANCH   2   4
ATOM      3  C   UNL     1      -0.019   1.526   0.010  0.00  0.00    -0.001 C 
ATOM      4  C   UNL     1       0.002  -0.004   0.002  0.00  0.00    +0.004 C 
BRANCH   4   5
ATOM      5  C   UNL     1       0.707  -0.490  -1.238  0.00  0.00    +0.199 C 
ATOM      6  O   UNL     1       1.889  -0.763  -1.196  0.00  0.00    -0.278 OA
ATOM      7  N   UNL     1       0.026  -0.622  -2.393  0.00  0.00    -0.330 N 
ATOM      8  H   UNL     1      -0.919  -0.404  -2.426  0.00  0.00    +0.145 HD
ATOM      9  H   UNL     1       0.480  -0.934  -3.191  0.00  0.00    +0.145 HD
ENDBRANCH   4   5
BRANCH   4  10
ATOM     10  N   UNL     1      -1.376  -0.512   0.012  0.00  0.00    +0.387 N 
ATOM     11  H   UNL     1      -1.864  -0.178  -0.805  0.00  0.00    -0.089 HD
ATOM     12  H   UNL     1      -1.362  -1.521   0.007  0.00  0.00    -0.089 HD
ATOM     13  H   UNL     1      -1.848  -0.187   0.843  0.00  0.00    -0.089 HD
ENDBRANCH   4  10
ENDBRANCH   2   4
ENDBRANCH   1   2
BRANCH   1  14
ATOM     14  C   UNL     1       0.698  -0.630   3.737  0.00  0.00    +0.229 C 
BRANCH  14  15
ATOM     15  O   UNL     1      -0.034  -0.269   4.910  0.00  0.00    -0.490 OA
BRANCH  15  16
ATOM     16  C   UNL     1       0.491  -0.646   6.105  0.00  0.00    +0.148 A 
ATOM     17  C   UNL     1       0.156  -1.877   6.654  0.00  0.00    +0.063 A 
ATOM     18  C   UNL     1       0.692  -2.258   7.870  0.00  0.00    +0.051 A 
ATOM     19  C   UNL     1       1.559  -1.416   8.540  0.00  0.00    +0.129 A 
ATOM     20  C   UNL     1       1.895  -0.190   7.996  0.00  0.00    +0.051 A 
ATOM     21  C   UNL     1       1.367   0.195   6.777  0.00  0.00    +0.063 A 
ATOM     22 BR   UNL     1       1.832   1.868   6.030  0.00  0.00    -0.046 Br
ATOM     23 BR   UNL     1      -1.032  -3.029   5.739  0.00  0.00    -0.046 Br
BRANCH  19  24
ATOM     24  N   UNL     1       2.130  -1.827   9.842  0.00  0.00    +0.056 N 
ATOM     25  O   UNL     1       1.837  -2.898  10.319  0.00  0.00    -0.126 OA
ATOM     26  O   UNL     1       2.889  -1.091  10.429  0.00  0.00    -0.126 OA
ENDBRANCH  19  24
ENDBRANCH  15  16
ENDBRANCH  14  15
ENDBRANCH   1  14
TORSDOF 8
