REMARK  Name = ZINC32843843
REMARK  8 active torsions:
REMARK  status: ('A' for Active; 'I' for Inactive)
REMARK    1  A    between atoms: C_1  and  C_2
REMARK    2  A    between atoms: C_5  and  C_8
REMARK    3  A    between atoms: N_14  and  C_15
REMARK    4  A    between atoms: C_15  and  C_16
REMARK    5  A    between atoms: C_16  and  C_17
REMARK    6  A    between atoms: N_19  and  C_20
REMARK    7  A    between atoms: C_22  and  C_27
REMARK    8  A    between atoms: C_24  and  C_26
REMARK                            x       y       z     vdW  Elec       q    Type
REMARK                         _______ _______ _______ _____ _____    ______ ____
ROOT
ATOM      1  C   UNL     1      -2.528   0.996   0.004  0.00  0.00    +0.163 A 
ATOM      2  N   UNL     1      -2.690  -0.245  -0.362  0.00  0.00    -0.153 NA
ATOM      3  N   UNL     1      -4.040  -0.577  -0.182  0.00  0.00    -0.254 N 
ATOM      4  H   UNL     1      -4.394  -1.590  -0.426  0.00  0.00    +0.191 HD
ATOM      5  C   UNL     1      -4.668   0.518   0.293  0.00  0.00    +0.176 A 
ATOM      6  S   UNL     1      -6.332   0.642   0.676  0.00  0.00    -0.011 S 
ATOM      7  N   UNL     1      -3.748   1.496   0.413  0.00  0.00    -0.303 N 
ENDROOT
BRANCH   1  12
ATOM      8  C   UNL     1       2.436   3.908  -0.113  0.00  0.00    +0.044 C 
ATOM      9  C   UNL     1       1.136   3.146  -0.079  0.00  0.00    -0.050 A 
ATOM     10  C   UNL     1       1.149   1.762  -0.063  0.00  0.00    +0.004 A 
ATOM     11  C   UNL     1      -0.037   1.058  -0.032  0.00  0.00    +0.012 A 
ATOM     12  C   UNL     1      -1.252   1.744  -0.023  0.00  0.00    +0.019 A 
ATOM     13  C   UNL     1      -1.258   3.139  -0.034  0.00  0.00    +0.012 A 
ATOM     14  C   UNL     1      -0.065   3.832  -0.064  0.00  0.00    +0.004 A 
ENDBRANCH   1  12
BRANCH   7  15
ATOM     15  C   UNL     1      -4.000   2.856   0.895  0.00  0.00    +0.135 C 
BRANCH  15  16
ATOM     16  C   UNL     1      -4.475   3.729  -0.268  0.00  0.00    +0.118 C 
BRANCH  16  17
ATOM     17  C   UNL     1      -4.735   5.129   0.228  0.00  0.00    +0.219 C 
ATOM     18  O   UNL     1      -4.556   5.401   1.396  0.00  0.00    -0.275 OA
ATOM     19  N   UNL     1      -5.164   6.078  -0.627  0.00  0.00    -0.285 N 
ATOM     20  H   UNL     1      -5.396   5.814  -1.670  0.00  0.00    +0.155 HD
BRANCH  19  21
ATOM     21  C   UNL     1      -5.316   7.398  -0.189  0.00  0.00    +0.034 A 
ATOM     22  C   UNL     1      -5.032   8.453  -1.046  0.00  0.00    +0.026 A 
ATOM     23  C   UNL     1      -5.190   9.755  -0.612  0.00  0.00    -0.048 A 
ATOM     24  C   UNL     1      -5.617  10.008   0.678  0.00  0.00    +0.006 A 
ATOM     25  C   UNL     1      -5.895   8.960   1.536  0.00  0.00    -0.048 A 
ATOM     26  C   UNL     1      -5.746   7.655   1.106  0.00  0.00    +0.026 A 
ATOM     27  C   UNL     1      -6.361   9.240   2.942  0.00  0.00    +0.044 C 
ATOM     28  C   UNL     1      -4.888  10.900  -1.544  0.00  0.00    +0.044 C 
ENDBRANCH  19  21
ENDBRANCH  16  17
ENDBRANCH  15  16
ENDBRANCH   7  15
TORSDOF 5
