REMARK  Name = ZINC06974803
REMARK  5 active torsions:
REMARK  status: ('A' for Active; 'I' for Inactive)
REMARK    1  A    between atoms: C_1  and  C_2
REMARK    2  A    between atoms: C_5  and  S_8
REMARK    3  A    between atoms: S_8  and  C_9
REMARK    4  A    between atoms: C_9  and  C_10
REMARK    5  A    between atoms: C_10  and  N_11
REMARK                            x       y       z     vdW  Elec       q    Type
REMARK                         _______ _______ _______ _____ _____    ______ ____
ROOT
ATOM      1  N   UNL     1       4.609  -4.704  -0.066  0.00  0.00    -0.223 N 
ATOM      2  C   UNL     1       5.336  -4.874  -1.192  0.00  0.00    +0.247 C 
ATOM      3  O   UNL     1       4.937  -4.813  -2.336  0.00  0.00    -0.273 OA
ATOM      4  C   UNL     1       6.737  -5.156  -0.720  0.00  0.00    +0.113 C 
ATOM      5  C   UNL     1       7.210  -6.537  -1.194  0.00  0.00    +0.035 C 
ATOM      6  C   UNL     1       8.720  -6.659  -0.954  0.00  0.00    +0.003 C 
ATOM      7  C   UNL     1       9.030  -6.709   0.532  0.00  0.00    +0.000 C 
ATOM      8  C   UNL     1       9.620  -5.439   1.115  0.00  0.00    +0.000 C 
ATOM      9  C   UNL     1       9.806  -4.297   0.132  0.00  0.00    +0.000 C 
ATOM     10  C   UNL     1       8.510  -3.510  -0.064  0.00  0.00    +0.003 C 
ATOM     11  C   UNL     1       7.722  -4.114  -1.218  0.00  0.00    +0.035 C 
ATOM     12  N   UNL     1       6.640  -5.178   0.743  0.00  0.00    -0.285 N 
ATOM     13  C   UNL     1       5.354  -4.880   1.031  0.00  0.00    +0.309 C 
ATOM     14  O   UNL     1       4.926  -4.782   2.164  0.00  0.00    -0.252 OA
ATOM     15  H   UNL     1       7.332  -5.366   1.389  0.00  0.00    +0.151 HD
ENDROOT
BRANCH   1  16
ATOM     16  C   UNL     1       3.182  -4.373  -0.051  0.00  0.00    +0.129 C 
BRANCH  16  17
ATOM     17  C   UNL     1       3.012  -2.852  -0.042  0.00  0.00    +0.094 C 
BRANCH  17  18
ATOM     18  S   UNL     1       1.245  -2.442  -0.022  0.00  0.00    -0.124 S 
BRANCH  18  23
ATOM     19  C   UNL     1       1.146   3.593   0.010  0.00  0.00    +0.044 C 
ATOM     20  C   UNL     1       1.171   2.086   0.002  0.00  0.00    -0.050 A 
ATOM     21  C   UNL     1      -0.017   1.377   0.010  0.00  0.00    +0.004 A 
ATOM     22  C   UNL     1       0.002  -0.004   0.002  0.00  0.00    +0.015 A 
ATOM     23  C   UNL     1       1.216  -0.681  -0.013  0.00  0.00    +0.008 A 
ATOM     24  C   UNL     1       2.407   0.035  -0.021  0.00  0.00    +0.015 A 
ATOM     25  C   UNL     1       2.380   1.416  -0.013  0.00  0.00    +0.004 A 
ENDBRANCH  18  23
ENDBRANCH  17  18
ENDBRANCH  16  17
ENDBRANCH   1  16
TORSDOF 4
