REMARK  Name = ZINC08448798
REMARK  4 active torsions:
REMARK  status: ('A' for Active; 'I' for Inactive)
REMARK    1  A    between atoms: C_8  and  C_12
REMARK    2  A    between atoms: C_12  and  O_13
REMARK    3  A    between atoms: O_13  and  C_14
REMARK    4  A    between atoms: C_19  and  N_20
REMARK                            x       y       z     vdW  Elec       q    Type
REMARK                         _______ _______ _______ _____ _____    ______ ____
ROOT
ATOM      1  C   UNL     1      -0.016   1.357   0.009  0.00  0.00    +0.001 A 
ATOM      2  C   UNL     1       1.170   2.088   0.002  0.00  0.00    +0.002 A 
ATOM      3  C   UNL     1       2.379   1.465  -0.013  0.00  0.00    +0.028 A 
ATOM      4  C   UNL     1       2.439   0.060  -0.021  0.00  0.00    +0.073 A 
ATOM      5  C   UNL     1       1.232  -0.681  -0.013  0.00  0.00    +0.001 A 
ATOM      6  C   UNL     1       0.002  -0.004   0.002  0.00  0.00    +0.010 A 
ATOM      7  C   UNL     1       1.294  -2.088  -0.021  0.00  0.00    +0.020 A 
ATOM      8  C   UNL     1       2.525  -2.679  -0.036  0.00  0.00    +0.027 A 
ATOM      9  C   UNL     1       3.675  -1.890  -0.043  0.00  0.00    +0.136 A 
ATOM     10  N   UNL     1       3.613  -0.580  -0.035  0.00  0.00    -0.235 NA
ATOM     11 CL   UNL     1       5.230  -2.663  -0.062  0.00  0.00    -0.062 Cl
ENDROOT
BRANCH   8  12
ATOM     12  C   UNL     1       2.640  -4.181  -0.045  0.00  0.00    +0.267 C 
BRANCH  12  13
ATOM     13  O   UNL     1       1.333  -4.759  -0.035  0.00  0.00    -0.485 OA
BRANCH  13  14
ATOM     14  C   UNL     1       1.258  -6.116  -0.041  0.00  0.00    +0.151 A 
ATOM     15  C   UNL     1       2.420  -6.876  -0.050  0.00  0.00    +0.048 A 
ATOM     16  C   UNL     1       2.341  -8.255  -0.056  0.00  0.00    +0.004 A 
ATOM     17  C   UNL     1       1.107  -8.879  -0.052  0.00  0.00    +0.002 A 
ATOM     18  C   UNL     1      -0.051  -8.124  -0.043  0.00  0.00    +0.036 A 
ATOM     19  C   UNL     1       0.022  -6.744  -0.032  0.00  0.00    +0.168 A 
BRANCH  19  20
ATOM     20  N   UNL     1      -1.219  -5.937  -0.016  0.00  0.00    +0.060 N 
ATOM     21  O   UNL     1      -2.296  -6.484  -0.009  0.00  0.00    -0.126 OA
ATOM     22  O   UNL     1      -1.154  -4.729  -0.011  0.00  0.00    -0.126 OA
ENDBRANCH  19  20
ENDBRANCH  13  14
ENDBRANCH  12  13
ENDBRANCH   8  12
TORSDOF 4
