REMARK  Name = ZINC16604758
REMARK  11 active torsions:
REMARK  status: ('A' for Active; 'I' for Inactive)
REMARK    1  A    between atoms: C_1  and  C_2
REMARK    2  A    between atoms: C_2  and  C_3
REMARK    3  A    between atoms: C_3  and  C_4
REMARK    4  A    between atoms: C_4  and  N_5
REMARK    5  A    between atoms: C_6  and  C_8
REMARK    6  A    between atoms: C_8  and  S_9
REMARK    7  A    between atoms: S_9  and  C_10
REMARK    8  A    between atoms: C_21  and  C_24
REMARK    9  A    between atoms: N_27  and  C_28
REMARK   10  A    between atoms: C_28  and  C_29
REMARK   11  A    between atoms: C_28  and  C_30
REMARK                            x       y       z     vdW  Elec       q    Type
REMARK                         _______ _______ _______ _____ _____    ______ ____
ROOT
ATOM      1  C   UNL     1       0.053   0.126  -0.907  0.00  0.00    +0.192 A 
ATOM      2  N   UNL     1       1.154  -0.584  -0.705  0.00  0.00    -0.207 NA
ATOM      3  C   UNL     1       2.322   0.019  -0.510  0.00  0.00    +0.127 A 
ATOM      4  C   UNL     1       2.375   1.414  -0.522  0.00  0.00    +0.083 A 
ATOM      5  C   UNL     1       1.204   2.117  -0.736  0.00  0.00    +0.135 A 
ATOM      6  N   UNL     1       0.073   1.451  -0.923  0.00  0.00    -0.210 NA
ATOM      7 CL   UNL     1       1.213   3.853  -0.761  0.00  0.00    -0.062 Cl
ATOM      8  N   UNL     1       3.471  -0.726  -0.299  0.00  0.00    -0.312 N 
ATOM      9  C   UNL     1       4.120  -0.347   0.963  0.00  0.00    +0.125 C 
ATOM     10  C   UNL     1       5.473  -1.058   1.071  0.00  0.00    +0.128 C 
ATOM     11  N   UNL     1       5.258  -2.502   0.892  0.00  0.00    -0.280 N 
ATOM     12  C   UNL     1       4.494  -2.950  -0.282  0.00  0.00    +0.092 C 
ATOM     13  C   UNL     1       3.180  -2.165  -0.338  0.00  0.00    +0.128 C 
ATOM     14  C   UNL     1       4.194  -4.446  -0.160  0.00  0.00    +0.030 C 
ATOM     15  C   UNL     1       5.747  -3.390   1.780  0.00  0.00    +0.303 C 
ATOM     16  O   UNL     1       5.489  -4.572   1.662  0.00  0.00    -0.253 OA
ATOM     17  N   UNL     1       6.523  -2.967   2.798  0.00  0.00    -0.297 N 
ATOM     18  H   UNL     1       6.670  -2.018   2.934  0.00  0.00    +0.150 HD
ENDROOT
BRANCH  17  19
ATOM     19  C   UNL     1       7.144  -3.942   3.698  0.00  0.00    +0.068 C 
ATOM     20  C   UNL     1       8.461  -4.430   3.091  0.00  0.00    +0.027 C 
ATOM     21  C   UNL     1       7.420  -3.282   5.051  0.00  0.00    +0.027 C 
ENDBRANCH  17  19
BRANCH   1  22
ATOM     22  S   UNL     1      -1.476  -0.714  -1.160  0.00  0.00    -0.077 S 
BRANCH  22  23
ATOM     23  C   UNL     1      -2.581   0.703  -1.373  0.00  0.00    +0.173 C 
BRANCH  23  25
ATOM     24  N   UNL     1      -4.986   1.097  -1.797  0.00  0.00    -0.315 N 
ATOM     25  C   UNL     1      -3.986   0.213  -1.610  0.00  0.00    +0.223 C 
ATOM     26  O   UNL     1      -4.218  -0.977  -1.633  0.00  0.00    -0.275 OA
ATOM     27  H   UNL     1      -4.801   2.050  -1.779  0.00  0.00    +0.149 HD
BRANCH  24  28
ATOM     28  C   UNL     1      -6.352   0.621  -2.028  0.00  0.00    +0.104 C 
BRANCH  28  29
ATOM     29  C   UNL     1      -7.286   1.819  -2.208  0.00  0.00    +0.018 C 
BRANCH  29  31
ATOM     30  C   UNL     1      -9.648   2.519  -2.629  0.00  0.00    +0.004 C 
ATOM     31  C   UNL     1      -8.713   1.321  -2.448  0.00  0.00    -0.002 C 
ENDBRANCH  29  31
ENDBRANCH  28  29
ENDBRANCH  24  28
ENDBRANCH  23  25
ENDBRANCH  22  23
ENDBRANCH   1  22
TORSDOF 7
