REMARK  Name = ZINC06405785
REMARK  10 active torsions:
REMARK  status: ('A' for Active; 'I' for Inactive)
REMARK    1  A    between atoms: C_1  and  C_2
REMARK    2  A    between atoms: C_5  and  C_37
REMARK    3  A    between atoms: C_9  and  C_14
REMARK    4  A    between atoms: C_14  and  C_16
REMARK    5  A    between atoms: C_14  and  N_67
REMARK    6  A    between atoms: N_20  and  C_21
REMARK    7  A    between atoms: C_21  and  C_22
REMARK    8  A    between atoms: C_25  and  O_28
REMARK    9  A    between atoms: O_28  and  C_29
REMARK   10  A    between atoms: C_33  and  C_36
REMARK                            x       y       z     vdW  Elec       q    Type
REMARK                         _______ _______ _______ _____ _____    ______ ____
ROOT
ATOM      1  C   UNL     1       0.054  -0.071   4.974  0.00  0.00    +0.039 C 
ENDROOT
BRANCH   1  10
ATOM      2  C   UNL     1      -0.185   1.676   0.074  0.00  0.00    +0.044 C 
ATOM      3  C   UNL     1      -0.112   0.172   0.010  0.00  0.00    -0.041 A 
ATOM      4  C   UNL     1      -0.122  -0.465  -1.199  0.00  0.00    +0.004 A 
ATOM      5  C   UNL     1      -0.051  -1.849  -1.269  0.00  0.00    +0.005 A 
ATOM      6  C   UNL     1       0.023  -2.608  -0.121  0.00  0.00    -0.026 A 
ATOM      7  C   UNL     1       0.030  -1.983   1.121  0.00  0.00    +0.052 A 
ATOM      8  C   UNL     1      -0.039  -0.578   1.188  0.00  0.00    +0.002 A 
ATOM      9  C   UNL     1      -0.031   0.071   2.500  0.00  0.00    +0.018 A 
ATOM     10  C   UNL     1       0.043  -0.708   3.608  0.00  0.00    +0.011 A 
ATOM     11  C   UNL     1       0.109  -2.112   3.486  0.00  0.00    +0.251 A 
ATOM     12  O   UNL     1       0.175  -2.793   4.495  0.00  0.00    -0.268 OA
ATOM     13  N   UNL     1       0.103  -2.717   2.286  0.00  0.00    -0.322 N 
ATOM     14  H   UNL     1       0.150  -3.685   2.238  0.00  0.00    +0.169 HD
ATOM     15  C   UNL     1       0.095  -4.111  -0.211  0.00  0.00    +0.046 C 
ENDBRANCH   1  10
BRANCH   1  22
ATOM     16  C   UNL     1      -2.337  -0.367   5.213  0.00  0.00    -0.077 C 
ATOM     17  C   UNL     1      -3.416  -1.107   6.008  0.00  0.00    -0.018 C 
ATOM     18  C   UNL     1      -3.371  -0.649   7.468  0.00  0.00    -0.001 C 
ATOM     19  C   UNL     1      -1.972  -0.911   8.034  0.00  0.00    -0.031 C 
ATOM     20  C   UNL     1      -0.936  -0.178   7.181  0.00  0.00    -0.074 C 
ATOM     21  C   UNL     1      -1.901  -0.403   9.475  0.00  0.00    +0.005 C 
ATOM     22  N   UNL     1      -1.014  -0.681   5.793  0.00  0.00    +0.389 N 
ATOM     23  H   UNL     1      -0.887  -1.700   5.800  0.00  0.00    -0.080 HD
ENDBRANCH   1  22
BRANCH   1  24
ATOM     24  C   UNL     1       1.384  -0.323   5.635  0.00  0.00    +0.143 A 
ATOM     25  N   UNL     1       1.792  -1.450   6.167  0.00  0.00    -0.115 NA
ATOM     26  N   UNL     1       2.982  -1.264   6.627  0.00  0.00    -0.023 NA
ATOM     27  N   UNL     1       3.340  -0.047   6.409  0.00  0.00    -0.044 NA
ATOM     28  N   UNL     1       2.381   0.566   5.799  0.00  0.00    -0.226 N 
BRANCH  28  29
ATOM     29  C   UNL     1       2.379   1.966   5.368  0.00  0.00    +0.182 C 
BRANCH  29  30
ATOM     30  C   UNL     1       1.829   2.831   6.472  0.00  0.00    -0.026 A 
ATOM     31  C   UNL     1       0.472   3.093   6.532  0.00  0.00    +0.009 A 
ATOM     32  C   UNL     1      -0.035   3.882   7.546  0.00  0.00    +0.046 A 
ATOM     33  C   UNL     1       0.818   4.419   8.499  0.00  0.00    +0.120 A 
ATOM     34  C   UNL     1       2.179   4.159   8.433  0.00  0.00    +0.046 A 
ATOM     35  C   UNL     1       2.681   3.365   7.420  0.00  0.00    +0.009 A 
BRANCH  33  36
ATOM     36  O   UNL     1       0.322   5.199   9.495  0.00  0.00    -0.495 OA
ATOM     37  C   UNL     1      -1.089   5.425   9.500  0.00  0.00    +0.277 C 
ENDBRANCH  33  36
ENDBRANCH  29  30
ENDBRANCH  28  29
ENDBRANCH   1  24
TORSDOF 6
