REMARK  Name = ZINC42624530
REMARK  5 active torsions:
REMARK  status: ('A' for Active; 'I' for Inactive)
REMARK    1  A    between atoms: C_1  and  C_2
REMARK    2  A    between atoms: C_5  and  N_8
REMARK    3  A    between atoms: N_8  and  S_9
REMARK    4  A    between atoms: S_9  and  C_12
REMARK    5  A    between atoms: N_20  and  C_23
REMARK                            x       y       z     vdW  Elec       q    Type
REMARK                         _______ _______ _______ _____ _____    ______ ____
ROOT
ATOM      1  S   UNL     1      -0.753  -4.872   2.661  0.00  0.00    +0.059 S 
ATOM      2  O   UNL     1      -0.736  -6.253   2.323  0.00  0.00    -0.153 OA
ATOM      3  O   UNL     1       0.200  -4.292   3.541  0.00  0.00    -0.153 OA
ENDROOT
BRANCH   1   4
ATOM      4  C   UNL     1      -2.341  -4.542   3.349  0.00  0.00    +0.106 A 
ATOM      5  C   UNL     1      -2.510  -3.465   4.199  0.00  0.00    +0.029 A 
ATOM      6  C   UNL     1      -3.753  -3.193   4.749  0.00  0.00    +0.016 A 
ATOM      7  C   UNL     1      -4.833  -4.005   4.442  0.00  0.00    +0.050 A 
ATOM      8  C   UNL     1      -4.660  -5.103   3.575  0.00  0.00    +0.051 A 
ATOM      9  C   UNL     1      -3.413  -5.361   3.029  0.00  0.00    +0.042 A 
ATOM     10  C   UNL     1      -5.987  -5.745   3.466  0.00  0.00    +0.254 C 
ATOM     11  O   UNL     1      -6.246  -6.730   2.805  0.00  0.00    -0.270 OA
ATOM     12  N   UNL     1      -6.860  -5.056   4.224  0.00  0.00    -0.237 N 
ATOM     13  C   UNL     1      -6.259  -4.018   4.831  0.00  0.00    +0.254 C 
ATOM     14  O   UNL     1      -6.798  -3.223   5.575  0.00  0.00    -0.270 OA
ATOM     15  C   UNL     1      -8.279  -5.393   4.368  0.00  0.00    +0.142 C 
ENDBRANCH   1   4
BRANCH   1  16
ATOM     16  N   UNL     1      -0.653  -4.035   1.236  0.00  0.00    -0.187 NA
ATOM     17  H   UNL     1      -0.581  -4.515   0.396  0.00  0.00    +0.148 HD
BRANCH  16  22
ATOM     18  C   UNL     1      -0.019   1.526   0.010  0.00  0.00    +0.007 C 
ATOM     19  C   UNL     1       0.002  -0.004   0.002  0.00  0.00    -0.014 C 
ATOM     20  C   UNL     1      -1.433  -0.534   0.013  0.00  0.00    +0.005 C 
ATOM     21  C   UNL     1      -1.413  -2.063   0.004  0.00  0.00    +0.020 C 
ATOM     22  C   UNL     1      -0.673  -2.570   1.244  0.00  0.00    +0.077 C 
ATOM     23  C   UNL     1       0.763  -2.041   1.233  0.00  0.00    +0.020 C 
ATOM     24  C   UNL     1       0.742  -0.511   1.242  0.00  0.00    +0.005 C 
ENDBRANCH  16  22
ENDBRANCH   1  16
TORSDOF 3
