REMARK  Name = ZINC44379101
REMARK  5 active torsions:
REMARK  status: ('A' for Active; 'I' for Inactive)
REMARK    1  A    between atoms: C_1  and  N_2
REMARK    2  A    between atoms: C_6  and  C_7
REMARK    3  A    between atoms: N_9  and  N_10
REMARK    4  A    between atoms: C_11  and  C_13
REMARK    5  A    between atoms: N_16  and  C_18
REMARK                            x       y       z     vdW  Elec       q    Type
REMARK                         _______ _______ _______ _____ _____    ______ ____
ROOT
ATOM      1  C   UNL     1      -0.606   3.135   5.796  0.00  0.00    +0.152 A 
ATOM      2  C   UNL     1      -0.810   4.461   6.242  0.00  0.00    +0.006 A 
ATOM      3  C   UNL     1      -0.730   4.412   7.590  0.00  0.00    +0.049 A 
ATOM      4  N   UNL     1      -0.488   3.116   7.927  0.00  0.00    -0.236 N 
ATOM      5  N   UNL     1      -0.425   2.390   6.869  0.00  0.00    -0.161 NA
ATOM      6  C   UNL     1      -0.937   5.791   8.175  0.00  0.00    +0.056 C 
ATOM      7  C   UNL     1      -0.729   6.763   6.993  0.00  0.00    +0.011 C 
ATOM      8  C   UNL     1      -1.078   5.873   5.779  0.00  0.00    +0.040 C 
ENDROOT
BRANCH   4   9
ATOM      9  C   UNL     1      -0.336   2.642   9.237  0.00  0.00    +0.069 A 
ATOM     10  C   UNL     1       0.274   3.438  10.197  0.00  0.00    +0.031 A 
ATOM     11  C   UNL     1       0.423   2.970  11.488  0.00  0.00    +0.043 A 
ATOM     12  C   UNL     1      -0.035   1.708  11.826  0.00  0.00    +0.159 A 
ATOM     13  C   UNL     1      -0.645   0.911  10.869  0.00  0.00    +0.160 A 
ATOM     14  C   UNL     1      -0.801   1.379   9.577  0.00  0.00    +0.069 A 
ATOM     15  F   UNL     1      -1.091  -0.321  11.200  0.00  0.00    -0.202 F 
ATOM     16  F   UNL     1       0.112   1.252  13.089  0.00  0.00    -0.202 F 
ENDBRANCH   4   9
BRANCH   1  18
ATOM     17  N   UNL     1      -0.397   1.369   4.115  0.00  0.00    -0.229 N 
ATOM     18  C   UNL     1      -0.601   2.672   4.394  0.00  0.00    +0.281 C 
ATOM     19  O   UNL     1      -0.780   3.465   3.490  0.00  0.00    -0.267 OA
ATOM     20  H   UNL     1      -0.253   0.736   4.836  0.00  0.00    +0.173 HD
BRANCH  17  23
ATOM     21  C   UNL     1      -0.188  -0.374   2.507  0.00  0.00    +0.277 C 
ATOM     22  O   UNL     1      -0.101  -1.183   3.412  0.00  0.00    -0.267 OA
ATOM     23  N   UNL     1      -0.392   0.929   2.785  0.00  0.00    -0.229 N 
ATOM     24  H   UNL     1      -0.535   1.562   2.064  0.00  0.00    +0.173 HD
BRANCH  21  30
ATOM     25  C   UNL     1       0.070  -3.305   1.539  0.00  0.00    +0.149 C 
ATOM     26  N   UNL     1       0.043  -2.118   0.680  0.00  0.00    -0.345 N 
ATOM     27  C   UNL     1       0.121  -2.119  -0.674  0.00  0.00    +0.106 A 
ATOM     28  C   UNL     1       0.064  -0.840  -1.117  0.00  0.00    +0.059 A 
ATOM     29  C   UNL     1      -0.054  -0.004  -0.001  0.00  0.00    +0.052 A 
ATOM     30  C   UNL     1      -0.072  -0.817   1.113  0.00  0.00    +0.107 A 
ATOM     31 CL   UNL     1       0.128  -0.328  -2.775  0.00  0.00    -0.082 Cl
ENDBRANCH  21  30
ENDBRANCH  17  23
ENDBRANCH   1  18
TORSDOF 4
