REMARK  Name = ZINC32639518
REMARK  6 active torsions:
REMARK  status: ('A' for Active; 'I' for Inactive)
REMARK    1  A    between atoms: C_1  and  C_2
REMARK    2  A    between atoms: C_2  and  C_3
REMARK    3  A    between atoms: C_2  and  C_4
REMARK    4  A    between atoms: C_4  and  C_5
REMARK    5  A    between atoms: C_5  and  N_7
REMARK    6  A    between atoms: N_9  and  C_20
REMARK                            x       y       z     vdW  Elec       q    Type
REMARK                         _______ _______ _______ _____ _____    ______ ____
ROOT
ATOM      1  N   UNL     1      -3.087  -1.284  -1.831  0.00  0.00    -0.159 NA
ATOM      2  C   UNL     1      -3.903  -0.812  -2.767  0.00  0.00    +0.154 C 
ATOM      3  N   UNL     1      -3.596   0.077  -3.795  0.00  0.00    -0.276 N 
ATOM      4  C   UNL     1      -4.607   0.213  -4.791  0.00  0.00    +0.116 C 
ATOM      5  C   UNL     1      -4.648   1.315  -5.842  0.00  0.00    +0.190 C 
ATOM      6  S   UNL     1      -6.270   0.859  -6.621  0.00  0.00    -0.028 S 
ATOM      7  O   UNL     1      -6.032  -0.043  -7.694  0.00  0.00    -0.174 OA
ATOM      8  O   UNL     1      -7.021   2.042  -6.855  0.00  0.00    -0.174 OA
ATOM      9  C   UNL     1      -7.025  -0.069  -5.209  0.00  0.00    +0.182 C 
ATOM     10  C   UNL     1      -6.018   0.242  -4.090  0.00  0.00    +0.097 C 
ATOM     11  S   UNL     1      -5.648  -1.185  -2.994  0.00  0.00    -0.086 S 
ENDROOT
BRANCH   3  12
ATOM     12  C   UNL     1      -2.389   0.783  -3.845  0.00  0.00    +0.036 A 
ATOM     13  C   UNL     1      -1.439   0.469  -4.808  0.00  0.00    +0.025 A 
ATOM     14  C   UNL     1      -0.249   1.167  -4.855  0.00  0.00    +0.022 A 
ATOM     15  C   UNL     1      -0.002   2.179  -3.944  0.00  0.00    +0.041 A 
ATOM     16  C   UNL     1      -0.947   2.494  -2.983  0.00  0.00    +0.022 A 
ATOM     17  C   UNL     1      -2.142   1.803  -2.935  0.00  0.00    +0.025 A 
ATOM     18 CL   UNL     1       1.496   3.054  -4.005  0.00  0.00    -0.084 Cl
ENDBRANCH   3  12
BRANCH   1  19
ATOM     19  C   UNL     1      -1.786  -1.010  -1.884  0.00  0.00    +0.238 C 
ATOM     20  O   UNL     1      -1.349  -0.024  -1.324  0.00  0.00    -0.274 OA
BRANCH  19  21
ATOM     21  C   UNL     1      -0.854  -1.924  -2.637  0.00  0.00    +0.101 C 
BRANCH  21  23
ATOM     22  C   UNL     1       0.978  -1.700  -0.953  0.00  0.00    +0.008 C 
ATOM     23  C   UNL     1       0.592  -1.474  -2.416  0.00  0.00    -0.008 C 
ATOM     24  C   UNL     1       1.522  -2.284  -3.320  0.00  0.00    +0.008 C 
ENDBRANCH  21  23
ENDBRANCH  19  21
ENDBRANCH   1  19
TORSDOF 4
