REMARK  Name = ZINC36318299
REMARK  4 active torsions:
REMARK  status: ('A' for Active; 'I' for Inactive)
REMARK    1  A    between atoms: C_1  and  C_2
REMARK    2  A    between atoms: C_7  and  C_13
REMARK    3  A    between atoms: C_8  and  C_11
REMARK    4  A    between atoms: C_11  and  N_12
REMARK                            x       y       z     vdW  Elec       q    Type
REMARK                         _______ _______ _______ _____ _____    ______ ____
ROOT
ATOM      1  C   UNL     1      -0.046   1.516   0.073  0.00  0.00    +0.045 C 
ATOM      2  C   UNL     1       0.003   0.010   0.045  0.00  0.00    -0.033 A 
ATOM      3  C   UNL     1       0.088  -0.664  -1.185  0.00  0.00    +0.023 A 
ATOM      4  C   UNL     1       0.133  -2.024  -1.206  0.00  0.00    +0.061 A 
ATOM      5  C   UNL     1       0.092  -2.736   0.011  0.00  0.00    +0.152 A 
ATOM      6  N   UNL     1       0.119  -4.033   0.283  0.00  0.00    -0.226 NA
ATOM      7  C   UNL     1       0.054  -4.204   1.613  0.00  0.00    +0.091 A 
ATOM      8  C   UNL     1      -0.015  -2.977   2.200  0.00  0.00    +0.034 A 
ATOM      9  N   UNL     1       0.008  -2.050   1.195  0.00  0.00    -0.304 N 
ATOM     10  C   UNL     1      -0.030  -0.685   1.202  0.00  0.00    +0.096 A 
ATOM     11 BR   UNL     1       0.248  -2.950  -2.851  0.00  0.00    -0.047 Br
ENDROOT
BRANCH   7  12
ATOM     12  C   UNL     1       0.058  -5.508   2.322  0.00  0.00    +0.006 A 
ATOM     13  C   UNL     1      -0.712  -6.566   1.843  0.00  0.00    +0.014 A 
ATOM     14  C   UNL     1      -0.708  -7.776   2.504  0.00  0.00    +0.050 A 
ATOM     15  C   UNL     1       0.061  -7.946   3.648  0.00  0.00    +0.162 A 
ATOM     16  C   UNL     1       0.833  -6.894   4.129  0.00  0.00    +0.163 A 
ATOM     17  C   UNL     1       0.835  -5.678   3.466  0.00  0.00    +0.059 A 
ATOM     18  O   UNL     1       1.599  -7.045   5.244  0.00  0.00    -0.485 OA
ATOM     19  C   UNL     1       1.290  -8.157   6.091  0.00  0.00    +0.270 C 
ATOM     20  C   UNL     1       1.114  -9.400   5.207  0.00  0.00    +0.270 C 
ATOM     21  O   UNL     1       0.047  -9.147   4.287  0.00  0.00    -0.485 OA
ENDBRANCH   7  12
BRANCH   8  22
ATOM     22  C   UNL     1      -0.102  -2.694   3.677  0.00  0.00    -0.029 C 
BRANCH  22  23
ATOM     23  N   UNL     1      -1.503  -2.779   4.110  0.00  0.00    +0.382 N 
ATOM     24  H   UNL     1      -2.053  -2.100   3.605  0.00  0.00    -0.090 HD
ATOM     25  H   UNL     1      -1.858  -3.705   3.924  0.00  0.00    -0.090 HD
ATOM     26  H   UNL     1      -1.562  -2.589   5.100  0.00  0.00    -0.090 HD
ENDBRANCH  22  23
ENDBRANCH   8  22
TORSDOF 3
