REMARK  Name = ZINC30855155
REMARK  11 active torsions:
REMARK  status: ('A' for Active; 'I' for Inactive)
REMARK    1  A    between atoms: C_1  and  C_2
REMARK    2  A    between atoms: C_2  and  C_3
REMARK    3  A    between atoms: C_2  and  C_4
REMARK    4  A    between atoms: C_4  and  C_5
REMARK    5  A    between atoms: C_5  and  C_7
REMARK    6  A    between atoms: C_5  and  N_15
REMARK    7  A    between atoms: C_10  and  O_13
REMARK    8  A    between atoms: O_13  and  C_14
REMARK    9  A    between atoms: C_16  and  C_18
REMARK   10  A    between atoms: N_21  and  S_29
REMARK   11  A    between atoms: S_29  and  C_32
REMARK                            x       y       z     vdW  Elec       q    Type
REMARK                         _______ _______ _______ _____ _____    ______ ____
ROOT
ATOM      1  C   UNL     1       0.081  -2.745   0.415  0.00  0.00    +0.277 C 
ATOM      2  C   UNL     1      -1.145  -2.162  -0.302  0.00  0.00    +0.186 C 
ATOM      3  N   UNL     1      -1.203  -0.724   0.013  0.00  0.00    -0.195 N 
ATOM      4  C   UNL     1       0.002  -0.004   0.002  0.00  0.00    +0.093 A 
ATOM      5  C   UNL     1      -0.017   1.382   0.010  0.00  0.00    +0.028 A 
ATOM      6  C   UNL     1       1.173   2.087   0.002  0.00  0.00    +0.002 A 
ATOM      7  C   UNL     1       2.379   1.410  -0.012  0.00  0.00    +0.004 A 
ATOM      8  C   UNL     1       2.403   0.028  -0.020  0.00  0.00    +0.047 A 
ATOM      9  C   UNL     1       1.215  -0.687  -0.014  0.00  0.00    +0.144 A 
ATOM     10  O   UNL     1       1.248  -2.046  -0.026  0.00  0.00    -0.476 OA
ENDROOT
BRANCH   1  12
ATOM     11  N   UNL     1      -0.737  -5.077   0.489  0.00  0.00    -0.305 N 
ATOM     12  C   UNL     1       0.211  -4.209   0.085  0.00  0.00    +0.256 C 
ATOM     13  O   UNL     1       1.168  -4.607  -0.544  0.00  0.00    -0.272 OA
ATOM     14  H   UNL     1      -1.606  -4.717   1.060  0.00  0.00    +0.149 HD
BRANCH  11  15
ATOM     15  C   UNL     1      -0.612  -6.501   0.168  0.00  0.00    +0.104 C 
BRANCH  15  16
ATOM     16  C   UNL     1      -1.978  -7.136   0.154  0.00  0.00    -0.027 A 
ATOM     17  C   UNL     1      -2.912  -6.784   1.111  0.00  0.00    +0.009 A 
ATOM     18  C   UNL     1      -4.168  -7.360   1.098  0.00  0.00    +0.046 A 
ATOM     19  C   UNL     1      -4.488  -8.301   0.129  0.00  0.00    +0.120 A 
ATOM     20  C   UNL     1      -3.547  -8.656  -0.826  0.00  0.00    +0.046 A 
ATOM     21  C   UNL     1      -2.295  -8.073  -0.812  0.00  0.00    +0.009 A 
BRANCH  19  22
ATOM     22  O   UNL     1      -5.720  -8.873   0.117  0.00  0.00    -0.495 OA
ATOM     23  C   UNL     1      -6.638  -8.459   1.131  0.00  0.00    +0.277 C 
ENDBRANCH  19  22
ENDBRANCH  15  16
BRANCH  15  24
ATOM     24  C   UNL     1       0.258  -7.187   1.224  0.00  0.00    +0.030 C 
BRANCH  24  26
ATOM     25  C   UNL     1       2.519  -7.222   2.287  0.00  0.00    +0.007 C 
ATOM     26  C   UNL     1       1.681  -6.629   1.153  0.00  0.00    -0.015 C 
ATOM     27  C   UNL     1       2.308  -7.000  -0.192  0.00  0.00    +0.007 C 
ENDBRANCH  24  26
ENDBRANCH  15  24
ENDBRANCH  11  15
ENDBRANCH   1  12
BRANCH   3  28
ATOM     28  S   UNL     1      -2.641   0.017   0.368  0.00  0.00    +0.075 S 
ATOM     29  O   UNL     1      -3.516  -0.998   0.840  0.00  0.00    -0.150 OA
ATOM     30  O   UNL     1      -2.324   1.168   1.139  0.00  0.00    -0.150 OA
BRANCH  28  31
ATOM     31  C   UNL     1      -3.316   0.599  -1.151  0.00  0.00    +0.109 A 
ATOM     32  C   UNL     1      -3.013   1.870  -1.601  0.00  0.00    +0.030 A 
ATOM     33  C   UNL     1      -3.538   2.325  -2.796  0.00  0.00    +0.022 A 
ATOM     34  C   UNL     1      -4.377   1.511  -3.536  0.00  0.00    +0.041 A 
ATOM     35  C   UNL     1      -4.684   0.241  -3.083  0.00  0.00    +0.022 A 
ATOM     36  C   UNL     1      -4.154  -0.215  -1.891  0.00  0.00    +0.030 A 
ATOM     37 CL   UNL     1      -5.042   2.084  -5.034  0.00  0.00    -0.084 Cl
ENDBRANCH  28  31
ENDBRANCH   3  28
TORSDOF 8
