REMARK  Name = ZINC04237184
REMARK  5 active torsions:
REMARK  status: ('A' for Active; 'I' for Inactive)
REMARK    1  A    between atoms: C_1  and  C_2
REMARK    2  A    between atoms: N_4  and  C_5
REMARK    3  A    between atoms: C_8  and  S_11
REMARK    4  A    between atoms: S_11  and  N_14
REMARK    5  A    between atoms: C_25  and  C_30
REMARK                            x       y       z     vdW  Elec       q    Type
REMARK                         _______ _______ _______ _____ _____    ______ ____
ROOT
ATOM      1  N   UNL     1       1.465   1.940   1.057  0.00  0.00    -0.176 NA
ATOM      2  C   UNL     1       0.878   1.758  -0.276  0.00  0.00    +0.114 C 
ATOM      3  C   UNL     1      -0.405   0.944  -0.180  0.00  0.00    +0.025 C 
ATOM      4  C   UNL     1      -1.339   1.515   0.887  0.00  0.00    +0.017 C 
ATOM      5  C   UNL     1      -0.608   1.491   2.232  0.00  0.00    +0.052 C 
ATOM      6  C   UNL     1       0.603   2.434   2.143  0.00  0.00    +0.119 C 
ATOM      7  C   UNL     1      -0.087   0.098   2.506  0.00  0.00    +0.026 A 
ATOM      8  C   UNL     1       0.112  -0.244   3.808  0.00  0.00    +0.022 A 
ATOM      9  C   UNL     1       0.714  -1.458   4.143  0.00  0.00    +0.018 A 
ATOM     10  C   UNL     1       1.119  -2.305   3.120  0.00  0.00    +0.082 A 
ATOM     11  C   UNL     1       0.879  -1.915   1.781  0.00  0.00    +0.262 A 
ATOM     12  O   UNL     1       1.265  -2.624   0.867  0.00  0.00    -0.267 OA
ATOM     13  N   UNL     1       0.223  -0.761   1.505  0.00  0.00    -0.311 N 
ATOM     14  C   UNL     1      -0.131  -0.521   0.106  0.00  0.00    +0.130 C 
ENDROOT
BRANCH  10  15
ATOM     15  C   UNL     1       1.785  -3.586   3.422  0.00  0.00    +0.140 A 
ATOM     16  C   UNL     1       1.221  -4.649   4.059  0.00  0.00    +0.050 A 
ATOM     17  C   UNL     1       2.210  -5.650   4.130  0.00  0.00    +0.042 A 
ATOM     18  C   UNL     1       3.319  -5.152   3.549  0.00  0.00    +0.196 A 
ATOM     19  O   UNL     1       3.059  -3.905   3.122  0.00  0.00    -0.463 OA
ENDBRANCH  10  15
BRANCH   1  20
ATOM     20  S   UNL     1       3.062   1.597   1.333  0.00  0.00    +0.061 S 
ATOM     21  O   UNL     1       3.166   1.222   2.700  0.00  0.00    -0.153 OA
ATOM     22  O   UNL     1       3.483   0.747   0.275  0.00  0.00    -0.153 OA
BRANCH  20  26
ATOM     23  C   UNL     1       5.362   5.472   0.874  0.00  0.00    +0.033 A 
ATOM     24  C   UNL     1       4.946   5.054   2.132  0.00  0.00    +0.025 A 
ATOM     25  C   UNL     1       4.245   3.872   2.268  0.00  0.00    +0.030 A 
ATOM     26  C   UNL     1       3.956   3.105   1.154  0.00  0.00    +0.106 A 
ATOM     27  C   UNL     1       4.373   3.516  -0.098  0.00  0.00    +0.030 A 
ATOM     28  C   UNL     1       5.070   4.699  -0.242  0.00  0.00    +0.025 A 
BRANCH  23  32
ATOM     29  C   UNL     1       7.583   8.420   1.609  0.00  0.00    +0.109 C 
ATOM     30  C   UNL     1       6.908   7.076   1.708  0.00  0.00    +0.214 C 
ATOM     31  O   UNL     1       7.116   6.361   2.666  0.00  0.00    -0.276 OA
ATOM     32  N   UNL     1       6.072   6.669   0.733  0.00  0.00    -0.286 N 
ATOM     33  H   UNL     1       5.962   7.206  -0.068  0.00  0.00    +0.155 HD
ENDBRANCH  23  32
ENDBRANCH  20  26
ENDBRANCH   1  20
TORSDOF 4
