REMARK  Name = ZINC40503655
REMARK  8 active torsions:
REMARK  status: ('A' for Active; 'I' for Inactive)
REMARK    1  A    between atoms: C_1  and  C_2
REMARK    2  A    between atoms: C_16  and  C_40
REMARK    3  A    between atoms: C_21  and  C_22
REMARK    4  A    between atoms: C_21  and  O_39
REMARK    5  A    between atoms: C_22  and  C_24
REMARK    6  A    between atoms: C_24  and  N_25
REMARK    7  A    between atoms: C_35  and  O_37
REMARK    8  A    between atoms: O_37  and  C_38
REMARK                            x       y       z     vdW  Elec       q    Type
REMARK                         _______ _______ _______ _____ _____    ______ ____
ROOT
ATOM      1  C   UNL     1       0.414   1.581   0.250  0.00  0.00    +0.020 C 
ATOM      2  C   UNL     1       0.293   0.056   0.209  0.00  0.00    +0.011 C 
ATOM      3  C   UNL     1      -1.173  -0.382   0.195  0.00  0.00    +0.023 C 
ATOM      4  C   UNL     1      -1.858   0.015   1.503  0.00  0.00    +0.080 C 
ATOM      5  C   UNL     1      -1.091  -0.568   2.663  0.00  0.00    +0.156 C 
ATOM      6  O   UNL     1      -1.659  -0.810   3.708  0.00  0.00    -0.293 OA
ATOM      7  C   UNL     1       0.338  -0.837   2.526  0.00  0.00    +0.046 C 
ATOM      8  C   UNL     1       0.990  -0.556   1.406  0.00  0.00    -0.056 C 
ATOM      9  C   UNL     1       2.470  -0.831   1.290  0.00  0.00    +0.032 C 
ATOM     10  C   UNL     1       2.713  -1.891   0.218  0.00  0.00    +0.012 C 
ATOM     11  C   UNL     1       1.646  -1.872  -0.855  0.00  0.00    +0.020 C 
ATOM     12  C   UNL     1       0.977  -0.528  -1.020  0.00  0.00    -0.060 C 
ATOM     13  C   UNL     1       0.920   0.109  -2.153  0.00  0.00    -0.026 C 
ATOM     14  C   UNL     1       1.548  -0.369  -3.443  0.00  0.00    +0.037 C 
ATOM     15  C   UNL     1       2.693  -1.301  -3.076  0.00  0.00    +0.010 C 
ATOM     16  C   UNL     1       2.093  -2.413  -2.183  0.00  0.00    +0.006 C 
ATOM     17  C   UNL     1       3.217  -3.455  -2.167  0.00  0.00    +0.008 C 
ATOM     18  C   UNL     1       3.701  -3.460  -3.642  0.00  0.00    +0.043 C 
ATOM     19  C   UNL     1       3.272  -2.103  -4.249  0.00  0.00    +0.131 C 
ATOM     20  C   UNL     1       3.816  -0.517  -2.402  0.00  0.00    +0.015 C 
ENDROOT
BRANCH  19  21
ATOM     21  C   UNL     1       4.468  -1.387  -4.822  0.00  0.00    +0.179 C 
ATOM     22  O   UNL     1       5.577  -1.649  -4.421  0.00  0.00    -0.293 OA
BRANCH  21  23
ATOM     23  C   UNL     1       4.281  -0.346  -5.895  0.00  0.00    +0.162 C 
BRANCH  23  24
ATOM     24  N   UNL     1       5.589   0.199  -6.282  0.00  0.00    -0.292 NA
ATOM     25  C   UNL     1       6.419  -0.830  -6.924  0.00  0.00    +0.104 C 
ATOM     26  C   UNL     1       7.830  -0.277  -7.147  0.00  0.00    +0.122 C 
ATOM     27  N   UNL     1       7.724   0.989  -7.888  0.00  0.00    -0.313 N 
ATOM     28  C   UNL     1       6.806   2.019  -7.380  0.00  0.00    +0.122 C 
ATOM     29  C   UNL     1       5.434   1.375  -7.148  0.00  0.00    +0.104 C 
ATOM     30  C   UNL     1       8.473   1.207  -9.039  0.00  0.00    +0.125 A 
ATOM     31  C   UNL     1       9.165   0.150  -9.620  0.00  0.00    +0.044 A 
ATOM     32  C   UNL     1       9.908   0.377 -10.766  0.00  0.00    +0.009 A 
ATOM     33  C   UNL     1       9.935   1.658 -11.296  0.00  0.00    +0.067 A 
ATOM     34  C   UNL     1       9.221   2.668 -10.666  0.00  0.00    +0.216 A 
ATOM     35  N   UNL     1       8.516   2.418  -9.574  0.00  0.00    -0.198 NA
BRANCH  34  36
ATOM     36  O   UNL     1       9.243   3.924 -11.178  0.00  0.00    -0.480 OA
ATOM     37  C   UNL     1       8.488   4.920 -10.485  0.00  0.00    +0.279 C 
ENDBRANCH  34  36
ENDBRANCH  23  24
ENDBRANCH  21  23
ENDBRANCH  19  21
BRANCH  19  38
ATOM     38  O   UNL     1       2.280  -2.300  -5.256  0.00  0.00    -0.380 OA
ATOM     39  H   UNL     1       2.591  -2.801  -6.022  0.00  0.00    +0.211 HD
ENDBRANCH  19  38
TORSDOF 5
