REMARK  Name = ZINC01339642
REMARK  5 active torsions:
REMARK  status: ('A' for Active; 'I' for Inactive)
REMARK    1  A    between atoms: C_1  and  C_2
REMARK    2  A    between atoms: C_14  and  S_21
REMARK    3  A    between atoms: C_16  and  C_18
REMARK    4  A    between atoms: S_21  and  C_22
REMARK    5  A    between atoms: C_22  and  C_23
REMARK                            x       y       z     vdW  Elec       q    Type
REMARK                         _______ _______ _______ _____ _____    ______ ____
ROOT
ATOM      1  C   UNL     1      -1.753  -3.374  -0.079  0.00  0.00    +0.008 C 
ATOM      2  C   UNL     1      -0.665  -2.341  -0.376  0.00  0.00    -0.009 C 
ATOM      3  C   UNL     1       0.587  -2.657   0.448  0.00  0.00    +0.008 C 
ATOM      4  C   UNL     1       1.754  -1.789  -0.024  0.00  0.00    +0.037 C 
ATOM      5  C   UNL     1       1.316  -0.326  -0.012  0.00  0.00    -0.024 A 
ATOM      6  C   UNL     1       0.002  -0.004   0.002  0.00  0.00    -0.004 A 
ATOM      7  S   UNL     1      -0.022   1.769   0.012  0.00  0.00    -0.073 S 
ATOM      8  C   UNL     1       1.734   2.039  -0.004  0.00  0.00    +0.114 A 
ATOM      9  C   UNL     1       2.254   0.736  -0.016  0.00  0.00    +0.056 A 
ATOM     10  C   UNL     1       3.732   0.658  -0.030  0.00  0.00    +0.173 A 
ATOM     11  N   UNL     1       4.591  -0.330  -0.044  0.00  0.00    -0.128 NA
ATOM     12  N   UNL     1       5.790   0.140  -0.052  0.00  0.00    -0.122 NA
ATOM     13  C   UNL     1       5.765   1.453  -0.044  0.00  0.00    +0.198 A 
ATOM     14  N   UNL     1       4.452   1.833  -0.030  0.00  0.00    -0.257 N 
ATOM     15  C   UNL     1       3.812   3.038  -0.017  0.00  0.00    +0.122 A 
ATOM     16  N   UNL     1       2.512   3.117  -0.005  0.00  0.00    -0.226 NA
ATOM     17  C   UNL     1      -1.166  -0.941   0.008  0.00  0.00    +0.046 C 
ENDROOT
BRANCH  15  18
ATOM     18  C   UNL     1       4.628   4.305  -0.018  0.00  0.00    +0.056 C 
ATOM     19  C   UNL     1       3.884   5.624   0.202  0.00  0.00    +0.012 C 
ATOM     20  C   UNL     1       4.428   5.274  -1.186  0.00  0.00    +0.012 C 
ENDBRANCH  15  18
BRANCH  13  21
ATOM     21  S   UNL     1       7.163   2.525  -0.051  0.00  0.00    -0.081 S 
BRANCH  21  22
ATOM     22  C   UNL     1       8.583   1.396  -0.071  0.00  0.00    +0.113 C 
BRANCH  22  23
ATOM     23  C   UNL     1       9.861   2.195  -0.078  0.00  0.00    -0.023 A 
ATOM     24  C   UNL     1      10.616   2.304   1.042  0.00  0.00    +0.075 A 
ATOM     25  C   UNL     1      11.813   3.051   1.023  0.00  0.00    +0.249 A 
ATOM     26  O   UNL     1      12.479   3.133   2.041  0.00  0.00    -0.268 OA
ATOM     27  N   UNL     1      12.235   3.680  -0.088  0.00  0.00    -0.322 N 
ATOM     28  H   UNL     1      13.060   4.188  -0.066  0.00  0.00    +0.169 HD
ATOM     29  C   UNL     1      11.510   3.612  -1.259  0.00  0.00    +0.049 A 
ATOM     30  C   UNL     1      10.311   2.875  -1.294  0.00  0.00    +0.003 A 
ATOM     31  C   UNL     1       9.572   2.804  -2.479  0.00  0.00    +0.010 A 
ATOM     32  C   UNL     1      10.019   3.450  -3.596  0.00  0.00    +0.001 A 
ATOM     33  C   UNL     1      11.201   4.178  -3.566  0.00  0.00    +0.002 A 
ATOM     34  C   UNL     1      11.945   4.262  -2.409  0.00  0.00    +0.026 A 
ENDBRANCH  22  23
ENDBRANCH  21  22
ENDBRANCH  13  21
TORSDOF 4
