REMARK  Name = ZINC39577246
REMARK  13 active torsions:
REMARK  status: ('A' for Active; 'I' for Inactive)
REMARK    1  A    between atoms: C_1  and  C_2
REMARK    2  A    between atoms: C_2  and  C_3
REMARK    3  A    between atoms: C_2  and  C_4
REMARK    4  A    between atoms: C_2  and  N_5
REMARK    5  A    between atoms: C_9  and  C_11
REMARK    6  A    between atoms: C_11  and  O_12
REMARK    7  A    between atoms: O_12  and  C_13
REMARK    8  A    between atoms: C_13  and  C_15
REMARK    9  A    between atoms: C_15  and  C_17
REMARK   10  A    between atoms: C_15  and  N_24
REMARK   11  A    between atoms: C_17  and  C_18
REMARK   12  A    between atoms: N_24  and  S_25
REMARK   13  A    between atoms: S_25  and  C_28
REMARK                            x       y       z     vdW  Elec       q    Type
REMARK                         _______ _______ _______ _____ _____    ______ ____
ROOT
ATOM      1  C   UNL     1       8.545  -0.379  -5.059  0.00  0.00    +0.189 C 
ENDROOT
BRANCH   1   2
ATOM      2  C   UNL     1       7.107  -0.818  -5.165  0.00  0.00    +0.327 C 
ATOM      3  O   UNL     1       6.734  -1.436  -6.134  0.00  0.00    -0.249 OA
BRANCH   2   4
ATOM      4  O   UNL     1       6.240  -0.523  -4.184  0.00  0.00    -0.454 OA
BRANCH   4   5
ATOM      5  C   UNL     1       4.894  -0.970  -4.351  0.00  0.00    +0.328 C 
BRANCH   5  10
ATOM      6  N   UNL     1       0.721  -0.804  -1.969  0.00  0.00    -0.294 N 
ATOM      7  C   UNL     1       2.030  -0.489  -2.031  0.00  0.00    +0.306 C 
ATOM      8  O   UNL     1       2.549   0.133  -1.125  0.00  0.00    -0.252 OA
ATOM      9  N   UNL     1       2.764  -0.865  -3.097  0.00  0.00    -0.237 N 
ATOM     10  C   UNL     1       4.073  -0.550  -3.159  0.00  0.00    +0.258 C 
ATOM     11  O   UNL     1       4.590   0.071  -2.255  0.00  0.00    -0.272 OA
ATOM     12  H   UNL     1       0.307  -1.301  -2.692  0.00  0.00    +0.151 HD
ATOM     13  H   UNL     1       2.350  -1.362  -3.820  0.00  0.00    +0.159 HD
BRANCH   6  15
ATOM     14  C   UNL     1      -0.057   1.129  -0.689  0.00  0.00    +0.031 C 
ATOM     15  C   UNL     1      -0.077  -0.396  -0.810  0.00  0.00    +0.028 C 
ATOM     16  C   UNL     1       0.513  -1.015   0.459  0.00  0.00    +0.031 C 
ATOM     17  C   UNL     1      -1.519  -0.875  -0.989  0.00  0.00    +0.031 C 
ENDBRANCH   6  15
ENDBRANCH   5  10
ENDBRANCH   4   5
ENDBRANCH   2   4
ENDBRANCH   1   2
BRANCH   1  18
ATOM     18  N   UNL     1       9.279  -0.820  -6.247  0.00  0.00    -0.176 NA
ATOM     19  H   UNL     1       9.667  -1.708  -6.275  0.00  0.00    +0.149 HD
BRANCH  18  20
ATOM     20  S   UNL     1       9.447   0.199  -7.542  0.00  0.00    +0.062 S 
ATOM     21  O   UNL     1      10.188  -0.512  -8.524  0.00  0.00    -0.153 OA
ATOM     22  O   UNL     1       8.160   0.741  -7.802  0.00  0.00    -0.153 OA
BRANCH  20  23
ATOM     23  C   UNL     1      10.463   1.541  -7.020  0.00  0.00    +0.140 A 
ATOM     24  C   UNL     1      11.758   1.652  -7.490  0.00  0.00    +0.031 A 
ATOM     25  C   UNL     1      12.555   2.704  -7.081  0.00  0.00    +0.002 A 
ATOM     26  C   UNL     1      12.058   3.648  -6.201  0.00  0.00    +0.003 A 
ATOM     27  C   UNL     1      10.763   3.540  -5.731  0.00  0.00    +0.040 A 
ATOM     28  C   UNL     1       9.962   2.489  -6.144  0.00  0.00    +0.150 A 
ATOM     29  F   UNL     1       8.694   2.385  -5.688  0.00  0.00    -0.203 F 
ENDBRANCH  20  23
ENDBRANCH  18  20
ENDBRANCH   1  18
BRANCH   1  30
ATOM     30  C   UNL     1       9.176  -0.998  -3.810  0.00  0.00    +0.067 C 
BRANCH  30  31
ATOM     31  C   UNL     1      10.569  -0.454  -3.629  0.00  0.00    -0.045 A 
ATOM     32  C   UNL     1      11.633  -1.046  -4.284  0.00  0.00    +0.004 A 
ATOM     33  C   UNL     1      12.911  -0.546  -4.118  0.00  0.00    +0.000 A 
ATOM     34  C   UNL     1      13.126   0.545  -3.297  0.00  0.00    +0.000 A 
ATOM     35  C   UNL     1      12.062   1.137  -2.643  0.00  0.00    +0.000 A 
ATOM     36  C   UNL     1      10.783   0.641  -2.812  0.00  0.00    +0.004 A 
ENDBRANCH  30  31
ENDBRANCH   1  30
TORSDOF 10
