REMARK  Name = ZINC36159086
REMARK  12 active torsions:
REMARK  status: ('A' for Active; 'I' for Inactive)
REMARK    1  A    between atoms: C_1  and  C_2
REMARK    2  A    between atoms: C_2  and  C_3
REMARK    3  A    between atoms: C_2  and  C_4
REMARK    4  A    between atoms: C_2  and  O_5
REMARK    5  A    between atoms: O_5  and  C_6
REMARK    6  A    between atoms: C_6  and  C_7
REMARK    7  A    between atoms: C_7  and  C_9
REMARK    8  A    between atoms: C_7  and  O_32
REMARK    9  A    between atoms: C_9  and  N_10
REMARK   10  A    between atoms: N_10  and  C_11
REMARK   11  A    between atoms: N_10  and  C_26
REMARK   12  A    between atoms: C_11  and  C_12
REMARK                            x       y       z     vdW  Elec       q    Type
REMARK                         _______ _______ _______ _____ _____    ______ ____
ROOT
ATOM      1  N   UNL     1       4.639  -0.592  -3.951  0.00  0.00    +0.388 N 
ATOM      2  H   UNL     1       4.193  -0.689  -4.851  0.00  0.00    -0.081 HD
ENDROOT
BRANCH   1   3
ATOM      3  C   UNL     1       4.734  -1.909  -3.307  0.00  0.00    -0.068 C 
ATOM      4  C   UNL     1       5.326  -1.749  -1.905  0.00  0.00    -0.015 C 
ATOM      5  C   UNL     1       5.424  -3.120  -1.234  0.00  0.00    -0.002 C 
ATOM      6  C   UNL     1       6.325  -4.033  -2.067  0.00  0.00    -0.000 C 
ATOM      7  C   UNL     1       5.733  -4.193  -3.469  0.00  0.00    -0.002 C 
ATOM      8  C   UNL     1       5.635  -2.821  -4.140  0.00  0.00    -0.015 C 
ENDBRANCH   1   3
BRANCH   1   9
ATOM      9  C   UNL     1       3.847   0.311  -3.107  0.00  0.00    -0.044 C 
BRANCH   9  10
ATOM     10  C   UNL     1       2.392  -0.163  -3.077  0.00  0.00    +0.124 C 
BRANCH  10  11
ATOM     11  O   UNL     1       2.308  -1.397  -2.362  0.00  0.00    -0.391 OA
ATOM     12  H   UNL     1       2.529  -1.323  -1.423  0.00  0.00    +0.210 HD
ENDBRANCH  10  11
BRANCH  10  13
ATOM     13  C   UNL     1       1.526   0.889  -2.382  0.00  0.00    +0.189 C 
BRANCH  13  14
ATOM     14  O   UNL     1       0.153   0.502  -2.458  0.00  0.00    -0.372 OA
BRANCH  14  16
ATOM     15  C   UNL     1      -0.625   2.789  -2.511  0.00  0.00    +0.041 C 
ATOM     16  C   UNL     1      -0.746   1.422  -1.835  0.00  0.00    +0.061 C 
ATOM     17  C   UNL     1      -0.395   1.554  -0.352  0.00  0.00    +0.041 C 
ATOM     18  C   UNL     1      -2.180   0.908  -1.976  0.00  0.00    +0.041 C 
ENDBRANCH  14  16
ENDBRANCH  13  14
ENDBRANCH  10  13
ENDBRANCH   9  10
ENDBRANCH   1   9
BRANCH   1  19
ATOM     19  C   UNL     1       5.988  -0.037  -4.131  0.00  0.00    -0.003 C 
BRANCH  19  20
ATOM     20  C   UNL     1       6.599  -0.599  -5.388  0.00  0.00    +0.094 A 
ATOM     21  N   UNL     1       7.900  -0.335  -5.672  0.00  0.00    -0.312 N 
ATOM     22  H   UNL     1       8.419   0.212  -5.061  0.00  0.00    +0.170 HD
ATOM     23  C   UNL     1       8.486  -0.817  -6.785  0.00  0.00    +0.260 A 
ATOM     24  O   UNL     1       9.655  -0.572  -7.027  0.00  0.00    -0.267 OA
ATOM     25  C   UNL     1       7.710  -1.624  -7.678  0.00  0.00    +0.075 A 
ATOM     26  C   UNL     1       8.137  -2.249  -8.939  0.00  0.00    -0.023 A 
ATOM     27  C   UNL     1       7.215  -2.965  -9.605  0.00  0.00    -0.004 A 
ATOM     28  S   UNL     1       5.743  -2.856  -8.612  0.00  0.00    -0.073 S 
ATOM     29  C   UNL     1       6.378  -1.843  -7.302  0.00  0.00    +0.116 A 
ATOM     30  N   UNL     1       5.869  -1.336  -6.182  0.00  0.00    -0.229 NA
ATOM     31  C   UNL     1       7.762  -3.552 -10.878  0.00  0.00    +0.043 C 
ATOM     32  C   UNL     1       9.054  -2.751 -11.150  0.00  0.00    +0.010 C 
ATOM     33  C   UNL     1       9.447  -2.298  -9.730  0.00  0.00    +0.037 C 
ENDBRANCH  19  20
ENDBRANCH   1  19
TORSDOF 9
