REMARK  Name = ZINC38687968
REMARK  10 active torsions:
REMARK  status: ('A' for Active; 'I' for Inactive)
REMARK    1  A    between atoms: C_1  and  C_2
REMARK    2  A    between atoms: C_2  and  C_3
REMARK    3  A    between atoms: C_3  and  O_4
REMARK    4  A    between atoms: O_4  and  C_5
REMARK    5  A    between atoms: C_8  and  C_12
REMARK    6  A    between atoms: C_12  and  O_14
REMARK    7  A    between atoms: O_14  and  C_15
REMARK    8  A    between atoms: C_22  and  N_35
REMARK    9  A    between atoms: C_23  and  C_33
REMARK   10  A    between atoms: C_24  and  C_26
REMARK                            x       y       z     vdW  Elec       q    Type
REMARK                         _______ _______ _______ _____ _____    ______ ____
ROOT
ATOM      1  C   UNL     1       5.182  -5.341  -6.592  0.00  0.00    +0.135 A 
ATOM      2  C   UNL     1       4.500  -5.638  -7.764  0.00  0.00    +0.047 A 
ATOM      3  C   UNL     1       5.153  -6.282  -8.797  0.00  0.00    +0.012 A 
ATOM      4  C   UNL     1       6.485  -6.633  -8.669  0.00  0.00    +0.008 A 
ATOM      5  C   UNL     1       7.170  -6.338  -7.501  0.00  0.00    +0.138 A 
ATOM      6  C   UNL     1       6.517  -5.686  -6.463  0.00  0.00    +0.093 A 
ATOM      7  O   UNL     1       8.476  -6.674  -7.357  0.00  0.00    -0.441 OA
ATOM      8  C   UNL     1       9.018  -7.614  -8.150  0.00  0.00    +0.199 C 
ATOM      9  C   UNL     1       8.450  -7.973  -9.326  0.00  0.00    +0.098 C 
ATOM     10  C   UNL     1       7.178  -7.334  -9.808  0.00  0.00    +0.101 C 
ENDROOT
BRANCH  10  11
ATOM     11  C   UNL     1       7.499  -6.334 -10.888  0.00  0.00    +0.000 A 
ATOM     12  C   UNL     1       8.322  -5.258 -10.613  0.00  0.00    +0.007 A 
ATOM     13  C   UNL     1       8.616  -4.340 -11.604  0.00  0.00    +0.000 A 
ATOM     14  C   UNL     1       8.089  -4.498 -12.872  0.00  0.00    +0.003 A 
ATOM     15  C   UNL     1       7.267  -5.573 -13.150  0.00  0.00    +0.038 A 
ATOM     16  C   UNL     1       6.975  -6.496 -12.159  0.00  0.00    +0.127 A 
ATOM     17  F   UNL     1       6.176  -7.550 -12.432  0.00  0.00    -0.205 F 
ENDBRANCH  10  11
BRANCH   8  18
ATOM     18  N   UNL     1      10.181  -8.227  -7.757  0.00  0.00    -0.328 N 
ATOM     19  H   UNL     1      10.600  -7.980  -6.918  0.00  0.00    +0.145 HD
ATOM     20  H   UNL     1      10.584  -8.907  -8.319  0.00  0.00    +0.145 HD
ENDBRANCH   8  18
BRANCH   9  21
ATOM     21  C   UNL     1       9.076  -8.982 -10.127  0.00  0.00    +0.101 C 
ATOM     22  N   UNL     1       9.572  -9.782 -10.763  0.00  0.00    -0.191 NA
ENDBRANCH   9  21
BRANCH   1  23
ATOM     23  O   UNL     1       4.541  -4.708  -5.574  0.00  0.00    -0.422 OA
BRANCH  23  24
ATOM     24  C   UNL     1       3.709  -5.433  -4.802  0.00  0.00    +0.345 C 
ATOM     25  O   UNL     1       3.480  -6.594  -5.079  0.00  0.00    -0.245 OA
BRANCH  24  29
ATOM     26  C   UNL     1       1.885  -3.663  -1.399  0.00  0.00    +0.157 A 
ATOM     27  C   UNL     1       1.622  -4.992  -1.715  0.00  0.00    +0.085 A 
ATOM     28  C   UNL     1       2.211  -5.570  -2.818  0.00  0.00    +0.038 A 
ATOM     29  C   UNL     1       3.075  -4.819  -3.621  0.00  0.00    +0.062 A 
ATOM     30  C   UNL     1       3.337  -3.483  -3.300  0.00  0.00    +0.038 A 
ATOM     31  C   UNL     1       2.740  -2.911  -2.198  0.00  0.00    +0.085 A 
ATOM     32 CL   UNL     1       3.059  -1.251  -1.803  0.00  0.00    -0.080 Cl
ATOM     33 CL   UNL     1       0.548  -5.923  -0.718  0.00  0.00    -0.080 Cl
BRANCH  26  34
ATOM     34  O   UNL     1       1.303  -3.098  -0.311  0.00  0.00    -0.489 OA
BRANCH  34  35
ATOM     35  C   UNL     1       0.036  -2.466  -0.508  0.00  0.00    +0.229 C 
BRANCH  35  37
ATOM     36  C   UNL     1      -1.815  -1.215   0.609  0.00  0.00    +0.007 C 
ATOM     37  C   UNL     1      -0.459  -1.891   0.820  0.00  0.00    +0.038 C 
ENDBRANCH  35  37
ENDBRANCH  34  35
ENDBRANCH  26  34
ENDBRANCH  24  29
ENDBRANCH  23  24
ENDBRANCH   1  23
TORSDOF 9
