REMARK  Name = ZINC66087613
REMARK  8 active torsions:
REMARK  status: ('A' for Active; 'I' for Inactive)
REMARK    1  A    between atoms: C_1  and  O_2
REMARK    2  A    between atoms: O_2  and  C_3
REMARK    3  A    between atoms: C_9  and  C_13
REMARK    4  A    between atoms: C_13  and  C_14
REMARK    5  A    between atoms: C_14  and  N_15
REMARK    6  A    between atoms: C_16  and  C_31
REMARK    7  A    between atoms: C_19  and  C_26
REMARK    8  A    between atoms: C_35  and  O_37
REMARK                            x       y       z     vdW  Elec       q    Type
REMARK                         _______ _______ _______ _____ _____    ______ ____
ROOT
ATOM      1  N   UNL     1       1.758  -6.730  -0.088  0.00  0.00    -0.285 N 
ATOM      2  C   UNL     1       2.097  -8.119   0.244  0.00  0.00    +0.141 C 
ATOM      3  C   UNL     1       1.448  -8.976  -0.809  0.00  0.00    +0.038 A 
ATOM      4  C   UNL     1       1.219 -10.227  -1.292  0.00  0.00    +0.107 A 
ATOM      5  N   UNL     1       0.445 -10.078  -2.410  0.00  0.00    -0.273 N 
ATOM      6  H   UNL     1       0.124 -10.805  -2.966  0.00  0.00    +0.189 HD
ATOM      7  N   UNL     1       0.206  -8.832  -2.613  0.00  0.00    -0.168 NA
ATOM      8  C   UNL     1       0.779  -8.092  -1.685  0.00  0.00    +0.153 A 
ATOM      9  C   UNL     1       0.996  -6.719  -1.195  0.00  0.00    +0.268 C 
ATOM     10  O   UNL     1       0.551  -5.717  -1.720  0.00  0.00    -0.268 OA
ENDROOT
BRANCH   2  11
ATOM     11  C   UNL     1       1.556  -8.473   1.606  0.00  0.00    -0.019 A 
ATOM     12  C   UNL     1       0.303  -8.030   1.987  0.00  0.00    +0.006 A 
ATOM     13  C   UNL     1      -0.196  -8.353   3.236  0.00  0.00    +0.004 A 
ATOM     14  C   UNL     1       0.557  -9.117   4.106  0.00  0.00    +0.045 A 
ATOM     15  C   UNL     1       1.815  -9.562   3.725  0.00  0.00    +0.117 A 
ATOM     16  C   UNL     1       2.311  -9.242   2.469  0.00  0.00    +0.051 A 
BRANCH  15  17
ATOM     17  O   UNL     1       2.558 -10.314   4.579  0.00  0.00    -0.507 OA
ATOM     18  H   UNL     1       2.412 -11.266   4.493  0.00  0.00    +0.292 HD
ENDBRANCH  15  17
ENDBRANCH   2  11
BRANCH   4  19
ATOM     19  C   UNL     1       1.710 -11.495  -0.724  0.00  0.00    +0.153 A 
ATOM     20  C   UNL     1       0.978 -12.630  -0.552  0.00  0.00    +0.051 A 
ATOM     21  C   UNL     1       1.841 -13.586   0.019  0.00  0.00    +0.042 A 
ATOM     22  C   UNL     1       3.043 -12.995   0.166  0.00  0.00    +0.196 A 
ATOM     23  O   UNL     1       2.962 -11.734  -0.289  0.00  0.00    -0.461 OA
ENDBRANCH   4  19
BRANCH   1  24
ATOM     24  C   UNL     1       2.178  -5.548   0.669  0.00  0.00    +0.114 C 
BRANCH  24  25
ATOM     25  C   UNL     1       1.138  -5.237   1.747  0.00  0.00    +0.056 C 
BRANCH  25  32
ATOM     26  C   UNL     1       0.626  -0.619   1.042  0.00  0.00    +0.121 A 
ATOM     27  C   UNL     1       1.204   0.145   2.054  0.00  0.00    +0.047 A 
ATOM     28  C   UNL     1       1.839  -0.461   3.114  0.00  0.00    +0.030 A 
ATOM     29  C   UNL     1       1.909  -1.849   3.182  0.00  0.00    +0.047 A 
ATOM     30  C   UNL     1       1.327  -2.623   2.162  0.00  0.00    +0.006 A 
ATOM     31  C   UNL     1       0.680  -1.997   1.094  0.00  0.00    +0.056 A 
ATOM     32  C   UNL     1       1.570  -4.021   2.526  0.00  0.00    -0.021 A 
ATOM     33  C   UNL     1       2.249  -4.014   3.683  0.00  0.00    +0.087 A 
ATOM     34  N   UNL     1       2.461  -2.726   4.092  0.00  0.00    -0.360 N 
ATOM     35  H   UNL     1       2.931  -2.467   4.900  0.00  0.00    +0.165 HD
BRANCH  26  37
ATOM     36  C   UNL     1      -0.017   1.425   0.010  0.00  0.00    +0.277 C 
ATOM     37  O   UNL     1       0.002  -0.004   0.002  0.00  0.00    -0.495 OA
ENDBRANCH  26  37
ENDBRANCH  25  32
ENDBRANCH  24  25
ENDBRANCH   1  24
TORSDOF 7
