REMARK  Name = ZINC09968595
REMARK  11 active torsions:
REMARK  status: ('A' for Active; 'I' for Inactive)
REMARK    1  A    between atoms: C_1  and  C_2
REMARK    2  A    between atoms: C_2  and  C_3
REMARK    3  A    between atoms: C_3  and  O_4
REMARK    4  A    between atoms: O_4  and  C_5
REMARK    5  A    between atoms: C_5  and  C_7
REMARK    6  A    between atoms: C_8  and  C_35
REMARK    7  A    between atoms: C_12  and  C_14
REMARK    8  A    between atoms: C_18  and  O_20
REMARK    9  A    between atoms: C_24  and  C_27
REMARK   10  A    between atoms: C_32  and  O_33
REMARK   11  A    between atoms: O_33  and  C_34
REMARK                            x       y       z     vdW  Elec       q    Type
REMARK                         _______ _______ _______ _____ _____    ______ ____
ROOT
ATOM      1  C   UNL     1      -0.790   5.834  -1.197  0.00  0.00    +0.154 C 
ATOM      2  C   UNL     1      -2.055   6.279  -1.139  0.00  0.00    +0.031 C 
ATOM      3  N   UNL     1      -2.726   6.307   0.052  0.00  0.00    -0.260 NA
ATOM      4  C   UNL     1      -2.043   6.271   1.238  0.00  0.00    +0.049 C 
ATOM      5  C   UNL     1      -0.768   5.829   1.282  0.00  0.00    +0.025 C 
ATOM      6  C   UNL     1      -0.075   5.352   0.031  0.00  0.00    +0.073 C 
ATOM      7  C   UNL     1      -0.052   5.800   2.492  0.00  0.00    +0.162 C 
ATOM      8  O   UNL     1       1.090   5.386   2.498  0.00  0.00    -0.292 OA
ATOM      9  C   UNL     1      -0.674   6.271   3.777  0.00  0.00    +0.088 C 
ATOM     10  C   UNL     1      -1.728   7.337   3.460  0.00  0.00    +0.036 C 
ATOM     11  C   UNL     1      -2.747   6.739   2.488  0.00  0.00    +0.064 C 
ATOM     12  C   UNL     1      -2.741   6.753  -2.395  0.00  0.00    +0.061 C 
ENDROOT
BRANCH   6  13
ATOM     13  C   UNL     1      -0.049   3.846   0.023  0.00  0.00    -0.035 A 
ATOM     14  C   UNL     1      -1.235   3.134   0.031  0.00  0.00    +0.004 A 
ATOM     15  C   UNL     1      -1.215   1.752   0.019  0.00  0.00    +0.004 A 
ATOM     16  C   UNL     1      -0.009   1.078   0.010  0.00  0.00    +0.045 A 
ATOM     17  C   UNL     1       1.182   1.789   0.002  0.00  0.00    +0.117 A 
ATOM     18  C   UNL     1       1.159   3.176   0.009  0.00  0.00    +0.049 A 
BRANCH  17  19
ATOM     19  O   UNL     1       2.369   1.128  -0.013  0.00  0.00    -0.507 OA
ATOM     20  H   UNL     1       2.705   0.941  -0.900  0.00  0.00    +0.292 HD
ENDBRANCH  17  19
ENDBRANCH   6  13
BRANCH  10  21
ATOM     21  C   UNL     1      -2.421   7.759   4.730  0.00  0.00    -0.002 A 
ATOM     22  C   UNL     1      -3.109   6.828   5.484  0.00  0.00    +0.007 A 
ATOM     23  C   UNL     1      -3.743   7.214   6.650  0.00  0.00    +0.001 A 
ATOM     24  C   UNL     1      -3.692   8.533   7.064  0.00  0.00    +0.004 A 
ATOM     25  C   UNL     1      -3.006   9.467   6.313  0.00  0.00    +0.046 A 
ATOM     26  C   UNL     1      -2.364   9.081   5.146  0.00  0.00    +0.124 A 
BRANCH  26  27
ATOM     27  O   UNL     1      -1.683   9.998   4.408  0.00  0.00    -0.495 OA
ATOM     28  C   UNL     1      -1.667  11.340   4.896  0.00  0.00    +0.277 C 
ENDBRANCH  26  27
ENDBRANCH  10  21
BRANCH   1  29
ATOM     29  C   UNL     1      -0.116   5.822  -2.440  0.00  0.00    +0.317 C 
ATOM     30  O   UNL     1      -0.684   6.212  -3.443  0.00  0.00    -0.250 OA
BRANCH  29  31
ATOM     31  O   UNL     1       1.156   5.378  -2.514  0.00  0.00    -0.464 OA
BRANCH  31  32
ATOM     32  C   UNL     1       1.775   5.395  -3.802  0.00  0.00    +0.232 C 
BRANCH  32  34
ATOM     33  C   UNL     1       3.866   4.877  -5.068  0.00  0.00    +0.007 C 
ATOM     34  C   UNL     1       3.204   4.860  -3.689  0.00  0.00    +0.038 C 
ENDBRANCH  32  34
ENDBRANCH  31  32
ENDBRANCH  29  31
ENDBRANCH   1  29
TORSDOF 8
