REMARK  Name = ZINC05836018
REMARK  7 active torsions:
REMARK  status: ('A' for Active; 'I' for Inactive)
REMARK    1  A    between atoms: C_1  and  C_2
REMARK    2  A    between atoms: C_11  and  C_13
REMARK    3  A    between atoms: C_13  and  C_14
REMARK    4  A    between atoms: C_13  and  C_16
REMARK    5  A    between atoms: C_13  and  O_20
REMARK    6  A    between atoms: C_14  and  O_15
REMARK    7  A    between atoms: C_28  and  O_29
REMARK                            x       y       z     vdW  Elec       q    Type
REMARK                         _______ _______ _______ _____ _____    ______ ____
ROOT
ATOM      1  C   UNL     1       2.572  -0.117  -0.023  0.00  0.00    +0.044 C 
ATOM      2  C   UNL     1       2.480   1.388  -0.014  0.00  0.00    -0.035 A 
ATOM      3  C   UNL     1       3.633   2.149   0.014  0.00  0.00    +0.016 A 
ATOM      4  C   UNL     1       3.554   3.540   0.024  0.00  0.00    +0.037 A 
ATOM      5  C   UNL     1       2.302   4.177   0.003  0.00  0.00    +0.076 A 
ATOM      6  C   UNL     1       1.130   3.410  -0.026  0.00  0.00    +0.151 A 
ATOM      7  C   UNL     1       1.234   2.008  -0.033  0.00  0.00    +0.068 A 
ATOM      8  C   UNL     1      -0.014   1.215  -0.063  0.00  0.00    +0.193 A 
ATOM      9  O   UNL     1       0.002  -0.004  -0.071  0.00  0.00    -0.287 OA
ATOM     10  C   UNL     1      -1.233   1.944  -0.086  0.00  0.00    +0.096 A 
ATOM     11  C   UNL     1      -1.198   3.287  -0.072  0.00  0.00    +0.146 A 
ATOM     12  O   UNL     1      -0.075   4.004  -0.046  0.00  0.00    -0.456 OA
ATOM     13  C   UNL     1       2.229   5.652   0.013  0.00  0.00    +0.202 C 
ATOM     14  O   UNL     1       1.187   6.217  -0.256  0.00  0.00    -0.286 OA
ATOM     15  C   UNL     1       3.434   6.432   0.354  0.00  0.00    +0.075 A 
ATOM     16  C   UNL     1       4.692   5.798   0.375  0.00  0.00    +0.037 A 
ATOM     17  C   UNL     1       5.828   6.531   0.696  0.00  0.00    +0.012 A 
ATOM     18  C   UNL     1       5.720   7.881   0.994  0.00  0.00    +0.004 A 
ATOM     19  C   UNL     1       4.492   8.508   0.976  0.00  0.00    +0.046 A 
ATOM     20  C   UNL     1       3.340   7.792   0.656  0.00  0.00    +0.128 A 
ATOM     21  C   UNL     1       4.789   4.358   0.056  0.00  0.00    +0.195 C 
ATOM     22  O   UNL     1       5.869   3.851  -0.175  0.00  0.00    -0.287 OA
ENDROOT
BRANCH  20  23
ATOM     23  O   UNL     1       2.135   8.412   0.640  0.00  0.00    -0.506 OA
ATOM     24  H   UNL     1       1.671   8.395   1.488  0.00  0.00    +0.292 HD
ENDBRANCH  20  23
BRANCH  11  25
ATOM     25  C   UNL     1      -2.510   4.029  -0.092  0.00  0.00    +0.174 C 
BRANCH  25  26
ATOM     26  C   UNL     1      -2.325   5.372  -0.802  0.00  0.00    +0.185 C 
ATOM     27  C   UNL     1      -3.494   6.359  -0.776  0.00  0.00    +0.195 C 
ATOM     28  O   UNL     1      -2.311   6.554   0.002  0.00  0.00    -0.368 OA
ENDBRANCH  25  26
BRANCH  25  29
ATOM     29  O   UNL     1      -3.486   3.252  -0.790  0.00  0.00    -0.376 OA
ATOM     30  H   UNL     1      -3.252   3.060  -1.708  0.00  0.00    +0.211 HD
ENDBRANCH  25  29
BRANCH  25  31
ATOM     31  C   UNL     1      -2.981   4.271   1.343  0.00  0.00    +0.201 C 
BRANCH  31  32
ATOM     32  O   UNL     1      -2.005   5.048   2.040  0.00  0.00    -0.392 OA
ATOM     33  H   UNL     1      -2.239   5.241   2.958  0.00  0.00    +0.210 HD
ENDBRANCH  31  32
ENDBRANCH  25  31
ENDBRANCH  11  25
TORSDOF 6
