REMARK  Name = ZINC49851292
REMARK  2 active torsions:
REMARK  status: ('A' for Active; 'I' for Inactive)
REMARK    1  A    between atoms: C_5  and  C_7
REMARK    2  A    between atoms: C_18  and  C_20
REMARK                            x       y       z     vdW  Elec       q    Type
REMARK                         _______ _______ _______ _____ _____    ______ ____
ROOT
ATOM      1  C   UNL     1       2.267  -1.850  -0.291  0.00  0.00    +0.156 C 
ATOM      2  C   UNL     1       1.087  -2.337  -1.151  0.00  0.00    +0.113 C 
ATOM      3  C   UNL     1       0.023  -3.130  -0.408  0.00  0.00    +0.065 C 
ATOM      4  C   UNL     1      -0.932  -3.882  -1.230  0.00  0.00    +0.040 A 
ATOM      5  C   UNL     1      -2.135  -4.352  -0.705  0.00  0.00    +0.033 A 
ATOM      6  C   UNL     1      -3.000  -5.064  -1.512  0.00  0.00    +0.042 A 
ATOM      7  C   UNL     1      -2.672  -5.309  -2.837  0.00  0.00    +0.023 A 
ATOM      8  C   UNL     1      -1.484  -4.845  -3.367  0.00  0.00    +0.048 A 
ATOM      9  C   UNL     1      -0.603  -4.123  -2.576  0.00  0.00    +0.130 A 
ATOM     10  O   UNL     1       0.554  -3.654  -3.102  0.00  0.00    -0.483 OA
ATOM     11  C   UNL     1       1.621  -3.283  -2.226  0.00  0.00    +0.216 C 
ATOM     12 CL   UNL     1      -4.500  -5.653  -0.868  0.00  0.00    -0.084 Cl
ATOM     13  N   UNL     1       0.032  -3.170   0.882  0.00  0.00    -0.215 NA
ATOM     14  C   UNL     1       1.000  -2.630   1.663  0.00  0.00    +0.249 A 
ATOM     15  N   UNL     1       2.095  -2.013   1.161  0.00  0.00    -0.221 N 
ATOM     16  N   UNL     1       2.881  -1.629   2.254  0.00  0.00    -0.156 NA
ATOM     17  C   UNL     1       2.231  -1.986   3.332  0.00  0.00    +0.247 A 
ATOM     18  N   UNL     1       1.105  -2.584   2.987  0.00  0.00    -0.198 NA
ENDROOT
BRANCH   1  23
ATOM     19  C   UNL     1       1.710   1.875  -0.553  0.00  0.00    +0.001 A 
ATOM     20  C   UNL     1       2.903   2.295  -1.111  0.00  0.00    +0.003 A 
ATOM     21  C   UNL     1       3.891   1.375  -1.403  0.00  0.00    +0.039 A 
ATOM     22  C   UNL     1       3.687   0.032  -1.138  0.00  0.00    +0.129 A 
ATOM     23  C   UNL     1       2.492  -0.389  -0.580  0.00  0.00    +0.013 A 
ATOM     24  C   UNL     1       1.504   0.534  -0.288  0.00  0.00    +0.008 A 
ATOM     25  F   UNL     1       4.652  -0.869  -1.424  0.00  0.00    -0.205 F 
ENDBRANCH   1  23
BRANCH  11  26
ATOM     26  C   UNL     1       2.189  -4.517  -1.573  0.00  0.00    +0.012 A 
ATOM     27  C   UNL     1       1.346  -5.537  -1.174  0.00  0.00    +0.009 A 
ATOM     28  C   UNL     1       1.867  -6.670  -0.576  0.00  0.00    +0.000 A 
ATOM     29  C   UNL     1       3.230  -6.782  -0.376  0.00  0.00    +0.001 A 
ATOM     30  C   UNL     1       4.074  -5.762  -0.775  0.00  0.00    +0.020 A 
ATOM     31  C   UNL     1       3.554  -4.631  -1.379  0.00  0.00    +0.048 A 
ATOM     32 CL   UNL     1       4.613  -3.353  -1.887  0.00  0.00    -0.083 Cl
ENDBRANCH  11  26
TORSDOF 2
