REMARK  Name = ZINC22913153
REMARK  12 active torsions:
REMARK  status: ('A' for Active; 'I' for Inactive)
REMARK    1  A    between atoms: C_1  and  C_2
REMARK    2  A    between atoms: C_2  and  C_4
REMARK    3  A    between atoms: C_2  and  N_16
REMARK    4  A    between atoms: N_6  and  C_7
REMARK    5  A    between atoms: C_10  and  C_13
REMARK    6  A    between atoms: C_13  and  C_15
REMARK    7  A    between atoms: N_20  and  C_23
REMARK    8  A    between atoms: C_23  and  C_25
REMARK    9  A    between atoms: C_23  and  C_26
REMARK   10  A    between atoms: N_28  and  C_29
REMARK   11  A    between atoms: C_32  and  C_35
REMARK   12  A    between atoms: C_35  and  C_37
REMARK                            x       y       z     vdW  Elec       q    Type
REMARK                         _______ _______ _______ _____ _____    ______ ____
ROOT
ATOM      1  N   UNL     1       4.101  -4.218  -2.825  0.00  0.00    +0.388 N 
ATOM      2  C   UNL     1       5.251  -4.051  -3.740  0.00  0.00    -0.076 C 
ATOM      3  C   UNL     1       6.515  -4.021  -2.918  0.00  0.00    -0.003 C 
ATOM      4  C   UNL     1       7.145  -5.415  -2.775  0.00  0.00    +0.083 C 
ATOM      5  N   UNL     1       6.134  -6.471  -2.535  0.00  0.00    -0.294 NA
ATOM      6  C   UNL     1       5.096  -6.085  -1.607  0.00  0.00    +0.066 C 
ATOM      7  C   UNL     1       3.894  -5.537  -2.402  0.00  0.00    -0.062 C 
ATOM      8  H   UNL     1       4.346  -3.704  -1.884  0.00  0.00    -0.081 HD
ENDROOT
BRANCH   1  10
ATOM      9  C   UNL     1       2.524  -4.419  -4.688  0.00  0.00    -0.004 C 
ATOM     10  C   UNL     1       2.877  -3.655  -3.410  0.00  0.00    +0.016 C 
BRANCH  10  11
ATOM     11  C   UNL     1       3.100  -2.201  -3.740  0.00  0.00    +0.203 C 
ATOM     12  O   UNL     1       4.173  -1.685  -3.510  0.00  0.00    -0.277 OA
ATOM     13  N   UNL     1       2.107  -1.475  -4.290  0.00  0.00    -0.287 N 
ATOM     14  H   UNL     1       1.115  -1.925  -4.441  0.00  0.00    +0.155 HD
BRANCH  13  15
ATOM     15  C   UNL     1       2.337  -0.153  -4.667  0.00  0.00    +0.033 A 
ATOM     16  C   UNL     1       1.727   0.359  -5.808  0.00  0.00    +0.024 A 
ATOM     17  C   UNL     1       1.950   1.659  -6.183  0.00  0.00    +0.013 A 
ATOM     18  C   UNL     1       2.794   2.471  -5.415  0.00  0.00    +0.017 A 
ATOM     19  C   UNL     1       3.406   1.952  -4.268  0.00  0.00    +0.013 A 
ATOM     20  C   UNL     1       3.176   0.651  -3.901  0.00  0.00    +0.024 A 
BRANCH  18  21
ATOM     21  C   UNL     1       3.037   3.864  -5.812  0.00  0.00    +0.160 C 
ATOM     22  O   UNL     1       2.506   4.312  -6.806  0.00  0.00    -0.292 OA
ATOM     23  C   UNL     1       3.945   4.736  -4.985  0.00  0.00    +0.091 C 
ENDBRANCH  18  21
ENDBRANCH  13  15
ENDBRANCH  10  11
ENDBRANCH   1  10
BRANCH   5  24
ATOM     24  C   UNL     1       6.773  -7.726  -2.119  0.00  0.00    +0.140 C 
ATOM     25  C   UNL     1       7.159  -7.637  -0.641  0.00  0.00    +0.034 C 
BRANCH  24  26
ATOM     26  C   UNL     1       5.812  -8.870  -2.319  0.00  0.00    +0.234 C 
ATOM     27  O   UNL     1       4.641  -8.645  -2.544  0.00  0.00    -0.274 OA
ATOM     28  N   UNL     1       6.253 -10.141  -2.248  0.00  0.00    -0.284 N 
ATOM     29  H   UNL     1       7.296 -10.347  -1.969  0.00  0.00    +0.155 HD
BRANCH  28  30
ATOM     30  C   UNL     1       5.386 -11.195  -2.528  0.00  0.00    +0.033 A 
ATOM     31  C   UNL     1       5.857 -12.322  -3.195  0.00  0.00    +0.024 A 
ATOM     32  C   UNL     1       5.009 -13.364  -3.468  0.00  0.00    +0.013 A 
ATOM     33  C   UNL     1       3.664 -13.289  -3.084  0.00  0.00    +0.017 A 
ATOM     34  C   UNL     1       3.194 -12.151  -2.417  0.00  0.00    +0.013 A 
ATOM     35  C   UNL     1       4.050 -11.116  -2.144  0.00  0.00    +0.024 A 
BRANCH  33  36
ATOM     36  C   UNL     1       2.751 -14.400  -3.379  0.00  0.00    +0.160 C 
ATOM     37  O   UNL     1       1.566 -14.290  -3.146  0.00  0.00    -0.292 OA
ATOM     38  C   UNL     1       3.286 -15.679  -3.972  0.00  0.00    +0.091 C 
ENDBRANCH  33  36
ENDBRANCH  28  30
ENDBRANCH  24  26
ENDBRANCH   5  24
TORSDOF 8
