REMARK  Name = ZINC05350823
REMARK  9 active torsions:
REMARK  status: ('A' for Active; 'I' for Inactive)
REMARK    1  A    between atoms: C_1  and  C_2
REMARK    2  A    between atoms: C_5  and  C_8
REMARK    3  A    between atoms: C_8  and  N_9
REMARK    4  A    between atoms: C_17  and  S_18
REMARK    5  A    between atoms: S_18  and  C_19
REMARK    6  A    between atoms: C_19  and  C_20
REMARK    7  A    between atoms: N_22  and  N_23
REMARK    8  A    between atoms: C_24  and  C_25
REMARK    9  A    between atoms: C_24  and  C_26
REMARK                            x       y       z     vdW  Elec       q    Type
REMARK                         _______ _______ _______ _____ _____    ______ ____
ROOT
ATOM      1  N   UNL     1      -6.540   1.218   0.045  0.00  0.00    -0.314 N 
ATOM      2  C   UNL     1      -7.272   0.042   0.036  0.00  0.00    +0.070 A 
ATOM      3  C   UNL     1      -8.629  -0.246   0.041  0.00  0.00    +0.028 A 
ATOM      4  C   UNL     1      -9.052  -1.559   0.036  0.00  0.00    +0.002 A 
ATOM      5  C   UNL     1      -8.130  -2.595   0.027  0.00  0.00    +0.002 A 
ATOM      6  C   UNL     1      -6.779  -2.328   0.022  0.00  0.00    +0.030 A 
ATOM      7  C   UNL     1      -6.334  -1.003   0.027  0.00  0.00    +0.090 A 
ATOM      8  N   UNL     1      -5.100  -0.434   0.024  0.00  0.00    -0.222 NA
ATOM      9  C   UNL     1      -5.218   0.872   0.032  0.00  0.00    +0.171 A 
ENDROOT
BRANCH   1  10
ATOM     10  C   UNL     1      -7.082   2.579   0.062  0.00  0.00    +0.159 C 
BRANCH  10  15
ATOM     11  C   UNL     1      -7.839   4.419  -5.363  0.00  0.00    +0.044 C 
ATOM     12  C   UNL     1      -7.642   3.939  -3.948  0.00  0.00    -0.050 A 
ATOM     13  C   UNL     1      -8.663   3.276  -3.294  0.00  0.00    +0.004 A 
ATOM     14  C   UNL     1      -8.482   2.836  -1.996  0.00  0.00    +0.005 A 
ATOM     15  C   UNL     1      -7.279   3.059  -1.353  0.00  0.00    -0.028 A 
ATOM     16  C   UNL     1      -6.260   3.727  -2.004  0.00  0.00    +0.005 A 
ATOM     17  C   UNL     1      -6.439   4.163  -3.304  0.00  0.00    +0.004 A 
ENDBRANCH  10  15
ENDBRANCH   1  10
BRANCH   9  18
ATOM     18  S   UNL     1      -3.874   2.010   0.031  0.00  0.00    -0.078 S 
BRANCH  18  19
ATOM     19  C   UNL     1      -2.482   0.853   0.018  0.00  0.00    +0.174 C 
BRANCH  19  20
ATOM     20  C   UNL     1      -1.187   1.624   0.017  0.00  0.00    +0.242 C 
ATOM     21  O   UNL     1      -1.204   2.837   0.023  0.00  0.00    -0.273 OA
ATOM     22  N   UNL     1      -0.011   0.966   0.007  0.00  0.00    -0.206 N 
ATOM     23  H   UNL     1       0.002  -0.004   0.002  0.00  0.00    +0.177 HD
BRANCH  22  24
ATOM     24  N   UNL     1       1.193   1.683  -0.000  0.00  0.00    -0.185 NA
ATOM     25  C   UNL     1       2.325   1.049  -0.015  0.00  0.00    +0.063 C 
ATOM     26  C   UNL     1       2.345  -0.458  -0.023  0.00  0.00    +0.068 C 
BRANCH  25  27
ATOM     27  C   UNL     1       3.592   1.804  -0.022  0.00  0.00    -0.002 A 
ATOM     28  C   UNL     1       4.813   1.125  -0.032  0.00  0.00    +0.011 A 
ATOM     29  C   UNL     1       5.994   1.837  -0.045  0.00  0.00    +0.016 A 
ATOM     30  C   UNL     1       5.972   3.221  -0.037  0.00  0.00    +0.018 A 
ATOM     31  C   UNL     1       4.765   3.901  -0.022  0.00  0.00    +0.016 A 
ATOM     32  C   UNL     1       3.576   3.201  -0.015  0.00  0.00    +0.011 A 
ATOM     33 BR   UNL     1       7.596   4.189  -0.046  0.00  0.00    -0.050 Br
ENDBRANCH  25  27
ENDBRANCH  22  24
ENDBRANCH  19  20
ENDBRANCH  18  19
ENDBRANCH   9  18
TORSDOF 7
