REMARK  Name = ZINC40095209
REMARK  10 active torsions:
REMARK  status: ('A' for Active; 'I' for Inactive)
REMARK    1  A    between atoms: C_1  and  C_2
REMARK    2  A    between atoms: C_7  and  C_12
REMARK    3  A    between atoms: C_12  and  C_14
REMARK    4  A    between atoms: N_18  and  C_29
REMARK    5  A    between atoms: C_19  and  C_21
REMARK    6  A    between atoms: C_29  and  C_30
REMARK    7  A    between atoms: C_30  and  O_31
REMARK    8  A    between atoms: O_31  and  C_32
REMARK    9  A    between atoms: C_32  and  C_33
REMARK   10  A    between atoms: C_33  and  O_34
REMARK                            x       y       z     vdW  Elec       q    Type
REMARK                         _______ _______ _______ _____ _____    ______ ____
ROOT
ATOM      1  C   UNL     1       7.233  -1.323  -0.414  0.00  0.00    +0.076 C 
ATOM      2  C   UNL     1       8.509  -1.387  -0.859  0.00  0.00    +0.249 C 
ATOM      3  C   UNL     1       9.428  -1.371   0.298  0.00  0.00    +0.288 C 
ATOM      4  O   UNL     1      10.640  -1.417   0.227  0.00  0.00    -0.266 OA
ATOM      5  N   UNL     1       8.724  -1.299   1.443  0.00  0.00    -0.281 N 
ATOM      6  C   UNL     1       7.299  -1.256   1.094  0.00  0.00    +0.148 C 
ATOM      7  O   UNL     1       8.884  -1.454  -2.157  0.00  0.00    -0.282 OA
ENDROOT
BRANCH   6   8
ATOM      8  C   UNL     1       6.586  -2.439   1.697  0.00  0.00    +0.014 A 
ATOM      9  C   UNL     1       7.167  -3.694   1.652  0.00  0.00    +0.048 A 
ATOM     10  C   UNL     1       6.511  -4.779   2.206  0.00  0.00    +0.020 A 
ATOM     11  C   UNL     1       5.276  -4.610   2.803  0.00  0.00    +0.003 A 
ATOM     12  C   UNL     1       4.695  -3.356   2.848  0.00  0.00    +0.020 A 
ATOM     13  C   UNL     1       5.353  -2.269   2.300  0.00  0.00    +0.048 A 
ATOM     14 CL   UNL     1       4.627  -0.694   2.363  0.00  0.00    -0.083 Cl
ATOM     15 CL   UNL     1       8.717  -3.906   0.902  0.00  0.00    -0.083 Cl
ENDBRANCH   6   8
BRANCH   1  16
ATOM     16  C   UNL     1       6.019  -1.314  -1.237  0.00  0.00    +0.195 C 
ATOM     17  O   UNL     1       5.711  -2.302  -1.878  0.00  0.00    -0.287 OA
BRANCH  16  23
ATOM     18  C   UNL     1       2.328   3.413  -3.936  0.00  0.00    +0.052 C 
ATOM     19  C   UNL     1       1.779   2.826  -2.633  0.00  0.00    +0.175 C 
ATOM     20  C   UNL     1       1.829   1.280  -2.665  0.00  0.00    +0.083 C 
ATOM     21  C   UNL     1       3.169   0.997  -2.014  0.00  0.00    -0.002 A 
ATOM     22  C   UNL     1       3.950  -0.131  -1.972  0.00  0.00    +0.019 A 
ATOM     23  C   UNL     1       5.171  -0.107  -1.289  0.00  0.00    +0.023 A 
ATOM     24  C   UNL     1       5.582   1.071  -0.655  0.00  0.00    +0.015 A 
ATOM     25  C   UNL     1       4.789   2.192  -0.701  0.00  0.00    +0.046 A 
ATOM     26  C   UNL     1       3.569   2.169  -1.379  0.00  0.00    +0.124 A 
ATOM     27  O   UNL     1       2.636   3.154  -1.527  0.00  0.00    -0.488 OA
ENDBRANCH  16  23
ENDBRANCH   1  16
BRANCH   5  28
ATOM     28  C   UNL     1       9.282  -1.264   2.797  0.00  0.00    +0.137 C 
BRANCH  28  29
ATOM     29  C   UNL     1       9.527   0.189   3.210  0.00  0.00    +0.179 C 
BRANCH  29  30
ATOM     30  O   UNL     1       8.278   0.877   3.297  0.00  0.00    -0.376 OA
BRANCH  30  31
ATOM     31  C   UNL     1       8.395   2.249   3.678  0.00  0.00    +0.187 C 
BRANCH  31  32
ATOM     32  C   UNL     1       7.004   2.882   3.739  0.00  0.00    +0.184 C 
BRANCH  32  33
ATOM     33  O   UNL     1       6.245   2.265   4.781  0.00  0.00    -0.393 OA
ATOM     34  H   UNL     1       5.349   2.617   4.877  0.00  0.00    +0.209 HD
ENDBRANCH  32  33
ENDBRANCH  31  32
ENDBRANCH  30  31
ENDBRANCH  29  30
ENDBRANCH  28  29
ENDBRANCH   5  28
TORSDOF 9
