REMARK  Name = ZINC65272178
REMARK  2 active torsions:
REMARK  status: ('A' for Active; 'I' for Inactive)
REMARK    1  A    between atoms: C_3  and  C_24
REMARK    2  A    between atoms: C_13  and  C_16
REMARK                            x       y       z     vdW  Elec       q    Type
REMARK                         _______ _______ _______ _____ _____    ______ ____
ROOT
ATOM      1  C   UNL     1      -0.016   1.410   0.007  0.00  0.00    +0.032 A 
ATOM      2  C   UNL     1       1.165   2.092  -0.007  0.00  0.00    +0.030 A 
ATOM      3  C   UNL     1       2.381   1.405  -0.037  0.00  0.00    +0.073 A 
ATOM      4  N   UNL     1       2.392   0.075  -0.051  0.00  0.00    -0.238 NA
ATOM      5  C   UNL     1       1.278  -0.610  -0.038  0.00  0.00    +0.130 A 
ATOM      6  C   UNL     1      -0.001  -0.005  -0.008  0.00  0.00    +0.099 A 
ATOM      7  N   UNL     1      -1.052  -0.853   0.002  0.00  0.00    -0.223 NA
ATOM      8  C   UNL     1      -0.905  -2.158  -0.015  0.00  0.00    +0.163 A 
ATOM      9  S   UNL     1       0.873  -2.341  -0.050  0.00  0.00    -0.033 S 
ATOM     10  N   UNL     1      -1.875  -3.139  -0.007  0.00  0.00    -0.310 N 
ATOM     11  C   UNL     1      -3.300  -2.781   0.018  0.00  0.00    +0.108 C 
ATOM     12  C   UNL     1      -3.970  -3.505   1.190  0.00  0.00    +0.032 C 
ATOM     13  C   UNL     1      -3.701  -5.007   1.078  0.00  0.00    +0.078 C 
ATOM     14  C   UNL     1      -2.194  -5.264   1.149  0.00  0.00    +0.032 C 
ATOM     15  C   UNL     1      -1.504  -4.560  -0.029  0.00  0.00    +0.108 C 
ENDROOT
BRANCH  13  16
ATOM     16  C   UNL     1      -4.387  -5.726   2.211  0.00  0.00    +0.219 C 
ATOM     17  O   UNL     1      -4.473  -5.199   3.300  0.00  0.00    -0.275 OA
ATOM     18  N   UNL     1      -4.905  -6.955   2.014  0.00  0.00    -0.301 N 
ATOM     19  C   UNL     1      -4.701  -7.658   0.740  0.00  0.00    +0.108 C 
ATOM     20  C   UNL     1      -4.110  -9.041   1.029  0.00  0.00    +0.019 C 
ATOM     21  C   UNL     1      -5.014  -9.781   2.017  0.00  0.00    +0.003 C 
ATOM     22  C   UNL     1      -5.082  -9.001   3.332  0.00  0.00    +0.019 C 
ATOM     23  C   UNL     1      -5.678  -7.619   3.071  0.00  0.00    +0.108 C 
ENDBRANCH  13  16
BRANCH   3  24
ATOM     24  C   UNL     1       3.657   2.158  -0.053  0.00  0.00    +0.007 A 
ATOM     25  C   UNL     1       4.873   1.495  -0.192  0.00  0.00    +0.017 A 
ATOM     26  C   UNL     1       6.016   2.217  -0.203  0.00  0.00    +0.046 A 
ATOM     27  S   UNL     1       5.413   3.886  -0.014  0.00  0.00    -0.104 S 
ATOM     28  C   UNL     1       3.667   3.521   0.062  0.00  0.00    +0.055 A 
ENDBRANCH   3  24
TORSDOF 2
