REMARK  Name = ZINC01066048
REMARK  10 active torsions:
REMARK  status: ('A' for Active; 'I' for Inactive)
REMARK    1  A    between atoms: C_1  and  C_2
REMARK    2  A    between atoms: C_3  and  C_31
REMARK    3  A    between atoms: C_4  and  C_25
REMARK    4  A    between atoms: C_10  and  C_15
REMARK    5  A    between atoms: C_18  and  C_21
REMARK    6  A    between atoms: C_21  and  C_22
REMARK    7  A    between atoms: C_21  and  C_23
REMARK    8  A    between atoms: C_21  and  C_24
REMARK    9  A    between atoms: C_31  and  O_33
REMARK   10  A    between atoms: O_33  and  C_34
REMARK                            x       y       z     vdW  Elec       q    Type
REMARK                         _______ _______ _______ _____ _____    ______ ____
ROOT
ATOM      1  C   UNL     1       2.293  -0.840 -10.717  0.00  0.00    +0.061 C 
ATOM      2  C   UNL     1       2.798  -1.627  -9.535  0.00  0.00    +0.016 C 
ATOM      3  C   UNL     1       3.405  -2.810  -9.731  0.00  0.00    +0.065 C 
ATOM      4  C   UNL     1       3.927  -3.618  -8.579  0.00  0.00    +0.092 C 
ATOM      5  C   UNL     1       3.314  -3.164  -7.278  0.00  0.00    +0.024 C 
ATOM      6  C   UNL     1       2.710  -1.960  -7.183  0.00  0.00    +0.016 C 
ATOM      7  N   UNL     1       2.636  -1.132  -8.271  0.00  0.00    -0.321 N 
ATOM      8  C   UNL     1       2.098  -1.498  -5.884  0.00  0.00    +0.059 C 
ATOM      9  C   UNL     1       2.873  -2.100  -4.709  0.00  0.00    +0.032 C 
ATOM     10  C   UNL     1       2.832  -3.627  -4.832  0.00  0.00    +0.088 C 
ATOM     11  C   UNL     1       3.395  -4.025  -6.169  0.00  0.00    +0.162 C 
ATOM     12  O   UNL     1       3.928  -5.109  -6.294  0.00  0.00    -0.292 OA
ATOM     13  H   UNL     1       2.445  -0.060  -8.120  0.00  0.00    +0.152 HD
ENDROOT
BRANCH   9  14
ATOM     14  C   UNL     1       2.232  -1.679  -3.412  0.00  0.00    -0.043 A 
ATOM     15  C   UNL     1       2.958  -0.957  -2.484  0.00  0.00    +0.004 A 
ATOM     16  C   UNL     1       2.370  -0.571  -1.294  0.00  0.00    +0.004 A 
ATOM     17  C   UNL     1       1.056  -0.907  -1.032  0.00  0.00    -0.042 A 
ATOM     18  C   UNL     1       0.330  -1.635  -1.957  0.00  0.00    +0.004 A 
ATOM     19  C   UNL     1       0.916  -2.015  -3.150  0.00  0.00    +0.004 A 
BRANCH  17  20
ATOM     20  C   UNL     1       0.414  -0.487   0.266  0.00  0.00    -0.013 C 
ATOM     21  C   UNL     1       0.434   1.039   0.374  0.00  0.00    +0.015 C 
ATOM     22  C   UNL     1       1.191  -1.091   1.438  0.00  0.00    +0.015 C 
ATOM     23  C   UNL     1      -1.032  -0.983   0.304  0.00  0.00    +0.015 C 
ENDBRANCH  17  20
ENDBRANCH   9  14
BRANCH   4  24
ATOM     24  C   UNL     1       5.424  -3.461  -8.503  0.00  0.00    -0.032 A 
ATOM     25  C   UNL     1       5.997  -2.216  -8.291  0.00  0.00    +0.024 A 
ATOM     26  C   UNL     1       7.373  -2.111  -8.222  0.00  0.00    +0.111 A 
ATOM     27  N   UNL     1       8.139  -3.175  -8.366  0.00  0.00    -0.263 NA
ATOM     28  C   UNL     1       7.628  -4.374  -8.573  0.00  0.00    +0.111 A 
ATOM     29  C   UNL     1       6.261  -4.556  -8.649  0.00  0.00    +0.024 A 
ENDBRANCH   4  24
BRANCH   3  30
ATOM     30  C   UNL     1       3.554  -3.304 -11.048  0.00  0.00    +0.337 C 
ATOM     31  O   UNL     1       3.044  -2.712 -11.981  0.00  0.00    -0.245 OA
BRANCH  30  32
ATOM     32  O   UNL     1       4.261  -4.431 -11.270  0.00  0.00    -0.465 OA
ATOM     33  C   UNL     1       4.371  -4.872 -12.625  0.00  0.00    +0.280 C 
ENDBRANCH  30  32
ENDBRANCH   3  30
TORSDOF 5
