REMARK  Name = ZINC62094444
REMARK  8 active torsions:
REMARK  status: ('A' for Active; 'I' for Inactive)
REMARK    1  A    between atoms: C_1  and  C_2
REMARK    2  A    between atoms: C_2  and  C_3
REMARK    3  A    between atoms: C_3  and  C_5
REMARK    4  A    between atoms: C_3  and  C_12
REMARK    5  A    between atoms: N_14  and  C_15
REMARK    6  A    between atoms: C_15  and  C_16
REMARK    7  A    between atoms: C_16  and  C_17
REMARK    8  A    between atoms: C_22  and  C_29
REMARK                            x       y       z     vdW  Elec       q    Type
REMARK                         _______ _______ _______ _____ _____    ______ ____
ROOT
ATOM      1  C   UNL     1      -2.700   1.196  -3.123  0.00  0.00    +0.109 C 
ENDROOT
BRANCH   1   4
ATOM      2  C   UNL     1      -2.040  -0.353  -1.360  0.00  0.00    +0.220 C 
ATOM      3  O   UNL     1      -2.442  -1.266  -2.050  0.00  0.00    -0.275 OA
ATOM      4  N   UNL     1      -2.166   0.920  -1.786  0.00  0.00    -0.314 N 
ATOM      5  H   UNL     1      -1.903   1.653  -1.208  0.00  0.00    +0.149 HD
BRANCH   2   6
ATOM      6  C   UNL     1      -1.400  -0.641  -0.027  0.00  0.00    +0.105 C 
BRANCH   6   7
ATOM      7  C   UNL     1      -1.339  -2.131   0.189  0.00  0.00    -0.035 A 
ATOM      8  C   UNL     1      -0.634  -2.928  -0.694  0.00  0.00    +0.007 A 
ATOM      9  C   UNL     1      -0.577  -4.295  -0.497  0.00  0.00    +0.038 A 
ATOM     10  C   UNL     1      -1.225  -4.866   0.586  0.00  0.00    +0.123 A 
ATOM     11  C   UNL     1      -1.930  -4.066   1.469  0.00  0.00    +0.038 A 
ATOM     12  C   UNL     1      -1.982  -2.699   1.273  0.00  0.00    +0.007 A 
ATOM     13  F   UNL     1      -1.170  -6.202   0.779  0.00  0.00    -0.205 F 
ENDBRANCH   6   7
BRANCH   6  15
ATOM     14  C   UNL     1       0.614  -0.230   1.393  0.00  0.00    +0.005 C 
ATOM     15  C   UNL     1       0.016  -0.064  -0.005  0.00  0.00    +0.014 C 
ENDBRANCH   6  15
ENDBRANCH   2   6
ENDBRANCH   1   4
BRANCH   1  16
ATOM     16  C   UNL     1      -2.737   2.707  -3.355  0.00  0.00    +0.059 C 
BRANCH  16  17
ATOM     17  C   UNL     1      -3.286   2.991  -4.729  0.00  0.00    +0.019 A 
ATOM     18  C   UNL     1      -4.604   3.265  -4.887  0.00  0.00    +0.019 A 
ATOM     19  C   UNL     1      -5.106   3.537  -6.236  0.00  0.00    -0.001 A 
ATOM     20  C   UNL     1      -6.456   3.826  -6.461  0.00  0.00    +0.010 A 
ATOM     21  C   UNL     1      -6.892   4.075  -7.731  0.00  0.00    +0.004 A 
ATOM     22  C   UNL     1      -6.008   4.044  -8.801  0.00  0.00    -0.048 A 
ATOM     23  C   UNL     1      -4.674   3.760  -8.602  0.00  0.00    +0.029 A 
ATOM     24  C   UNL     1      -4.206   3.504  -7.317  0.00  0.00    +0.049 A 
ATOM     25  N   UNL     1      -2.877   3.219  -7.090  0.00  0.00    -0.322 N 
ATOM     26  H   UNL     1      -2.258   3.197  -7.837  0.00  0.00    +0.169 HD
ATOM     27  C   UNL     1      -2.424   2.976  -5.847  0.00  0.00    +0.252 A 
ATOM     28  O   UNL     1      -1.242   2.733  -5.683  0.00  0.00    -0.268 OA
ATOM     29  C   UNL     1      -6.512   4.321 -10.194  0.00  0.00    +0.044 C 
ENDBRANCH  16  17
ENDBRANCH   1  16
TORSDOF 6
