REMARK  Name = ZINC07363770
REMARK  6 active torsions:
REMARK  status: ('A' for Active; 'I' for Inactive)
REMARK    1  A    between atoms: C_1  and  C_2
REMARK    2  A    between atoms: C_5  and  C_8
REMARK    3  A    between atoms: C_8  and  N_9
REMARK    4  A    between atoms: C_10  and  C_21
REMARK    5  A    between atoms: C_25  and  O_27
REMARK    6  A    between atoms: O_27  and  C_28
REMARK                            x       y       z     vdW  Elec       q    Type
REMARK                         _______ _______ _______ _____ _____    ______ ____
ROOT
ATOM      1  N   UNL     1       0.890  -2.890  -1.596  0.00  0.00    -0.271 N 
ATOM      2  C   UNL     1      -0.424  -2.986  -2.231  0.00  0.00    +0.193 C 
ATOM      3  N   UNL     1      -0.418  -4.025  -3.264  0.00  0.00    -0.321 N 
ATOM      4  C   UNL     1       0.664  -4.094  -4.134  0.00  0.00    +0.041 A 
ATOM      5  C   UNL     1       0.534  -4.564  -5.429  0.00  0.00    +0.024 A 
ATOM      6  C   UNL     1       1.640  -4.603  -6.256  0.00  0.00    +0.002 A 
ATOM      7  C   UNL     1       2.877  -4.176  -5.799  0.00  0.00    +0.001 A 
ATOM      8  C   UNL     1       3.024  -3.707  -4.510  0.00  0.00    +0.015 A 
ATOM      9  C   UNL     1       1.918  -3.663  -3.665  0.00  0.00    +0.058 A 
ATOM     10  C   UNL     1       2.019  -3.175  -2.278  0.00  0.00    +0.250 C 
ATOM     11  O   UNL     1       3.107  -3.031  -1.755  0.00  0.00    -0.270 OA
ATOM     12  H   UNL     1      -1.154  -4.653  -3.337  0.00  0.00    +0.148 HD
ENDROOT
BRANCH   2  13
ATOM     13  C   UNL     1      -0.770  -1.662  -2.864  0.00  0.00    -0.002 A 
ATOM     14  C   UNL     1      -1.963  -1.039  -2.550  0.00  0.00    +0.056 A 
ATOM     15  C   UNL     1      -2.284   0.182  -3.125  0.00  0.00    +0.166 A 
ATOM     16  C   UNL     1      -1.408   0.774  -4.025  0.00  0.00    +0.204 A 
ATOM     17  C   UNL     1      -0.211   0.141  -4.343  0.00  0.00    +0.166 A 
ATOM     18  C   UNL     1       0.104  -1.077  -3.760  0.00  0.00    +0.056 A 
ATOM     19  O   UNL     1      -1.704   1.973  -4.600  0.00  0.00    -0.482 OA
ATOM     20  C   UNL     1      -3.071   2.395  -4.543  0.00  0.00    +0.270 C 
ATOM     21  C   UNL     1      -3.582   2.175  -3.113  0.00  0.00    +0.270 C 
ATOM     22  O   UNL     1      -3.463   0.782  -2.804  0.00  0.00    -0.485 OA
BRANCH  17  23
ATOM     23  O   UNL     1       0.650   0.717  -5.224  0.00  0.00    -0.491 OA
ATOM     24  C   UNL     1       1.800  -0.044  -5.598  0.00  0.00    +0.277 C 
ENDBRANCH  17  23
ENDBRANCH   2  13
BRANCH   1  25
ATOM     25  C   UNL     1       0.983  -2.482  -0.192  0.00  0.00    +0.145 C 
BRANCH  25  30
ATOM     26  C   UNL     1       1.425   3.271   0.121  0.00  0.00    +0.044 C 
ATOM     27  C   UNL     1       1.310   1.770   0.040  0.00  0.00    -0.050 A 
ATOM     28  C   UNL     1       0.072   1.165   0.155  0.00  0.00    +0.003 A 
ATOM     29  C   UNL     1      -0.034  -0.211   0.080  0.00  0.00    +0.005 A 
ATOM     30  C   UNL     1       1.098  -0.982  -0.110  0.00  0.00    -0.030 A 
ATOM     31  C   UNL     1       2.335  -0.377  -0.226  0.00  0.00    +0.005 A 
ATOM     32  C   UNL     1       2.441   1.000  -0.151  0.00  0.00    +0.003 A 
ENDBRANCH  25  30
ENDBRANCH   1  25
TORSDOF 4
