REMARK  Name = ZINC00874970
REMARK  9 active torsions:
REMARK  status: ('A' for Active; 'I' for Inactive)
REMARK    1  A    between atoms: C_1  and  C_2
REMARK    2  A    between atoms: C_2  and  N_3
REMARK    3  A    between atoms: N_3  and  C_4
REMARK    4  A    between atoms: C_4  and  N_6
REMARK    5  A    between atoms: N_6  and  C_7
REMARK    6  A    between atoms: N_6  and  C_22
REMARK    7  A    between atoms: C_7  and  C_8
REMARK    8  A    between atoms: C_11  and  C_21
REMARK    9  A    between atoms: C_13  and  C_20
REMARK                            x       y       z     vdW  Elec       q    Type
REMARK                         _______ _______ _______ _____ _____    ______ ____
ROOT
ATOM      1  C   UNL     1      -2.516   1.332   1.681  0.00  0.00    +0.035 A 
ATOM      2  C   UNL     1      -3.296   2.093   2.487  0.00  0.00    +0.020 A 
ATOM      3  C   UNL     1      -3.424   1.715   3.896  0.00  0.00    +0.002 A 
ATOM      4  C   UNL     1      -4.215   2.461   4.776  0.00  0.00    -0.041 A 
ATOM      5  C   UNL     1      -4.313   2.082   6.085  0.00  0.00    +0.007 A 
ATOM      6  C   UNL     1      -3.636   0.963   6.549  0.00  0.00    -0.048 A 
ATOM      7  C   UNL     1      -2.850   0.213   5.700  0.00  0.00    +0.029 A 
ATOM      8  C   UNL     1      -2.735   0.580   4.363  0.00  0.00    +0.050 A 
ATOM      9  N   UNL     1      -1.958  -0.152   3.491  0.00  0.00    -0.322 N 
ATOM     10  H   UNL     1      -1.467  -0.957   3.825  0.00  0.00    +0.169 HD
ATOM     11  C   UNL     1      -1.851   0.200   2.197  0.00  0.00    +0.254 A 
ATOM     12  O   UNL     1      -1.159  -0.474   1.454  0.00  0.00    -0.268 OA
ATOM     13  C   UNL     1      -3.760   0.563   7.997  0.00  0.00    +0.044 C 
ATOM     14  C   UNL     1      -4.954   3.678   4.283  0.00  0.00    +0.044 C 
ENDROOT
BRANCH   1  15
ATOM     15  C   UNL     1      -2.363   1.693   0.225  0.00  0.00    +0.147 C 
BRANCH  15  16
ATOM     16  N   UNL     1      -1.161   2.513   0.049  0.00  0.00    -0.305 N 
BRANCH  16  17
ATOM     17  C   UNL     1      -1.228   3.963   0.248  0.00  0.00    +0.075 C 
ATOM     18  C   UNL     1      -0.722   4.692  -1.014  0.00  0.00    +0.022 C 
ATOM     19  C   UNL     1       0.044   5.920  -0.462  0.00  0.00    +0.002 C 
ATOM     20  C   UNL     1       0.742   5.349   0.798  0.00  0.00    +0.002 C 
ATOM     21  C   UNL     1      -0.297   4.380   1.399  0.00  0.00    +0.022 C 
ENDBRANCH  16  17
BRANCH  16  22
ATOM     22  C   UNL     1       0.006   1.932  -0.295  0.00  0.00    +0.133 C 
ATOM     23  S   UNL     1       1.428   2.877  -0.420  0.00  0.00    -0.019 S 
BRANCH  22  24
ATOM     24  N   UNL     1       0.054   0.607  -0.535  0.00  0.00    -0.327 N 
ATOM     25  H   UNL     1      -0.734   0.059  -0.395  0.00  0.00    +0.148 HD
BRANCH  24  27
ATOM     26  C   UNL     1       1.083  -1.509  -1.201  0.00  0.00    +0.024 C 
ATOM     27  C   UNL     1       1.297  -0.007  -1.009  0.00  0.00    +0.100 C 
ENDBRANCH  24  27
ENDBRANCH  22  24
ENDBRANCH  16  22
ENDBRANCH  15  16
ENDBRANCH   1  15
TORSDOF 6
