REMARK  Name = ZINC35337447
REMARK  7 active torsions:
REMARK  status: ('A' for Active; 'I' for Inactive)
REMARK    1  A    between atoms: C_1  and  C_2
REMARK    2  A    between atoms: N_14  and  C_20
REMARK    3  A    between atoms: C_20  and  C_21
REMARK    4  A    between atoms: C_23  and  N_30
REMARK    5  A    between atoms: C_24  and  O_29
REMARK    6  A    between atoms: C_25  and  O_27
REMARK    7  A    between atoms: O_27  and  C_28
REMARK                            x       y       z     vdW  Elec       q    Type
REMARK                         _______ _______ _______ _____ _____    ______ ____
ROOT
ATOM      1  C   UNL     1      -0.018   1.503   0.010  0.00  0.00    +0.044 C 
ATOM      2  C   UNL     1       0.002  -0.004   0.002  0.00  0.00    -0.050 A 
ATOM      3  C   UNL     1       0.005  -0.668  -1.214  0.00  0.00    +0.005 A 
ATOM      4  C   UNL     1       0.024  -2.049  -1.301  0.00  0.00    +0.026 A 
ATOM      5  C   UNL     1       0.041  -2.757  -0.101  0.00  0.00    +0.050 A 
ATOM      6  C   UNL     1       0.037  -2.072   1.141  0.00  0.00    +0.004 A 
ATOM      7  C   UNL     1       0.023  -0.675   1.200  0.00  0.00    +0.013 A 
ATOM      8  C   UNL     1       0.056  -3.098   2.162  0.00  0.00    -0.017 A 
ATOM      9  C   UNL     1       0.080  -4.290   1.528  0.00  0.00    +0.040 A 
ATOM     10  N   UNL     1       0.065  -4.097   0.169  0.00  0.00    -0.342 N 
ATOM     11  C   UNL     1       0.079  -5.178  -0.828  0.00  0.00    +0.123 C 
ATOM     12  C   UNL     1      -0.551  -6.432  -0.220  0.00  0.00    +0.037 C 
ATOM     13  C   UNL     1       0.516  -7.251   0.495  0.00  0.00    +0.087 C 
ATOM     14  N   UNL     1       1.101  -6.497   1.605  0.00  0.00    -0.290 NA
ATOM     15  C   UNL     1       0.107  -5.622   2.243  0.00  0.00    +0.104 C 
ATOM     16  C   UNL     1       0.513  -5.385   3.702  0.00  0.00    +0.025 C 
ATOM     17  C   UNL     1      -0.348  -4.268   4.297  0.00  0.00    +0.007 C 
ATOM     18  C   UNL     1       0.048  -2.930   3.661  0.00  0.00    +0.037 C 
ENDROOT
BRANCH  14  19
ATOM     19  C   UNL     1       1.718  -7.398   2.587  0.00  0.00    +0.120 C 
BRANCH  19  20
ATOM     20  C   UNL     1       2.901  -8.090   1.961  0.00  0.00    -0.028 A 
ATOM     21  C   UNL     1       2.727  -9.293   1.303  0.00  0.00    +0.041 A 
ATOM     22  C   UNL     1       3.809  -9.933   0.727  0.00  0.00    +0.171 A 
ATOM     23  C   UNL     1       5.071  -9.367   0.809  0.00  0.00    +0.189 A 
ATOM     24  C   UNL     1       5.246  -8.156   1.471  0.00  0.00    +0.164 A 
ATOM     25  C   UNL     1       4.157  -7.519   2.042  0.00  0.00    +0.054 A 
BRANCH  22  26
ATOM     26  N   UNL     1       3.619 -11.221   0.023  0.00  0.00    +0.060 N 
ATOM     27  O   UNL     1       2.517 -11.714  -0.048  0.00  0.00    -0.126 OA
ATOM     28  O   UNL     1       4.565 -11.780  -0.480  0.00  0.00    -0.126 OA
ENDBRANCH  22  26
BRANCH  24  29
ATOM     29  O   UNL     1       6.483  -7.598   1.554  0.00  0.00    -0.491 OA
ATOM     30  C   UNL     1       6.588  -6.353   2.249  0.00  0.00    +0.277 C 
ENDBRANCH  24  29
BRANCH  23  31
ATOM     31  O   UNL     1       6.137  -9.995   0.243  0.00  0.00    -0.502 OA
ATOM     32  H   UNL     1       6.300  -9.743  -0.676  0.00  0.00    +0.292 HD
ENDBRANCH  23  31
ENDBRANCH  19  20
ENDBRANCH  14  19
TORSDOF 5
