REMARK  Name = ZINC13979619
REMARK  9 active torsions:
REMARK  status: ('A' for Active; 'I' for Inactive)
REMARK    1  A    between atoms: C_3  and  O_9
REMARK    2  A    between atoms: O_9  and  C_10
REMARK    3  A    between atoms: C_10  and  C_11
REMARK    4  A    between atoms: C_11  and  C_12
REMARK    5  A    between atoms: C_12  and  C_13
REMARK    6  A    between atoms: N_15  and  N_16
REMARK    7  A    between atoms: C_17  and  C_19
REMARK    8  A    between atoms: C_19  and  O_20
REMARK    9  A    between atoms: O_20  and  C_21
REMARK                            x       y       z     vdW  Elec       q    Type
REMARK                         _______ _______ _______ _____ _____    ______ ____
ROOT
ATOM      1  C   UNL     1       5.407  -4.043  -0.074  0.00  0.00    +0.229 C 
ATOM      2  O   UNL     1       4.457  -4.796  -0.069  0.00  0.00    -0.274 OA
ATOM      3  N   UNL     1       5.211  -2.709  -0.065  0.00  0.00    -0.234 N 
ATOM      4  H   UNL     1       5.972  -2.107  -0.069  0.00  0.00    +0.173 HD
ENDROOT
BRANCH   3   5
ATOM      5  N   UNL     1       3.909  -2.193  -0.049  0.00  0.00    -0.232 N 
ATOM      6  C   UNL     1       3.713  -0.860  -0.040  0.00  0.00    +0.267 C 
ATOM      7  O   UNL     1       4.664  -0.107  -0.044  0.00  0.00    -0.271 OA
ATOM      8  H   UNL     1       3.148  -2.795  -0.045  0.00  0.00    +0.173 HD
BRANCH   6   9
ATOM      9  C   UNL     1       2.312  -0.304  -0.023  0.00  0.00    +0.326 C 
BRANCH   9  10
ATOM     10  O   UNL     1       2.366   1.124  -0.015  0.00  0.00    -0.482 OA
BRANCH  10  11
ATOM     11  C   UNL     1       1.179   1.786   0.000  0.00  0.00    +0.135 A 
ATOM     12  C   UNL     1      -0.013   1.076   0.008  0.00  0.00    +0.048 A 
ATOM     13  C   UNL     1      -1.218   1.751   0.017  0.00  0.00    +0.023 A 
ATOM     14  C   UNL     1      -1.238   3.134   0.031  0.00  0.00    +0.042 A 
ATOM     15  C   UNL     1      -0.051   3.845   0.023  0.00  0.00    +0.039 A 
ATOM     16  C   UNL     1       1.157   3.174   0.008  0.00  0.00    +0.061 A 
ATOM     17 BR   UNL     1       2.780   4.145  -0.003  0.00  0.00    -0.046 Br
ATOM     18 CL   UNL     1      -2.754   3.979   0.050  0.00  0.00    -0.084 Cl
ENDBRANCH  10  11
ENDBRANCH   9  10
ENDBRANCH   6   9
ENDBRANCH   3   5
BRANCH   1  19
ATOM     19  C   UNL     1       6.808  -4.598  -0.091  0.00  0.00    +0.100 C 
BRANCH  19  20
ATOM     20  C   UNL     1       6.750  -6.127  -0.099  0.00  0.00    +0.050 C 
BRANCH  20  21
ATOM     21  C   UNL     1       8.173  -6.691  -0.117  0.00  0.00    +0.229 C 
BRANCH  21  22
ATOM     22  O   UNL     1       8.119  -8.119  -0.124  0.00  0.00    -0.490 OA
BRANCH  22  25
ATOM     23  C   UNL     1      11.703  -8.747  -0.162  0.00  0.00    +0.023 A 
ATOM     24  C   UNL     1      10.497  -8.072  -0.147  0.00  0.00    +0.048 A 
ATOM     25  C   UNL     1       9.306  -8.781  -0.140  0.00  0.00    +0.139 A 
ATOM     26  C   UNL     1       9.327 -10.170  -0.142  0.00  0.00    +0.084 A 
ATOM     27  C   UNL     1      10.536 -10.841  -0.163  0.00  0.00    +0.043 A 
ATOM     28  C   UNL     1      11.723 -10.130  -0.170  0.00  0.00    +0.043 A 
ATOM     29 CL   UNL     1      13.239 -10.975  -0.189  0.00  0.00    -0.083 Cl
ATOM     30 CL   UNL     1       7.838 -11.062  -0.125  0.00  0.00    -0.080 Cl
ENDBRANCH  22  25
ENDBRANCH  21  22
ENDBRANCH  20  21
ENDBRANCH  19  20
ENDBRANCH   1  19
TORSDOF 9
