REMARK  Name = ZINC13498913
REMARK  12 active torsions:
REMARK  status: ('A' for Active; 'I' for Inactive)
REMARK    1  A    between atoms: C_1  and  C_2
REMARK    2  A    between atoms: C_6  and  C_15
REMARK    3  A    between atoms: C_13  and  C_14
REMARK    4  A    between atoms: C_15  and  N_72
REMARK    5  A    between atoms: C_16  and  N_72
REMARK    6  A    between atoms: C_21  and  C_23
REMARK    7  A    between atoms: C_21  and  C_35
REMARK    8  A    between atoms: C_21  and  N_72
REMARK    9  A    between atoms: N_27  and  C_28
REMARK   10  A    between atoms: C_28  and  C_29
REMARK   11  A    between atoms: C_35  and  C_36
REMARK   12  A    between atoms: C_35  and  C_37
REMARK                            x       y       z     vdW  Elec       q    Type
REMARK                         _______ _______ _______ _____ _____    ______ ____
ROOT
ATOM      1  N   UNL     1      -0.990   1.522   3.300  0.00  0.00    +0.391 N 
ATOM      2  H   UNL     1      -0.767   1.330   4.284  0.00  0.00    -0.080 HD
ENDROOT
BRANCH   1   3
ATOM      3  C   UNL     1       0.025   0.875   2.443  0.00  0.00    -0.067 C 
ATOM      4  C   UNL     1       0.565   1.855   1.372  0.00  0.00    -0.015 C 
ATOM      5  C   UNL     1       1.958   1.264   1.039  0.00  0.00    -0.002 C 
ATOM      6  C   UNL     1       2.492   0.767   2.398  0.00  0.00    -0.002 C 
ATOM      7  C   UNL     1       1.263   0.519   3.290  0.00  0.00    -0.015 C 
ENDBRANCH   1   3
BRANCH   1   8
ATOM      8  C   UNL     1      -0.978   2.984   3.082  0.00  0.00    -0.036 C 
BRANCH   8  14
ATOM      9  C   UNL     1       5.640   6.176   4.357  0.00  0.00    +0.044 C 
ATOM     10  C   UNL     1       4.312   5.661   4.851  0.00  0.00    -0.047 A 
ATOM     11  C   UNL     1       3.427   5.114   3.965  0.00  0.00    +0.013 A 
ATOM     12  C   UNL     1       2.195   4.636   4.423  0.00  0.00    -0.001 A 
ATOM     13  C   UNL     1       1.225   4.040   3.502  0.00  0.00    +0.017 A 
ATOM     14  C   UNL     1       0.044   3.599   4.003  0.00  0.00    +0.001 A 
ATOM     15  C   UNL     1      -0.228   3.707   5.383  0.00  0.00    +0.251 A 
ATOM     16  O   UNL     1      -1.294   3.300   5.812  0.00  0.00    -0.268 OA
ATOM     17  N   UNL     1       0.658   4.249   6.237  0.00  0.00    -0.322 N 
ATOM     18  H   UNL     1       0.439   4.309   7.180  0.00  0.00    +0.169 HD
ATOM     19  C   UNL     1       1.874   4.721   5.791  0.00  0.00    +0.049 A 
ATOM     20  C   UNL     1       2.792   5.282   6.673  0.00  0.00    +0.030 A 
ATOM     21  C   UNL     1       4.000   5.746   6.200  0.00  0.00    -0.046 A 
ATOM     22  C   UNL     1       4.992   6.353   7.158  0.00  0.00    +0.044 C 
ENDBRANCH   8  14
ENDBRANCH   1   8
BRANCH   1  23
ATOM     23  C   UNL     1      -2.330   0.977   2.997  0.00  0.00    +0.006 C 
BRANCH  23  24
ATOM     24  C   UNL     1      -2.372  -0.471   3.414  0.00  0.00    +0.139 A 
ATOM     25  N   UNL     1      -1.440  -1.370   3.215  0.00  0.00    -0.115 NA
ATOM     26  N   UNL     1      -1.848  -2.484   3.716  0.00  0.00    -0.023 NA
ATOM     27  N   UNL     1      -3.017  -2.319   4.229  0.00  0.00    -0.044 NA
ATOM     28  N   UNL     1      -3.373  -1.090   4.068  0.00  0.00    -0.226 N 
BRANCH  28  29
ATOM     29  C   UNL     1      -4.630  -0.482   4.510  0.00  0.00    +0.182 C 
BRANCH  29  30
ATOM     30  C   UNL     1      -5.704  -0.749   3.486  0.00  0.00    -0.026 A 
ATOM     31  C   UNL     1      -5.876   0.119   2.424  0.00  0.00    +0.005 A 
ATOM     32  C   UNL     1      -6.858  -0.128   1.482  0.00  0.00    +0.000 A 
ATOM     33  C   UNL     1      -7.673  -1.236   1.608  0.00  0.00    +0.000 A 
ATOM     34  C   UNL     1      -7.504  -2.102   2.673  0.00  0.00    +0.000 A 
ATOM     35  C   UNL     1      -6.519  -1.858   3.612  0.00  0.00    +0.005 A 
ENDBRANCH  29  30
ENDBRANCH  28  29
ENDBRANCH  23  24
BRANCH  23  36
ATOM     36  C   UNL     1      -2.627   1.085   1.500  0.00  0.00    -0.024 C 
ATOM     37  C   UNL     1      -2.342   2.512   1.025  0.00  0.00    +0.006 C 
ATOM     38  C   UNL     1      -1.738   0.105   0.732  0.00  0.00    +0.006 C 
ENDBRANCH  23  36
ENDBRANCH   1  23
TORSDOF 8
