REMARK  Name = ZINC63172367
REMARK  8 active torsions:
REMARK  status: ('A' for Active; 'I' for Inactive)
REMARK    1  A    between atoms: C_4  and  C_7
REMARK    2  A    between atoms: C_7  and  O_8
REMARK    3  A    between atoms: O_8  and  C_9
REMARK    4  A    between atoms: N_11  and  C_12
REMARK    5  A    between atoms: C_12  and  C_14
REMARK    6  A    between atoms: C_12  and  C_24
REMARK    7  A    between atoms: C_14  and  C_15
REMARK    8  A    between atoms: N_26  and  C_27
REMARK                            x       y       z     vdW  Elec       q    Type
REMARK                         _______ _______ _______ _____ _____    ______ ____
ROOT
ATOM      1  C   UNL     1       7.039  -2.566   2.887  0.00  0.00    +0.166 C 
ENDROOT
BRANCH   1   4
ATOM      2  C   UNL     1       5.306  -1.608   1.467  0.00  0.00    +0.401 C 
ATOM      3  O   UNL     1       5.941  -1.972   0.497  0.00  0.00    -0.226 OA
ATOM      4  N   UNL     1       5.770  -1.857   2.708  0.00  0.00    -0.269 N 
ATOM      5  H   UNL     1       5.263  -1.566   3.482  0.00  0.00    +0.153 HD
BRANCH   2   6
ATOM      6  O   UNL     1       4.140  -0.956   1.302  0.00  0.00    -0.446 OA
BRANCH   6   7
ATOM      7  C   UNL     1       3.708  -0.727  -0.041  0.00  0.00    +0.269 C 
BRANCH   7  11
ATOM      8  C   UNL     1      -0.018   1.361  -0.004  0.00  0.00    +0.000 A 
ATOM      9  C   UNL     1       1.169   2.067  -0.019  0.00  0.00    +0.000 A 
ATOM     10  C   UNL     1       2.376   1.392  -0.030  0.00  0.00    +0.007 A 
ATOM     11  C   UNL     1       2.394   0.010  -0.027  0.00  0.00    -0.010 A 
ATOM     12  C   UNL     1       1.206  -0.697  -0.012  0.00  0.00    +0.007 A 
ATOM     13  C   UNL     1      -0.000  -0.021  -0.002  0.00  0.00    +0.000 A 
ENDBRANCH   7  11
ENDBRANCH   6   7
ENDBRANCH   2   6
ENDBRANCH   1   4
BRANCH   1  14
ATOM     14  C   UNL     1       8.179  -1.582   2.814  0.00  0.00    +0.238 C 
ATOM     15  O   UNL     1       7.953  -0.405   2.631  0.00  0.00    -0.273 OA
ATOM     16  N   UNL     1       9.449  -2.011   2.952  0.00  0.00    -0.284 N 
ATOM     17  H   UNL     1       9.627  -2.941   3.165  0.00  0.00    +0.155 HD
BRANCH  16  18
ATOM     18  C   UNL     1      10.512  -1.116   2.789  0.00  0.00    +0.033 A 
ATOM     19  C   UNL     1      11.700  -1.544   2.212  0.00  0.00    +0.023 A 
ATOM     20  C   UNL     1      12.747  -0.657   2.052  0.00  0.00    +0.002 A 
ATOM     21  C   UNL     1      12.613   0.655   2.466  0.00  0.00    +0.000 A 
ATOM     22  C   UNL     1      11.431   1.085   3.042  0.00  0.00    +0.002 A 
ATOM     23  C   UNL     1      10.378   0.205   3.199  0.00  0.00    +0.023 A 
ENDBRANCH  16  18
ENDBRANCH   1  14
BRANCH   1  24
ATOM     24  C   UNL     1       7.049  -3.257   4.251  0.00  0.00    +0.065 C 
BRANCH  24  25
ATOM     25  C   UNL     1       5.987  -4.327   4.280  0.00  0.00    -0.039 C 
ATOM     26  C   UNL     1       6.153  -5.644   4.020  0.00  0.00    -0.001 A 
ATOM     27  C   UNL     1       7.325  -6.444   3.647  0.00  0.00    +0.010 A 
ATOM     28  C   UNL     1       7.175  -7.774   3.447  0.00  0.00    +0.001 A 
ATOM     29  C   UNL     1       5.931  -8.404   3.588  0.00  0.00    +0.002 A 
ATOM     30  C   UNL     1       4.809  -7.736   3.929  0.00  0.00    +0.026 A 
ATOM     31  C   UNL     1       4.851  -6.334   4.163  0.00  0.00    +0.043 A 
ATOM     32  N   UNL     1       3.917  -5.477   4.498  0.00  0.00    -0.380 N 
ATOM     33  C   UNL     1       4.523  -4.145   4.611  0.00  0.00    +0.144 C 
ATOM     34  H   UNL     1       2.982  -5.688   4.649  0.00  0.00    +0.160 HD
ENDBRANCH  24  25
ENDBRANCH   1  24
TORSDOF 8
