REMARK  Name = ZINC64609813
REMARK  14 active torsions:
REMARK  status: ('A' for Active; 'I' for Inactive)
REMARK    1  A    between atoms: C_1  and  C_2
REMARK    2  A    between atoms: C_2  and  C_3
REMARK    3  A    between atoms: C_3  and  N_4
REMARK    4  A    between atoms: C_6  and  C_10
REMARK    5  A    between atoms: C_7  and  C_9
REMARK    6  A    between atoms: C_10  and  N_11
REMARK    7  A    between atoms: N_11  and  C_12
REMARK    8  A    between atoms: C_12  and  C_13
REMARK    9  A    between atoms: C_16  and  C_29
REMARK   10  A    between atoms: C_16  and  C_30
REMARK   11  A    between atoms: N_17  and  C_27
REMARK   12  A    between atoms: C_18  and  C_20
REMARK   13  A    between atoms: C_27  and  C_28
REMARK   14  A    between atoms: C_30  and  O_31
REMARK                            x       y       z     vdW  Elec       q    Type
REMARK                         _______ _______ _______ _____ _____    ______ ____
ROOT
ATOM      1  C   UNL     1      -2.843  -7.572  -2.395  0.00  0.00    -0.008 C 
ATOM      2  C   UNL     1      -4.016  -6.610  -2.720  0.00  0.00    -0.007 C 
ATOM      3  C   UNL     1      -5.223  -7.580  -2.730  0.00  0.00    -0.044 C 
ATOM      4  N   UNL     1      -4.702  -8.826  -3.332  0.00  0.00    +0.389 N 
ATOM      5  C   UNL     1      -3.239  -8.870  -3.131  0.00  0.00    -0.033 C 
ATOM      6  C   UNL     1      -5.709  -7.841  -1.302  0.00  0.00    -0.007 C 
ATOM      7  H   UNL     1      -4.911  -8.839  -4.319  0.00  0.00    -0.080 HD
ENDROOT
BRANCH   5   8
ATOM      8  C   UNL     1      -2.541  -8.937  -4.464  0.00  0.00    -0.061 A 
ATOM      9  C   UNL     1      -3.015  -8.195  -5.530  0.00  0.00    +0.003 A 
ATOM     10  C   UNL     1      -2.375  -8.256  -6.754  0.00  0.00    +0.020 A 
ATOM     11  C   UNL     1      -1.260  -9.059  -6.912  0.00  0.00    +0.041 A 
ATOM     12  C   UNL     1      -0.785  -9.801  -5.844  0.00  0.00    +0.020 A 
ATOM     13  C   UNL     1      -1.423  -9.735  -4.620  0.00  0.00    +0.003 A 
ATOM     14 CL   UNL     1      -0.456  -9.137  -8.448  0.00  0.00    -0.084 Cl
ENDBRANCH   5   8
BRANCH   4  15
ATOM     15  C   UNL     1      -5.322  -9.987  -2.680  0.00  0.00    -0.081 C 
ATOM     16  C   UNL     1      -4.875 -11.268  -3.388  0.00  0.00    -0.017 C 
ENDBRANCH   4  15
BRANCH   1  17
ATOM     17  C   UNL     1      -1.524  -7.022  -2.942  0.00  0.00    +0.083 C 
BRANCH  17  18
ATOM     18  N   UNL     1      -1.142  -5.824  -2.182  0.00  0.00    -0.312 NA
ATOM     19  H   UNL     1      -1.085  -6.024  -1.195  0.00  0.00    +0.122 HD
BRANCH  18  20
ATOM     20  C   UNL     1       0.123  -5.266  -2.680  0.00  0.00    +0.119 C 
BRANCH  20  23
ATOM     21  N   UNL     1       0.738  -1.962  -1.265  0.00  0.00    -0.271 N 
ATOM     22  C   UNL     1       0.283  -2.757  -2.256  0.00  0.00    +0.113 A 
ATOM     23  C   UNL     1       0.482  -4.041  -1.879  0.00  0.00    +0.007 A 
ATOM     24  C   UNL     1       1.079  -4.031  -0.614  0.00  0.00    +0.064 A 
ATOM     25  N   UNL     1       1.238  -2.785  -0.247  0.00  0.00    -0.176 NA
ATOM     26  C   UNL     1       1.476  -5.245   0.185  0.00  0.00    +0.068 C 
BRANCH  21  27
ATOM     27  C   UNL     1       0.718  -0.497  -1.257  0.00  0.00    +0.143 C 
BRANCH  27  29
ATOM     28  C   UNL     1      -0.019   1.526   0.010  0.00  0.00    +0.005 C 
ATOM     29  C   UNL     1       0.002  -0.004   0.002  0.00  0.00    +0.020 C 
ENDBRANCH  27  29
ENDBRANCH  21  27
ENDBRANCH  20  23
ENDBRANCH  18  20
ENDBRANCH  17  18
ENDBRANCH   1  17
BRANCH   3  30
ATOM     30  C   UNL     1      -6.358  -7.010  -3.583  0.00  0.00    +0.143 C 
BRANCH  30  31
ATOM     31  O   UNL     1      -6.797  -5.770  -3.025  0.00  0.00    -0.396 OA
ATOM     32  H   UNL     1      -7.517  -5.351  -3.517  0.00  0.00    +0.209 HD
ENDBRANCH  30  31
ENDBRANCH   3  30
TORSDOF 10
