REMARK  Name = ZINC21809838
REMARK  10 active torsions:
REMARK  status: ('A' for Active; 'I' for Inactive)
REMARK    1  A    between atoms: C_1  and  C_2
REMARK    2  A    between atoms: C_2  and  N_3
REMARK    3  A    between atoms: N_3  and  C_4
REMARK    4  A    between atoms: N_3  and  C_6
REMARK    5  A    between atoms: C_4  and  C_5
REMARK    6  A    between atoms: C_6  and  C_7
REMARK    7  A    between atoms: C_7  and  N_8
REMARK    8  A    between atoms: C_17  and  C_18
REMARK    9  A    between atoms: C_17  and  C_19
REMARK   10  A    between atoms: N_21  and  C_22
REMARK                            x       y       z     vdW  Elec       q    Type
REMARK                         _______ _______ _______ _____ _____    ______ ____
ROOT
ATOM      1  N   UNL     1       4.466   1.527   6.565  0.00  0.00    -0.282 N 
ATOM      2  C   UNL     1       5.246   0.494   6.165  0.00  0.00    +0.264 C 
ATOM      3  O   UNL     1       5.034  -0.648   6.529  0.00  0.00    -0.268 OA
ATOM      4  C   UNL     1       6.359   0.828   5.268  0.00  0.00    +0.106 A 
ATOM      5  C   UNL     1       7.205   0.024   4.563  0.00  0.00    +0.048 A 
ATOM      6  C   UNL     1       8.075   0.854   3.868  0.00  0.00    +0.038 A 
ATOM      7  C   UNL     1       7.776   2.195   4.155  0.00  0.00    +0.057 A 
ATOM      8  N   UNL     1       6.713   2.154   5.040  0.00  0.00    -0.333 N 
ATOM      9  C   UNL     1       6.016   3.264   5.692  0.00  0.00    +0.157 C 
ATOM     10  C   UNL     1       4.568   2.852   5.964  0.00  0.00    +0.128 C 
ATOM     11  C   UNL     1       3.935   3.874   6.910  0.00  0.00    +0.043 C 
ATOM     12  C   UNL     1       8.581   3.147   3.514  0.00  0.00    +0.034 A 
ATOM     13  C   UNL     1       9.571   2.752   2.686  0.00  0.00    +0.048 A 
ATOM     14  S   UNL     1       9.443   0.973   2.744  0.00  0.00    -0.095 S 
ENDROOT
BRANCH  10  15
ATOM     15  C   UNL     1       3.808   2.856   4.663  0.00  0.00    +0.238 C 
ATOM     16  O   UNL     1       3.215   3.854   4.311  0.00  0.00    -0.273 OA
ATOM     17  N   UNL     1       3.787   1.752   3.891  0.00  0.00    -0.311 N 
ATOM     18  H   UNL     1       4.324   0.847   4.211  0.00  0.00    +0.149 HD
BRANCH  17  19
ATOM     19  C   UNL     1       3.047   1.756   2.627  0.00  0.00    +0.073 C 
ATOM     20  C   UNL     1       3.923   2.302   1.531  0.00  0.00    +0.022 C 
ATOM     21  C   UNL     1       3.126   3.099   0.481  0.00  0.00    +0.002 C 
ATOM     22  C   UNL     1       1.789   2.428   0.110  0.00  0.00    +0.000 C 
ATOM     23  C   UNL     1       1.917   0.936  -0.043  0.00  0.00    +0.000 C 
ATOM     24  C   UNL     1       1.548   0.273   1.300  0.00  0.00    +0.002 C 
ATOM     25  C   UNL     1       2.642   0.314   2.258  0.00  0.00    +0.022 C 
ENDBRANCH  17  19
ENDBRANCH  10  15
BRANCH   1  26
ATOM     26  C   UNL     1       3.491   1.306   7.635  0.00  0.00    +0.091 C 
BRANCH  26  27
ATOM     27  C   UNL     1       2.159   0.862   7.027  0.00  0.00    -0.060 C 
BRANCH  27  28
ATOM     28  N   UNL     1       1.180   0.640   8.101  0.00  0.00    +0.380 N 
ATOM     29  H   UNL     1       1.160   1.542   8.731  0.00  0.00    -0.082 HD
BRANCH  28  31
ATOM     30  C   UNL     1      -0.738   1.792   7.105  0.00  0.00    -0.017 C 
ATOM     31  C   UNL     1      -0.168   0.444   7.551  0.00  0.00    -0.082 C 
ENDBRANCH  28  31
BRANCH  28  32
ATOM     32  C   UNL     1       1.575  -0.494   8.947  0.00  0.00    -0.082 C 
ATOM     33  C   UNL     1       0.782  -0.454  10.255  0.00  0.00    -0.017 C 
ENDBRANCH  28  32
ENDBRANCH  27  28
ENDBRANCH  26  27
ENDBRANCH   1  26
TORSDOF 7
