REMARK  Name = ZINC33706933
REMARK  12 active torsions:
REMARK  status: ('A' for Active; 'I' for Inactive)
REMARK    1  A    between atoms: C_1  and  C_2
REMARK    2  A    between atoms: C_2  and  C_3
REMARK    3  A    between atoms: C_3  and  C_5
REMARK    4  A    between atoms: C_3  and  C_6
REMARK    5  A    between atoms: C_6  and  C_8
REMARK    6  A    between atoms: C_6  and  N_23
REMARK    7  A    between atoms: C_14  and  C_16
REMARK    8  A    between atoms: N_26  and  C_27
REMARK    9  A    between atoms: C_27  and  C_28
REMARK   10  A    between atoms: C_28  and  O_30
REMARK   11  A    between atoms: O_30  and  C_31
REMARK   12  A    between atoms: C_31  and  C_32
REMARK                            x       y       z     vdW  Elec       q    Type
REMARK                         _______ _______ _______ _____ _____    ______ ____
ROOT
ATOM      1  C   UNL     1      -0.100   0.871   2.542  0.00  0.00    +0.163 C 
ENDROOT
BRANCH   1   2
ATOM      2  C   UNL     1       1.403   0.985   2.543  0.00  0.00    +0.239 C 
ATOM      3  O   UNL     1       2.080   0.087   2.088  0.00  0.00    -0.273 OA
ATOM      4  N   UNL     1       1.994   2.085   3.050  0.00  0.00    -0.262 N 
ATOM      5  C   UNL     1       3.379   2.146   3.149  0.00  0.00    +0.188 A 
ATOM      6  N   UNL     1       4.288   1.244   2.813  0.00  0.00    -0.125 NA
ATOM      7  N   UNL     1       5.524   1.454   2.963  0.00  0.00    -0.140 NA
ATOM      8  C   UNL     1       5.952   2.598   3.481  0.00  0.00    +0.134 A 
ATOM      9  S   UNL     1       4.390   3.424   3.755  0.00  0.00    -0.030 S 
ATOM     10  H   UNL     1       1.381   2.934   3.385  0.00  0.00    +0.157 HD
BRANCH   8  11
ATOM     11  C   UNL     1       7.330   3.059   3.753  0.00  0.00    +0.010 A 
ATOM     12  C   UNL     1       8.417   2.235   3.454  0.00  0.00    +0.011 A 
ATOM     13  C   UNL     1       9.700   2.671   3.709  0.00  0.00    +0.002 A 
ATOM     14  C   UNL     1       9.913   3.922   4.261  0.00  0.00    +0.015 A 
ATOM     15  C   UNL     1       8.840   4.744   4.560  0.00  0.00    +0.019 A 
ATOM     16  C   UNL     1       7.551   4.322   4.304  0.00  0.00    +0.026 A 
ATOM     17 BR   UNL     1       9.141   6.452   5.314  0.00  0.00    -0.050 Br
ENDBRANCH   8  11
ENDBRANCH   1   2
BRANCH   1  18
ATOM     18  N   UNL     1      -0.482  -0.544   2.565  0.00  0.00    -0.288 N 
ATOM     19  C   UNL     1      -1.680  -0.910   3.062  0.00  0.00    +0.301 C 
ATOM     20  O   UNL     1      -2.443  -0.067   3.491  0.00  0.00    -0.253 OA
ATOM     21  N   UNL     1      -2.031  -2.211   3.083  0.00  0.00    -0.289 N 
ATOM     22  H   UNL     1       0.209  -1.306   2.176  0.00  0.00    +0.151 HD
ATOM     23  H   UNL     1      -1.340  -2.974   2.694  0.00  0.00    +0.151 HD
BRANCH  21  24
ATOM     24  C   UNL     1      -3.333  -2.610   3.623  0.00  0.00    +0.226 C 
BRANCH  24  25
ATOM     25  C   UNL     1      -3.478  -4.107   3.531  0.00  0.00    +0.324 C 
ATOM     26  O   UNL     1      -2.586  -4.773   3.063  0.00  0.00    -0.249 OA
BRANCH  25  27
ATOM     27  O   UNL     1      -4.599  -4.700   3.970  0.00  0.00    -0.464 OA
BRANCH  27  28
ATOM     28  C   UNL     1      -4.670  -6.146   3.851  0.00  0.00    +0.229 C 
ATOM     29  C   UNL     1      -6.011  -6.638   4.398  0.00  0.00    +0.048 C 
ENDBRANCH  27  28
ENDBRANCH  25  27
ENDBRANCH  24  25
ENDBRANCH  21  24
ENDBRANCH   1  18
BRANCH   1  30
ATOM     30  C   UNL     1      -0.660   1.530   1.280  0.00  0.00    +0.015 C 
ATOM     31  C   UNL     1      -0.376   3.033   1.320  0.00  0.00    +0.010 C 
BRANCH  30  33
ATOM     32  C   UNL     1      -0.643   1.486  -1.218  0.00  0.00    +0.004 C 
ATOM     33  C   UNL     1       0.005   0.917   0.046  0.00  0.00    +0.002 C 
ENDBRANCH  30  33
ENDBRANCH   1  30
TORSDOF 9
