REMARK  Name = ZINC13499253
REMARK  15 active torsions:
REMARK  status: ('A' for Active; 'I' for Inactive)
REMARK    1  A    between atoms: C_1  and  C_2
REMARK    2  A    between atoms: C_2  and  C_3
REMARK    3  A    between atoms: C_3  and  C_4
REMARK    4  A    between atoms: C_4  and  C_6
REMARK    5  A    between atoms: C_4  and  N_18
REMARK    6  A    between atoms: N_10  and  C_11
REMARK    7  A    between atoms: C_11  and  C_12
REMARK    8  A    between atoms: N_18  and  C_19
REMARK    9  A    between atoms: N_18  and  C_28
REMARK   10  A    between atoms: C_19  and  C_20
REMARK   11  A    between atoms: C_23  and  O_26
REMARK   12  A    between atoms: O_26  and  C_27
REMARK   13  A    between atoms: C_28  and  C_29
REMARK   14  A    between atoms: C_33  and  C_41
REMARK   15  A    between atoms: C_41  and  C_42
REMARK                            x       y       z     vdW  Elec       q    Type
REMARK                         _______ _______ _______ _____ _____    ______ ____
ROOT
ATOM      1  N   UNL     1      -1.552  -2.947  -0.802  0.00  0.00    -0.284 NA
ENDROOT
BRANCH   1   2
ATOM      2  C   UNL     1      -0.246  -2.399  -1.195  0.00  0.00    +0.127 C 
BRANCH   2   3
ATOM      3  C   UNL     1       0.804  -2.852  -0.215  0.00  0.00    +0.169 A 
ATOM      4  N   UNL     1       1.178  -4.087   0.017  0.00  0.00    -0.112 NA
ATOM      5  N   UNL     1       2.097  -4.063   0.919  0.00  0.00    -0.023 NA
ATOM      6  N   UNL     1       2.320  -2.844   1.270  0.00  0.00    -0.044 NA
ATOM      7  N   UNL     1       1.546  -2.068   0.589  0.00  0.00    -0.225 N 
BRANCH   7   8
ATOM      8  C   UNL     1       1.484  -0.607   0.677  0.00  0.00    +0.179 C 
BRANCH   8   9
ATOM      9  C   UNL     1       0.576  -0.204   1.841  0.00  0.00    +0.140 C 
ATOM     10  C   UNL     1       0.573   1.332   1.996  0.00  0.00    +0.035 C 
ATOM     11  C   UNL     1       0.574   1.508   3.538  0.00  0.00    +0.031 C 
ATOM     12  C   UNL     1       1.431   0.292   3.973  0.00  0.00    +0.160 C 
ATOM     13  O   UNL     1       1.075  -0.763   3.062  0.00  0.00    -0.375 OA
ENDBRANCH   8   9
ENDBRANCH   7   8
ENDBRANCH   2   3
BRANCH   2  14
ATOM     14  C   UNL     1       0.115  -2.896  -2.596  0.00  0.00    +0.026 C 
BRANCH  14  16
ATOM     15  C   UNL     1      -0.615  -2.957  -4.985  0.00  0.00    +0.004 C 
ATOM     16  C   UNL     1      -0.908  -2.367  -3.604  0.00  0.00    -0.001 C 
ENDBRANCH  14  16
ENDBRANCH   2  14
ENDBRANCH   1   2
BRANCH   1  17
ATOM     17  C   UNL     1      -1.429  -4.348  -0.380  0.00  0.00    +0.120 C 
BRANCH  17  18
ATOM     18  C   UNL     1      -1.164  -5.215  -1.585  0.00  0.00    -0.033 A 
ATOM     19  C   UNL     1      -2.092  -5.276  -2.608  0.00  0.00    +0.008 A 
ATOM     20  C   UNL     1      -1.852  -6.070  -3.713  0.00  0.00    +0.046 A 
ATOM     21  C   UNL     1      -0.679  -6.805  -3.796  0.00  0.00    +0.120 A 
ATOM     22  C   UNL     1       0.252  -6.740  -2.769  0.00  0.00    +0.046 A 
ATOM     23  C   UNL     1       0.009  -5.941  -1.668  0.00  0.00    +0.008 A 
BRANCH  21  24
ATOM     24  O   UNL     1      -0.441  -7.586  -4.882  0.00  0.00    -0.495 OA
ATOM     25  C   UNL     1       0.789  -8.315  -4.900  0.00  0.00    +0.277 C 
ENDBRANCH  21  24
ENDBRANCH  17  18
ENDBRANCH   1  17
BRANCH   1  26
ATOM     26  C   UNL     1      -2.169  -2.132   0.252  0.00  0.00    +0.126 C 
BRANCH  26  27
ATOM     27  C   UNL     1      -2.882  -0.959  -0.371  0.00  0.00    +0.031 A 
ATOM     28  C   UNL     1      -4.214  -1.031  -0.616  0.00  0.00    +0.020 A 
ATOM     29  C   UNL     1      -4.876   0.126  -1.222  0.00  0.00    -0.001 A 
ATOM     30  C   UNL     1      -6.248   0.111  -1.498  0.00  0.00    +0.013 A 
ATOM     31  C   UNL     1      -6.836   1.207  -2.063  0.00  0.00    -0.047 A 
ATOM     32  C   UNL     1      -6.085   2.334  -2.368  0.00  0.00    +0.005 A 
ATOM     33  C   UNL     1      -4.732   2.370  -2.106  0.00  0.00    +0.026 A 
ATOM     34  C   UNL     1      -4.112   1.266  -1.529  0.00  0.00    +0.049 A 
ATOM     35  N   UNL     1      -2.760   1.276  -1.256  0.00  0.00    -0.322 N 
ATOM     36  H   UNL     1      -2.235   2.063  -1.468  0.00  0.00    +0.169 HD
ATOM     37  C   UNL     1      -2.162   0.211  -0.694  0.00  0.00    +0.254 A 
ATOM     38  O   UNL     1      -0.966   0.256  -0.461  0.00  0.00    -0.268 OA
BRANCH  31  39
ATOM     39  C   UNL     1      -8.313   1.191  -2.360  0.00  0.00    +0.032 C 
ATOM     40  C   UNL     1      -9.082   1.720  -1.147  0.00  0.00    +0.009 C 
ENDBRANCH  31  39
ENDBRANCH  26  27
ENDBRANCH   1  26
TORSDOF 12
