REMARK  Name = ZINC08927735
REMARK  9 active torsions:
REMARK  status: ('A' for Active; 'I' for Inactive)
REMARK    1  A    between atoms: C_1  and  C_2
REMARK    2  A    between atoms: C_5  and  C_30
REMARK    3  A    between atoms: C_6  and  C_8
REMARK    4  A    between atoms: C_8  and  N_9
REMARK    5  A    between atoms: C_16  and  C_19
REMARK    6  A    between atoms: C_16  and  O_28
REMARK    7  A    between atoms: C_19  and  C_20
REMARK    8  A    between atoms: C_20  and  C_22
REMARK    9  A    between atoms: C_25  and  C_27
REMARK                            x       y       z     vdW  Elec       q    Type
REMARK                         _______ _______ _______ _____ _____    ______ ____
ROOT
ATOM      1  N   UNL     1       1.834   6.689   1.945  0.00  0.00    -0.264 N 
ATOM      2  C   UNL     1       0.691   7.263   1.386  0.00  0.00    +0.043 A 
ATOM      3  C   UNL     1      -0.092   8.334   1.812  0.00  0.00    +0.025 A 
ATOM      4  C   UNL     1      -1.192   8.723   1.077  0.00  0.00    +0.017 A 
ATOM      5  C   UNL     1      -1.527   8.055  -0.088  0.00  0.00    +0.018 A 
ATOM      6  C   UNL     1      -0.754   6.990  -0.517  0.00  0.00    +0.024 A 
ATOM      7  C   UNL     1       0.345   6.600   0.215  0.00  0.00    +0.016 A 
ATOM      8  C   UNL     1       1.371   5.507   0.025  0.00  0.00    +0.176 C 
ATOM      9  C   UNL     1       2.295   5.659   1.215  0.00  0.00    +0.257 C 
ATOM     10  O   UNL     1       3.268   4.979   1.463  0.00  0.00    -0.272 OA
ATOM     11 BR   UNL     1      -3.038   8.595  -1.089  0.00  0.00    -0.050 Br
ENDROOT
BRANCH   8  12
ATOM     12  O   UNL     1       2.090   5.697  -1.195  0.00  0.00    -0.374 OA
ATOM     13  H   UNL     1       2.782   5.040  -1.350  0.00  0.00    +0.211 HD
ENDBRANCH   8  12
BRANCH   1  14
ATOM     14  C   UNL     1       2.459   7.155   3.185  0.00  0.00    +0.149 C 
BRANCH  14  20
ATOM     15  C   UNL     1       4.965   9.894  -0.171  0.00  0.00    +0.044 C 
ATOM     16  C   UNL     1       4.757   9.443   1.252  0.00  0.00    -0.050 A 
ATOM     17  C   UNL     1       5.575   9.925   2.257  0.00  0.00    +0.003 A 
ATOM     18  C   UNL     1       5.385   9.511   3.562  0.00  0.00    +0.004 A 
ATOM     19  C   UNL     1       4.373   8.618   3.863  0.00  0.00    -0.046 A 
ATOM     20  C   UNL     1       3.558   8.132   2.857  0.00  0.00    -0.027 A 
ATOM     21  C   UNL     1       3.748   8.546   1.552  0.00  0.00    +0.008 A 
ATOM     22  C   UNL     1       4.162   8.170   5.286  0.00  0.00    +0.044 C 
ENDBRANCH  14  20
ENDBRANCH   1  14
BRANCH   8  23
ATOM     23  C   UNL     1       0.699   4.133   0.041  0.00  0.00    +0.132 C 
BRANCH  23  24
ATOM     24  C   UNL     1       1.754   3.057   0.070  0.00  0.00    +0.201 C 
ATOM     25  O   UNL     1       2.930   3.361   0.078  0.00  0.00    -0.289 OA
BRANCH  24  26
ATOM     26  C   UNL     1       1.376   1.696   0.089  0.00  0.00    +0.170 A 
ATOM     27  C   UNL     1       2.233   0.613   0.116  0.00  0.00    +0.053 A 
ATOM     28  C   UNL     1       1.426  -0.532   0.126  0.00  0.00    +0.045 A 
ATOM     29  C   UNL     1       0.139  -0.117   0.104  0.00  0.00    +0.103 A 
ATOM     30  O   UNL     1       0.112   1.221   0.082  0.00  0.00    -0.457 OA
ATOM     31  C   UNL     1      -1.070  -1.016   0.106  0.00  0.00    +0.086 C 
ENDBRANCH  24  26
ENDBRANCH  23  24
ENDBRANCH   8  23
TORSDOF 6
