REMARK  Name = ZINC12862285
REMARK  10 active torsions:
REMARK  status: ('A' for Active; 'I' for Inactive)
REMARK    1  A    between atoms: C_1  and  C_2
REMARK    2  A    between atoms: C_13  and  O_15
REMARK    3  A    between atoms: O_15  and  C_16
REMARK    4  A    between atoms: C_16  and  C_18
REMARK    5  A    between atoms: C_18  and  C_19
REMARK    6  A    between atoms: C_19  and  C_20
REMARK    7  A    between atoms: N_22  and  CA_23
REMARK    8  A    between atoms: CA_23  and  C_25
REMARK    9  A    between atoms: CA_23  and  C_31
REMARK   10  A    between atoms: C_41  and  C_42
REMARK                            x       y       z     vdW  Elec       q    Type
REMARK                         _______ _______ _______ _____ _____    ______ ____
ROOT
ATOM      1  C   UNL     1       2.223  -6.931  -0.286  0.00  0.00    +0.015 C 
ATOM      2  C   UNL     1       3.580  -6.361  -0.697  0.00  0.00    +0.008 C 
ATOM      3  C   UNL     1       3.720  -6.428  -2.198  0.00  0.00    +0.011 C 
ATOM      4  C   UNL     1       3.736  -7.912  -2.618  0.00  0.00    +0.005 C 
ATOM      5  C   UNL     1       4.878  -8.652  -1.949  0.00  0.00    +0.002 C 
ATOM      6  C   UNL     1       4.891  -8.526  -0.431  0.00  0.00    -0.003 C 
ATOM      7  C   UNL     1       4.776  -7.077  -0.038  0.00  0.00    +0.002 C 
ATOM      8  C   UNL     1       4.521  -6.765   1.445  0.00  0.00    +0.008 C 
ATOM      9  C   UNL     1       4.176  -5.247   1.388  0.00  0.00    +0.045 C 
ATOM     10  C   UNL     1       3.692  -4.966  -0.060  0.00  0.00    +0.183 C 
ATOM     11  C   UNL     1       3.938  -9.428   0.320  0.00  0.00    +0.008 C 
ATOM     12  C   UNL     1       3.297 -10.482  -0.580  0.00  0.00    +0.032 C 
ATOM     13  C   UNL     1       4.390 -11.034  -1.462  0.00  0.00    -0.060 C 
ATOM     14  C   UNL     1       4.779 -12.298  -1.363  0.00  0.00    +0.046 C 
ATOM     15  C   UNL     1       5.897 -12.804  -2.157  0.00  0.00    +0.156 C 
ATOM     16  O   UNL     1       6.146 -13.993  -2.155  0.00  0.00    -0.293 OA
ATOM     17  C   UNL     1       6.739 -11.863  -2.979  0.00  0.00    +0.080 C 
ATOM     18  C   UNL     1       6.547 -10.425  -2.500  0.00  0.00    +0.019 C 
ATOM     19  C   UNL     1       5.054 -10.084  -2.429  0.00  0.00    -0.007 C 
ATOM     20  C   UNL     1       4.433 -10.280  -3.814  0.00  0.00    +0.016 C 
ENDROOT
BRANCH  10  21
ATOM     21  O   UNL     1       2.391  -4.325  -0.044  0.00  0.00    -0.461 OA
BRANCH  21  22
ATOM     22  C   UNL     1       2.373  -2.983  -0.037  0.00  0.00    +0.308 C 
ATOM     23  O   UNL     1       3.411  -2.365  -0.043  0.00  0.00    -0.251 OA
BRANCH  22  24
ATOM     24  C   UNL     1       1.058  -2.248  -0.020  0.00  0.00    +0.130 C 
BRANCH  24  25
ATOM     25  C   UNL     1       1.317  -0.740  -0.015  0.00  0.00    +0.107 C 
BRANCH  25  26
ATOM     26  C   UNL     1       0.002  -0.004   0.002  0.00  0.00    +0.214 C 
ATOM     27  O   UNL     1      -1.040  -0.625   0.009  0.00  0.00    -0.276 OA
ATOM     28  N   UNL     1      -0.016   1.344   0.009  0.00  0.00    -0.299 N 
ATOM     29  H   UNL     1       0.817   1.840   0.004  0.00  0.00    +0.150 HD
BRANCH  28  30
ATOM     30  CA  UNL     1      -1.295   2.059   0.019  0.00  0.00    +0.217 C 
BRANCH  30  31
ATOM     31  C   UNL     1      -1.107   3.431  -0.575  0.00  0.00    -0.016 A 
ATOM     32  C   UNL     1       0.027   4.163  -0.279  0.00  0.00    +0.006 A 
ATOM     33  C   UNL     1       0.201   5.420  -0.827  0.00  0.00    +0.000 A 
ATOM     34  C   UNL     1      -0.764   5.949  -1.663  0.00  0.00    +0.000 A 
ATOM     35  C   UNL     1      -1.901   5.219  -1.955  0.00  0.00    +0.000 A 
ATOM     36  C   UNL     1      -2.073   3.960  -1.411  0.00  0.00    +0.006 A 
ENDBRANCH  30  31
BRANCH  30  37
ATOM     37  C   UNL     1      -1.787   2.188   1.438  0.00  0.00    +0.380 C 
ATOM     38  O   UNL     1      -1.136   1.730   2.347  0.00  0.00    -0.244 OA
ATOM     39  OXT UNL     1      -2.948   2.812   1.691  0.00  0.00    -0.244 OA
ENDBRANCH  30  37
ENDBRANCH  28  30
ENDBRANCH  25  26
ENDBRANCH  24  25
ENDBRANCH  22  24
ENDBRANCH  21  22
ENDBRANCH  10  21
TORSDOF 8
