REMARK  Name = ZINC66176550
REMARK  5 active torsions:
REMARK  status: ('A' for Active; 'I' for Inactive)
REMARK    1  A    between atoms: C_1  and  N_2
REMARK    2  A    between atoms: N_2  and  C_3
REMARK    3  A    between atoms: N_17  and  C_18
REMARK    4  A    between atoms: C_18  and  C_19
REMARK    5  A    between atoms: C_19  and  C_23
REMARK                            x       y       z     vdW  Elec       q    Type
REMARK                         _______ _______ _______ _____ _____    ______ ____
ROOT
ATOM      1  C   UNL     1      -0.139   2.555  -0.801  0.00  0.00    +0.134 C 
ATOM      2  N   UNL     1      -0.078   1.135  -0.447  0.00  0.00    -0.286 N 
ATOM      3  C   UNL     1      -0.054   0.199  -1.416  0.00  0.00    +0.302 C 
ATOM      4  O   UNL     1      -0.003  -0.980  -1.122  0.00  0.00    -0.253 OA
ATOM      5  N   UNL     1      -0.087   0.570  -2.712  0.00  0.00    -0.298 N 
ATOM      6  H   UNL     1      -0.128   1.510  -2.946  0.00  0.00    +0.150 HD
ENDROOT
BRANCH   2   7
ATOM      7  C   UNL     1      -0.042   0.732   0.961  0.00  0.00    +0.080 C 
ATOM      8  C   UNL     1       1.194   1.333   1.633  0.00  0.00    +0.041 C 
ATOM      9  C   UNL     1       1.247   0.881   3.095  0.00  0.00    +0.108 C 
ATOM     10  N   UNL     1      -0.023   1.233   3.745  0.00  0.00    -0.317 N 
ATOM     11  C   UNL     1      -1.279   0.782   3.131  0.00  0.00    +0.108 C 
ATOM     12  C   UNL     1      -1.304   1.235   1.667  0.00  0.00    +0.041 C 
ATOM     13  C   UNL     1      -0.036   1.979   4.918  0.00  0.00    +0.099 A 
ATOM     14  C   UNL     1       1.163   2.286   5.553  0.00  0.00    +0.042 A 
ATOM     15  C   UNL     1       1.136   3.028   6.720  0.00  0.00    +0.005 A 
ATOM     16  C   UNL     1      -0.095   3.440   7.214  0.00  0.00    +0.018 A 
ATOM     17  C   UNL     1      -1.246   3.100   6.532  0.00  0.00    +0.084 A 
ATOM     18  N   UNL     1      -1.189   2.395   5.418  0.00  0.00    -0.350 N 
ATOM     19  H   UNL     1      -2.013   2.173   4.957  0.00  0.00    +0.166 HD
ENDBRANCH   2   7
BRANCH   5  20
ATOM     20  C   UNL     1      -0.061  -0.448  -3.766  0.00  0.00    +0.117 C 
BRANCH  20  21
ATOM     21  C   UNL     1       0.015   0.236  -5.132  0.00  0.00    +0.011 C 
ATOM     22  C   UNL     1       0.465  -0.701  -6.266  0.00  0.00    +0.013 C 
ATOM     23  C   UNL     1       1.908  -0.294  -5.923  0.00  0.00    +0.002 C 
ATOM     24  C   UNL     1       1.322   1.012  -5.361  0.00  0.00    +0.013 C 
BRANCH  21  25
ATOM     25  C   UNL     1      -1.224   1.029  -5.459  0.00  0.00    -0.040 A 
ATOM     26  C   UNL     1      -1.154   2.405  -5.570  0.00  0.00    +0.004 A 
ATOM     27  C   UNL     1      -2.290   3.133  -5.870  0.00  0.00    +0.000 A 
ATOM     28  C   UNL     1      -3.496   2.485  -6.059  0.00  0.00    +0.000 A 
ATOM     29  C   UNL     1      -3.566   1.109  -5.949  0.00  0.00    +0.000 A 
ATOM     30  C   UNL     1      -2.429   0.381  -5.653  0.00  0.00    +0.004 A 
ENDBRANCH  21  25
ENDBRANCH  20  21
ENDBRANCH   5  20
TORSDOF 4
