REMARK  Name = ZINC62038732
REMARK  8 active torsions:
REMARK  status: ('A' for Active; 'I' for Inactive)
REMARK    1  A    between atoms: C_1  and  C_2
REMARK    2  A    between atoms: C_2  and  C_4
REMARK    3  A    between atoms: C_2  and  S_16
REMARK    4  A    between atoms: N_6  and  C_7
REMARK    5  A    between atoms: C_9  and  C_14
REMARK    6  A    between atoms: C_12  and  O_13
REMARK    7  A    between atoms: S_16  and  C_17
REMARK    8  A    between atoms: C_23  and  C_27
REMARK                            x       y       z     vdW  Elec       q    Type
REMARK                         _______ _______ _______ _____ _____    ______ ____
ROOT
ATOM      1  S   UNL     1       0.875  -0.581   1.476  0.00  0.00    -0.075 S 
ENDROOT
BRANCH   1   2
ATOM      2  C   UNL     1       2.525  -0.005   1.247  0.00  0.00    +0.171 A 
ATOM      3  N   UNL     1       2.821   0.691   0.169  0.00  0.00    -0.185 NA
ATOM      4  C   UNL     1       4.049   1.158  -0.068  0.00  0.00    +0.282 A 
ATOM      5  O   UNL     1       4.279   1.800  -1.081  0.00  0.00    -0.265 OA
ATOM      6  C   UNL     1       5.131   0.891   0.911  0.00  0.00    +0.072 A 
ATOM      7  C   UNL     1       6.481   1.280   0.870  0.00  0.00    +0.031 A 
ATOM      8  C   UNL     1       7.316   0.928   1.880  0.00  0.00    +0.022 A 
ATOM      9  S   UNL     1       6.243   0.013   2.975  0.00  0.00    -0.070 S 
ATOM     10  C   UNL     1       4.746   0.145   2.033  0.00  0.00    +0.093 A 
ATOM     11  N   UNL     1       3.466  -0.285   2.192  0.00  0.00    -0.328 N 
ATOM     12  H   UNL     1       3.223  -0.796   2.980  0.00  0.00    +0.168 HD
BRANCH   8  13
ATOM     13  C   UNL     1       8.755   1.228   2.035  0.00  0.00    -0.011 A 
ATOM     14  C   UNL     1       9.425   1.972   1.062  0.00  0.00    +0.009 A 
ATOM     15  C   UNL     1      10.768   2.248   1.213  0.00  0.00    +0.001 A 
ATOM     16  C   UNL     1      11.451   1.790   2.326  0.00  0.00    +0.000 A 
ATOM     17  C   UNL     1      10.793   1.053   3.294  0.00  0.00    +0.001 A 
ATOM     18  C   UNL     1       9.449   0.774   3.159  0.00  0.00    +0.009 A 
ENDBRANCH   8  13
ENDBRANCH   1   2
BRANCH   1  20
ATOM     19  C   UNL     1      -0.037   1.542   0.012  0.00  0.00    +0.029 C 
ATOM     20  C   UNL     1      -0.005   0.013   0.005  0.00  0.00    +0.137 C 
BRANCH  20  21
ATOM     21  C   UNL     1      -1.414  -0.520   0.014  0.00  0.00    +0.230 C 
ATOM     22  O   UNL     1      -1.941  -0.825   1.063  0.00  0.00    -0.274 OA
ATOM     23  N   UNL     1      -2.090  -0.657  -1.144  0.00  0.00    -0.282 N 
ATOM     24  H   UNL     1      -1.694  -0.353  -1.976  0.00  0.00    +0.155 HD
BRANCH  23  25
ATOM     25  C   UNL     1      -3.365  -1.240  -1.147  0.00  0.00    +0.076 A 
ATOM     26  C   UNL     1      -4.221  -1.033  -0.082  0.00  0.00    +0.038 A 
ATOM     27  C   UNL     1      -5.494  -1.617  -0.089  0.00  0.00    +0.016 A 
ATOM     28  C   UNL     1      -5.892  -2.407  -1.174  0.00  0.00    +0.015 A 
ATOM     29  C   UNL     1      -5.033  -2.607  -2.231  0.00  0.00    +0.048 A 
ATOM     30  C   UNL     1      -3.772  -2.024  -2.228  0.00  0.00    +0.138 A 
BRANCH  30  31
ATOM     31  O   UNL     1      -2.932  -2.221  -3.276  0.00  0.00    -0.505 OA
ATOM     32  H   UNL     1      -2.362  -2.996  -3.182  0.00  0.00    +0.292 HD
ENDBRANCH  30  31
BRANCH  27  33
ATOM     33  C   UNL     1      -6.408  -1.402   1.040  0.00  0.00    +0.258 C 
ATOM     34  O   UNL     1      -7.510  -1.909   1.033  0.00  0.00    -0.296 OA
ENDBRANCH  27  33
ENDBRANCH  23  25
ENDBRANCH  20  21
ENDBRANCH   1  20
TORSDOF 7
