REMARK  Name = ZINC21534095
REMARK  5 active torsions:
REMARK  status: ('A' for Active; 'I' for Inactive)
REMARK    1  A    between atoms: C_1  and  C_2
REMARK    2  A    between atoms: C_2  and  C_29
REMARK    3  A    between atoms: N_5  and  C_9
REMARK    4  A    between atoms: C_9  and  C_10
REMARK    5  A    between atoms: C_23  and  C_25
REMARK                            x       y       z     vdW  Elec       q    Type
REMARK                         _______ _______ _______ _____ _____    ______ ____
ROOT
ATOM      1  C   UNL     1       0.358   2.771  -3.084  0.00  0.00    +0.238 C 
ATOM      2  O   UNL     1      -0.564   3.082  -3.808  0.00  0.00    -0.273 OA
ATOM      3  N   UNL     1       0.311   3.065  -1.770  0.00  0.00    -0.256 N 
ATOM      4  C   UNL     1       1.369   2.712  -0.920  0.00  0.00    +0.058 A 
ATOM      5  C   UNL     1       2.569   3.402  -0.964  0.00  0.00    +0.025 A 
ATOM      6  C   UNL     1       3.581   3.077  -0.080  0.00  0.00    +0.002 A 
ATOM      7  C   UNL     1       3.401   2.066   0.846  0.00  0.00    +0.002 A 
ATOM      8  C   UNL     1       2.210   1.364   0.888  0.00  0.00    +0.025 A 
ATOM      9  C   UNL     1       1.194   1.677  -0.000  0.00  0.00    +0.055 A 
ATOM     10  N   UNL     1      -0.011   0.966   0.007  0.00  0.00    -0.284 N 
ATOM     11  C   UNL     1      -1.192   1.621   0.017  0.00  0.00    +0.219 C 
ATOM     12  O   UNL     1      -2.229   0.996  -0.067  0.00  0.00    -0.275 OA
ATOM     13  C   UNL     1      -1.231   3.122   0.134  0.00  0.00    +0.128 C 
ATOM     14  C   UNL     1      -0.847   3.759  -1.202  0.00  0.00    +0.194 C 
ATOM     15  H   UNL     1      -0.000  -0.134   0.006  0.00  0.00    +0.155 HD
ENDROOT
BRANCH  14  16
ATOM     16  C   UNL     1      -0.497   5.232  -0.980  0.00  0.00    +0.409 C 
ATOM     17  F   UNL     1      -0.154   5.819  -2.203  0.00  0.00    -0.169 F 
ATOM     18  F   UNL     1      -1.603   5.897  -0.438  0.00  0.00    -0.169 F 
ATOM     19  F   UNL     1       0.584   5.328  -0.098  0.00  0.00    -0.169 F 
ENDBRANCH  14  16
BRANCH   1  20
ATOM     20  C   UNL     1       1.555   2.055  -3.653  0.00  0.00    +0.214 C 
BRANCH  20  25
ATOM     21  C   UNL     1       2.595   1.857  -8.230  0.00  0.00    +0.047 C 
ATOM     22  C   UNL     1       1.360   2.109  -7.362  0.00  0.00    +0.135 C 
ATOM     23  C   UNL     1       1.757   2.730  -6.038  0.00  0.00    +0.251 C 
ATOM     24  O   UNL     1       2.311   3.795  -5.865  0.00  0.00    -0.272 OA
ATOM     25  N   UNL     1       1.365   1.853  -5.092  0.00  0.00    -0.215 N 
ATOM     26  C   UNL     1       0.787   0.774  -5.630  0.00  0.00    +0.310 C 
ATOM     27  O   UNL     1       0.356  -0.157  -4.978  0.00  0.00    -0.252 OA
ATOM     28  N   UNL     1       0.732   0.835  -6.972  0.00  0.00    -0.281 N 
ATOM     29  H   UNL     1       0.336   0.158  -7.744  0.00  0.00    +0.152 HD
BRANCH  22  30
ATOM     30  C   UNL     1       0.372   2.988  -8.085  0.00  0.00    -0.015 A 
ATOM     31  C   UNL     1       0.402   4.358  -7.901  0.00  0.00    +0.009 A 
ATOM     32  C   UNL     1      -0.500   5.165  -8.567  0.00  0.00    +0.039 A 
ATOM     33  C   UNL     1      -1.441   4.601  -9.411  0.00  0.00    +0.123 A 
ATOM     34  C   UNL     1      -1.474   3.228  -9.591  0.00  0.00    +0.039 A 
ATOM     35  C   UNL     1      -0.567   2.423  -8.928  0.00  0.00    +0.009 A 
ATOM     36  F   UNL     1      -2.327   5.388 -10.059  0.00  0.00    -0.205 F 
ENDBRANCH  22  30
ENDBRANCH  20  25
ENDBRANCH   1  20
TORSDOF 4
