REMARK  Name = ZINC39606848
REMARK  10 active torsions:
REMARK  status: ('A' for Active; 'I' for Inactive)
REMARK    1  A    between atoms: C_1  and  C_2
REMARK    2  A    between atoms: C_2  and  C_3
REMARK    3  A    between atoms: C_3  and  C_4
REMARK    4  A    between atoms: C_4  and  C_6
REMARK    5  A    between atoms: C_4  and  C_7
REMARK    6  A    between atoms: C_11  and  C_20
REMARK    7  A    between atoms: N_22  and  C_23
REMARK    8  A    between atoms: C_23  and  C_24
REMARK    9  A    between atoms: C_27  and  C_31
REMARK   10  A    between atoms: C_29  and  C_30
REMARK                            x       y       z     vdW  Elec       q    Type
REMARK                         _______ _______ _______ _____ _____    ______ ____
ROOT
ATOM      1  C   UNL     1      -2.936  -2.601   0.124  0.00  0.00    +0.218 C 
ATOM      2  O   UNL     1      -3.874  -1.843   0.257  0.00  0.00    -0.275 OA
ATOM      3  N   UNL     1      -3.135  -3.933   0.163  0.00  0.00    -0.300 N 
ATOM      4  C   UNL     1      -2.123  -5.007   0.028  0.00  0.00    +0.121 C 
ATOM      5  C   UNL     1      -2.552  -6.079   1.054  0.00  0.00    +0.100 C 
ATOM      6  C   UNL     1      -4.058  -5.844   1.261  0.00  0.00    -0.004 C 
ATOM      7  C   UNL     1      -4.415  -4.655   0.358  0.00  0.00    +0.115 C 
ATOM      8  C   UNL     1      -4.343  -5.496   2.719  0.00  0.00    -0.010 C 
ATOM      9  C   UNL     1      -5.852  -5.324   2.912  0.00  0.00    -0.082 C 
ATOM     10  N   UNL     1      -6.540  -6.566   2.541  0.00  0.00    +0.379 N 
ATOM     11  C   UNL     1      -6.337  -6.845   1.115  0.00  0.00    -0.082 C 
ATOM     12  C   UNL     1      -4.848  -7.081   0.845  0.00  0.00    -0.010 C 
ATOM     13  H   UNL     1      -6.170  -7.330   3.087  0.00  0.00    -0.086 HD
ATOM     14  H   UNL     1      -7.527  -6.471   2.727  0.00  0.00    -0.086 HD
ENDROOT
BRANCH   5  15
ATOM     15  C   UNL     1      -2.305  -7.460   0.504  0.00  0.00    +0.218 C 
ATOM     16  O   UNL     1      -2.396  -7.664  -0.688  0.00  0.00    -0.275 OA
ATOM     17  N   UNL     1      -1.982  -8.469   1.338  0.00  0.00    -0.311 N 
ATOM     18  H   UNL     1      -1.908  -8.306   2.291  0.00  0.00    +0.149 HD
BRANCH  17  19
ATOM     19  C   UNL     1      -1.741  -9.812   0.803  0.00  0.00    +0.139 C 
BRANCH  19  20
ATOM     20  C   UNL     1      -1.400 -10.749   1.933  0.00  0.00    -0.027 A 
ATOM     21  C   UNL     1      -0.080 -11.073   2.188  0.00  0.00    +0.006 A 
ATOM     22  C   UNL     1       0.233 -11.932   3.224  0.00  0.00    +0.004 A 
ATOM     23  C   UNL     1      -0.774 -12.467   4.007  0.00  0.00    -0.050 A 
ATOM     24  C   UNL     1      -2.093 -12.142   3.753  0.00  0.00    +0.007 A 
ATOM     25  C   UNL     1      -2.406 -11.279   2.719  0.00  0.00    -0.046 A 
ATOM     26  C   UNL     1      -3.844 -10.921   2.446  0.00  0.00    +0.044 C 
ATOM     27  C   UNL     1      -0.433 -13.405   5.137  0.00  0.00    +0.044 C 
ENDBRANCH  19  20
ENDBRANCH  17  19
ENDBRANCH   5  15
BRANCH   1  28
ATOM     28  C   UNL     1      -1.548  -2.052  -0.086  0.00  0.00    +0.072 C 
ATOM     29  C   UNL     1      -1.001  -2.547  -1.426  0.00  0.00    +0.017 C 
BRANCH  28  30
ATOM     30  C   UNL     1      -1.600  -0.523  -0.089  0.00  0.00    +0.012 C 
BRANCH  30  32
ATOM     31  C   UNL     1      -0.229   1.564  -0.181  0.00  0.00    +0.004 C 
ATOM     32  C   UNL     1      -0.178   0.035  -0.177  0.00  0.00    -0.003 C 
ENDBRANCH  30  32
ENDBRANCH  28  30
ENDBRANCH   1  28
TORSDOF 6
