REMARK  Name = ZINC34686399
REMARK  13 active torsions:
REMARK  status: ('A' for Active; 'I' for Inactive)
REMARK    1  A    between atoms: C_1  and  C_2
REMARK    2  A    between atoms: C_2  and  C_3
REMARK    3  A    between atoms: C_3  and  C_5
REMARK    4  A    between atoms: C_3  and  O_13
REMARK    5  A    between atoms: N_7  and  C_8
REMARK    6  A    between atoms: C_8  and  C_9
REMARK    7  A    between atoms: C_9  and  N_10
REMARK    8  A    between atoms: N_10  and  C_11
REMARK    9  A    between atoms: N_10  and  C_12
REMARK   10  A    between atoms: O_13  and  C_14
REMARK   11  A    between atoms: C_20  and  C_32
REMARK   12  A    between atoms: C_25  and  C_27
REMARK   13  A    between atoms: C_35  and  C_38
REMARK                            x       y       z     vdW  Elec       q    Type
REMARK                         _______ _______ _______ _____ _____    ______ ____
ROOT
ATOM      1  C   UNL     1      -3.590   1.236  -0.446  0.00  0.00    +0.122 A 
ATOM      2  C   UNL     1      -3.794   2.203   0.528  0.00  0.00    +0.046 A 
ATOM      3  C   UNL     1      -4.431   3.380   0.202  0.00  0.00    +0.007 A 
ATOM      4  C   UNL     1      -4.869   3.612  -1.097  0.00  0.00    -0.040 A 
ATOM      5  C   UNL     1      -4.659   2.658  -2.067  0.00  0.00    -0.016 A 
ATOM      6  C   UNL     1      -4.019   1.470  -1.741  0.00  0.00    +0.051 A 
ATOM      7  C   UNL     1      -5.082   2.857  -3.501  0.00  0.00    +0.137 C 
ATOM      8  N   UNL     1      -5.956   4.031  -3.599  0.00  0.00    -0.290 N 
ATOM      9  C   UNL     1      -5.548   5.241  -2.866  0.00  0.00    +0.113 C 
ATOM     10  C   UNL     1      -5.570   4.917  -1.374  0.00  0.00    +0.054 C 
ATOM     11  C   UNL     1      -7.088   4.003  -4.331  0.00  0.00    +0.219 C 
ATOM     12  O   UNL     1      -7.360   3.021  -4.989  0.00  0.00    -0.275 OA
ENDROOT
BRANCH   7  13
ATOM     13  C   UNL     1      -5.827   1.637  -3.978  0.00  0.00    -0.023 A 
ATOM     14  C   UNL     1      -7.076   1.344  -3.462  0.00  0.00    +0.006 A 
ATOM     15  C   UNL     1      -7.759   0.224  -3.900  0.00  0.00    +0.004 A 
ATOM     16  C   UNL     1      -7.193  -0.602  -4.853  0.00  0.00    -0.050 A 
ATOM     17  C   UNL     1      -5.945  -0.308  -5.369  0.00  0.00    +0.004 A 
ATOM     18  C   UNL     1      -5.264   0.814  -4.935  0.00  0.00    +0.006 A 
ATOM     19  C   UNL     1      -7.938  -1.822  -5.330  0.00  0.00    +0.044 C 
ENDBRANCH   7  13
BRANCH  11  20
ATOM     20  C   UNL     1      -8.015   5.191  -4.331  0.00  0.00    +0.075 C 
ATOM     21  C   UNL     1      -8.570   5.428  -2.912  0.00  0.00    +0.013 C 
ATOM     22  C   UNL     1     -10.034   5.879  -3.147  0.00  0.00    +0.001 C 
ATOM     23  C   UNL     1     -10.477   4.992  -4.337  0.00  0.00    +0.001 C 
ATOM     24  C   UNL     1      -9.227   4.914  -5.237  0.00  0.00    +0.013 C 
ENDBRANCH  11  20
BRANCH   1  25
ATOM     25  O   UNL     1      -2.968   0.070  -0.132  0.00  0.00    -0.480 OA
BRANCH  25  26
ATOM     26  C   UNL     1      -2.636  -0.140   1.242  0.00  0.00    +0.258 C 
BRANCH  26  27
ATOM     27  C   UNL     1      -2.868  -1.585   1.600  0.00  0.00    +0.254 C 
ATOM     28  O   UNL     1      -3.190  -2.378   0.742  0.00  0.00    -0.272 OA
ATOM     29  N   UNL     1      -2.718  -1.995   2.875  0.00  0.00    -0.314 N 
ATOM     30  H   UNL     1      -2.461  -1.361   3.562  0.00  0.00    +0.149 HD
BRANCH  29  31
ATOM     31  C   UNL     1      -2.944  -3.400   3.224  0.00  0.00    +0.086 C 
BRANCH  31  32
ATOM     32  C   UNL     1      -2.709  -3.598   4.723  0.00  0.00    -0.061 C 
BRANCH  32  33
ATOM     33  N   UNL     1      -2.935  -5.007   5.072  0.00  0.00    +0.377 N 
ATOM     34  C   UNL     1      -1.927  -5.844   4.407  0.00  0.00    -0.097 C 
ATOM     35  C   UNL     1      -2.827  -5.174   6.527  0.00  0.00    -0.097 C 
ATOM     36  H   UNL     1      -3.856  -5.285   4.769  0.00  0.00    -0.083 HD
ENDBRANCH  32  33
ENDBRANCH  31  32
ENDBRANCH  29  31
ENDBRANCH  26  27
BRANCH  26  38
ATOM     37  C   UNL     1      -0.955   1.709   1.227  0.00  0.00    +0.008 C 
ATOM     38  C   UNL     1      -1.165   0.213   1.471  0.00  0.00    +0.051 C 
ENDBRANCH  26  38
ENDBRANCH  25  26
ENDBRANCH   1  25
TORSDOF 9
