REMARK  Name = ZINC04975300
REMARK  5 active torsions:
REMARK  status: ('A' for Active; 'I' for Inactive)
REMARK    1  A    between atoms: C_1  and  C_2
REMARK    2  A    between atoms: C_5  and  C_8
REMARK    3  A    between atoms: N_13  and  N_14
REMARK    4  A    between atoms: C_15  and  C_16
REMARK    5  A    between atoms: C_25  and  O_26
REMARK                            x       y       z     vdW  Elec       q    Type
REMARK                         _______ _______ _______ _____ _____    ______ ____
ROOT
ATOM      1  C   UNL     1       0.058  -4.255  -0.021  0.00  0.00    +0.080 A 
ATOM      2  C   UNL     1       0.068  -4.952   1.155  0.00  0.00    +0.077 A 
ATOM      3  S   UNL     1       0.089  -6.633   0.546  0.00  0.00    -0.059 S 
ATOM      4  C   UNL     1       0.083  -6.238  -1.198  0.00  0.00    +0.178 A 
ATOM      5  N   UNL     1       0.060  -4.918  -1.169  0.00  0.00    -0.224 NA
ATOM      6  N   UNL     1       0.093  -7.090  -2.288  0.00  0.00    -0.215 N 
ATOM      7  H   UNL     1       0.088  -6.727  -3.188  0.00  0.00    +0.176 HD
ENDROOT
BRANCH   1  12
ATOM      8  C   UNL     1      -0.018   1.503   0.010  0.00  0.00    +0.044 C 
ATOM      9  C   UNL     1       0.002  -0.004   0.002  0.00  0.00    -0.050 A 
ATOM     10  C   UNL     1       0.006  -0.686  -1.201  0.00  0.00    +0.004 A 
ATOM     11  C   UNL     1       0.024  -2.066  -1.215  0.00  0.00    +0.010 A 
ATOM     12  C   UNL     1       0.039  -2.772  -0.013  0.00  0.00    +0.001 A 
ATOM     13  C   UNL     1       0.036  -2.079   1.196  0.00  0.00    +0.010 A 
ATOM     14  C   UNL     1       0.023  -0.700   1.198  0.00  0.00    +0.004 A 
ENDBRANCH   1  12
BRANCH   6  15
ATOM     15  N   UNL     1       0.111  -8.478  -2.093  0.00  0.00    -0.188 NA
ATOM     16  C   UNL     1       0.121  -9.278  -3.118  0.00  0.00    +0.142 C 
BRANCH  16  17
ATOM     17  C   UNL     1       0.139 -10.734  -2.913  0.00  0.00    +0.044 A 
ATOM     18  C   UNL     1       0.156 -11.648  -4.053  0.00  0.00    -0.006 A 
ATOM     19  C   UNL     1       0.156 -11.173  -5.370  0.00  0.00    +0.009 A 
ATOM     20  C   UNL     1       0.173 -12.060  -6.406  0.00  0.00    +0.001 A 
ATOM     21  C   UNL     1       0.189 -13.433  -6.172  0.00  0.00    +0.001 A 
ATOM     22  C   UNL     1       0.189 -13.928  -4.904  0.00  0.00    +0.008 A 
ATOM     23  C   UNL     1       0.173 -13.043  -3.812  0.00  0.00    -0.017 A 
ATOM     24  C   UNL     1       0.174 -13.518  -2.488  0.00  0.00    +0.012 A 
ATOM     25  C   UNL     1       0.158 -12.653  -1.439  0.00  0.00    +0.046 A 
ATOM     26  C   UNL     1       0.146 -11.272  -1.626  0.00  0.00    +0.126 A 
BRANCH  26  27
ATOM     27  O   UNL     1       0.137 -10.445  -0.549  0.00  0.00    -0.506 OA
ATOM     28  H   UNL     1      -0.750 -10.217  -0.236  0.00  0.00    +0.292 HD
ENDBRANCH  26  27
ENDBRANCH  16  17
ENDBRANCH   6  15
TORSDOF 4
