REMARK  Name = ZINC09255876
REMARK  9 active torsions:
REMARK  status: ('A' for Active; 'I' for Inactive)
REMARK    1  A    between atoms: C_1  and  C_2
REMARK    2  A    between atoms: C_2  and  C_3
REMARK    3  A    between atoms: C_10  and  C_12
REMARK    4  A    between atoms: C_15  and  S_18
REMARK    5  A    between atoms: N_16  and  C_17
REMARK    6  A    between atoms: S_18  and  C_19
REMARK    7  A    between atoms: C_19  and  C_21
REMARK    8  A    between atoms: C_19  and  C_22
REMARK    9  A    between atoms: N_24  and  C_25
REMARK                            x       y       z     vdW  Elec       q    Type
REMARK                         _______ _______ _______ _____ _____    ______ ____
ROOT
ATOM      1  S   UNL     1       1.523  -0.553  -0.985  0.00  0.00    -0.074 S 
ENDROOT
BRANCH   1   5
ATOM      2  C   UNL     1       1.441  -4.451  -1.272  0.00  0.00    +0.171 A 
ATOM      3  N   UNL     1       0.306  -4.180  -0.665  0.00  0.00    -0.128 NA
ATOM      4  N   UNL     1       0.190  -2.911  -0.499  0.00  0.00    -0.122 NA
ATOM      5  C   UNL     1       1.241  -2.293  -0.987  0.00  0.00    +0.192 A 
ATOM      6  N   UNL     1       2.073  -3.249  -1.501  0.00  0.00    -0.305 N 
ATOM      7  C   UNL     1       3.366  -3.038  -2.156  0.00  0.00    +0.153 C 
BRANCH   2  14
ATOM      8  C   UNL     1       2.115 -10.416  -3.036  0.00  0.00    -0.007 C 
ATOM      9  C   UNL     1       3.551 -10.439  -2.506  0.00  0.00    +0.009 C 
ATOM     10  C   UNL     1       4.205  -9.080  -2.795  0.00  0.00    +0.043 C 
ATOM     11  C   UNL     1       3.259  -8.003  -2.370  0.00  0.00    -0.006 A 
ATOM     12  C   UNL     1       1.933  -8.131  -2.079  0.00  0.00    -0.036 A 
ATOM     13  C   UNL     1       1.263  -6.974  -1.702  0.00  0.00    +0.023 A 
ATOM     14  C   UNL     1       1.940  -5.786  -1.640  0.00  0.00    +0.057 A 
ATOM     15  S   UNL     1       3.586  -6.277  -2.132  0.00  0.00    -0.090 S 
ATOM     16  C   UNL     1       1.252  -9.494  -2.174  0.00  0.00    +0.039 C 
BRANCH   8  18
ATOM     17  C   UNL     1       0.148 -11.834  -3.640  0.00  0.00    +0.004 C 
ATOM     18  C   UNL     1       1.536 -11.832  -2.996  0.00  0.00    +0.000 C 
ENDBRANCH   8  18
ENDBRANCH   2  14
ENDBRANCH   1   5
BRANCH   1  19
ATOM     19  C   UNL     1       0.013   0.010  -0.162  0.00  0.00    +0.137 C 
ATOM     20  C   UNL     1      -0.005  -0.507   1.278  0.00  0.00    +0.029 C 
BRANCH  19  21
ATOM     21  C   UNL     1      -0.024   1.516  -0.156  0.00  0.00    +0.230 C 
ATOM     22  O   UNL     1       0.999   2.149  -0.313  0.00  0.00    -0.274 OA
ATOM     23  N   UNL     1      -1.195   2.161   0.019  0.00  0.00    -0.285 N 
ATOM     24  H   UNL     1      -2.023   1.658   0.067  0.00  0.00    +0.155 HD
BRANCH  23  25
ATOM     25  C   UNL     1      -1.215   3.557   0.133  0.00  0.00    +0.035 A 
ATOM     26  C   UNL     1      -2.297   4.277  -0.361  0.00  0.00    +0.025 A 
ATOM     27  C   UNL     1      -2.324   5.653  -0.252  0.00  0.00    +0.029 A 
ATOM     28  C   UNL     1      -1.268   6.320   0.351  0.00  0.00    +0.067 A 
ATOM     29  C   UNL     1      -0.180   5.599   0.848  0.00  0.00    +0.069 A 
ATOM     30  C   UNL     1      -0.159   4.217   0.742  0.00  0.00    +0.051 A 
ATOM     31  N   UNL     1       0.706   6.529   1.387  0.00  0.00    -0.306 N 
ATOM     32  H   UNL     1       1.557   6.325   1.807  0.00  0.00    +0.170 HD
ATOM     33  C   UNL     1       0.182   7.758   1.226  0.00  0.00    +0.325 A 
ATOM     34  O   UNL     1       0.705   8.796   1.588  0.00  0.00    -0.247 OA
ATOM     35  N   UNL     1      -1.009   7.666   0.605  0.00  0.00    -0.306 N 
ATOM     36  H   UNL     1      -1.587   8.410   0.372  0.00  0.00    +0.170 HD
ENDBRANCH  23  25
ENDBRANCH  19  21
ENDBRANCH   1  19
TORSDOF 6
