REMARK  Name = ZINC08914332
REMARK  4 active torsions:
REMARK  status: ('A' for Active; 'I' for Inactive)
REMARK    1  A    between atoms: C_4  and  C_7
REMARK    2  A    between atoms: C_7  and  C_9
REMARK    3  A    between atoms: C_11  and  C_33
REMARK    4  A    between atoms: C_33  and  C_35
REMARK                            x       y       z     vdW  Elec       q    Type
REMARK                         _______ _______ _______ _____ _____    ______ ____
ROOT
ATOM      1  C   UNL     1      -3.003   0.553  -0.822  0.00  0.00    +0.108 C 
ATOM      2  C   UNL     1      -4.288  -0.263  -1.121  0.00  0.00    +0.140 C 
ATOM      3  C   UNL     1      -5.455  -2.084   0.260  0.00  0.00    +0.054 C 
ATOM      4  C   UNL     1      -6.121  -2.107   1.433  0.00  0.00    +0.022 C 
ATOM      5  C   UNL     1      -5.876  -1.037   2.422  0.00  0.00    -0.019 A 
ATOM      6  C   UNL     1      -6.789  -0.814   3.455  0.00  0.00    +0.008 A 
ATOM      7  C   UNL     1      -6.547   0.180   4.380  0.00  0.00    +0.001 A 
ATOM      8  C   UNL     1      -5.405   0.956   4.290  0.00  0.00    +0.000 A 
ATOM      9  C   UNL     1      -4.495   0.743   3.269  0.00  0.00    +0.006 A 
ATOM     10  C   UNL     1      -4.725  -0.244   2.339  0.00  0.00    -0.020 A 
ATOM     11  C   UNL     1      -3.759  -0.498   1.212  0.00  0.00    +0.107 C 
ATOM     12  C   UNL     1      -3.125   0.791   0.698  0.00  0.00    +0.107 C 
ATOM     13  C   UNL     1      -1.804   1.082   1.321  0.00  0.00    -0.008 A 
ATOM     14  C   UNL     1      -0.634   0.358   1.388  0.00  0.00    +0.006 A 
ATOM     15  C   UNL     1       0.436   0.944   2.055  0.00  0.00    +0.000 A 
ATOM     16  C   UNL     1       0.327   2.193   2.630  0.00  0.00    +0.002 A 
ATOM     17  C   UNL     1      -0.848   2.926   2.574  0.00  0.00    +0.023 A 
ATOM     18  C   UNL     1      -1.930   2.350   1.908  0.00  0.00    +0.038 A 
ATOM     19  N   UNL     1      -3.205   2.851   1.704  0.00  0.00    -0.284 N 
ATOM     20  C   UNL     1      -3.975   1.998   0.990  0.00  0.00    +0.231 C 
ATOM     21  O   UNL     1      -5.130   2.169   0.660  0.00  0.00    -0.274 OA
ATOM     22  H   UNL     1      -3.506   3.716   2.025  0.00  0.00    +0.155 HD
ATOM     23  N   UNL     1      -4.239  -1.196   0.044  0.00  0.00    -0.384 NA
ATOM     24  H   UNL     1      -3.490  -1.859  -0.186  0.00  0.00    +0.127 HD
ENDROOT
BRANCH   1  25
ATOM     25  C   UNL     1      -1.768  -0.250  -1.145  0.00  0.00    +0.170 C 
ATOM     26  O   UNL     1      -1.798  -1.460  -1.077  0.00  0.00    -0.292 OA
BRANCH  25  30
ATOM     27  C   UNL     1       1.807   1.726  -2.287  0.00  0.00    +0.000 A 
ATOM     28  C   UNL     1       1.778   0.344  -2.212  0.00  0.00    +0.001 A 
ATOM     29  C   UNL     1       0.619  -0.305  -1.841  0.00  0.00    +0.011 A 
ATOM     30  C   UNL     1      -0.528   0.436  -1.541  0.00  0.00    +0.018 A 
ATOM     31  C   UNL     1      -0.492   1.831  -1.626  0.00  0.00    +0.011 A 
ATOM     32  C   UNL     1       0.676   2.466  -1.992  0.00  0.00    +0.001 A 
ENDBRANCH  25  30
ENDBRANCH   1  25
BRANCH   2  33
ATOM     33  C   UNL     1      -5.440   0.666  -1.407  0.00  0.00    +0.183 C 
ATOM     34  O   UNL     1      -6.305   0.834  -0.575  0.00  0.00    -0.290 OA
BRANCH  33  35
ATOM     35  C   UNL     1      -5.514   1.370  -2.698  0.00  0.00    +0.019 A 
ATOM     36  C   UNL     1      -4.514   1.183  -3.658  0.00  0.00    +0.011 A 
ATOM     37  C   UNL     1      -4.593   1.843  -4.867  0.00  0.00    +0.001 A 
ATOM     38  C   UNL     1      -5.653   2.694  -5.127  0.00  0.00    +0.000 A 
ATOM     39  C   UNL     1      -6.643   2.888  -4.179  0.00  0.00    +0.001 A 
ATOM     40  C   UNL     1      -6.581   2.232  -2.968  0.00  0.00    +0.011 A 
ENDBRANCH  33  35
ENDBRANCH   2  33
TORSDOF 4
