REMARK  Name = ZINC01128929
REMARK  9 active torsions:
REMARK  status: ('A' for Active; 'I' for Inactive)
REMARK    1  A    between atoms: C_1  and  C_2
REMARK    2  A    between atoms: C_5  and  S_8
REMARK    3  A    between atoms: S_8  and  N_11
REMARK    4  A    between atoms: N_11  and  C_12
REMARK    5  A    between atoms: C_17  and  C_18
REMARK    6  A    between atoms: C_18  and  N_19
REMARK    7  A    between atoms: N_19  and  C_20
REMARK    8  A    between atoms: C_21  and  C_27
REMARK    9  A    between atoms: C_25  and  C_26
REMARK                            x       y       z     vdW  Elec       q    Type
REMARK                         _______ _______ _______ _____ _____    ______ ____
ROOT
ATOM      1  C   UNL     1       2.257  -2.533  -2.460  0.00  0.00    +0.053 A 
ATOM      2  C   UNL     1       3.569  -2.516  -2.003  0.00  0.00    +0.025 A 
ATOM      3  C   UNL     1       4.589  -2.131  -2.851  0.00  0.00    +0.002 A 
ATOM      4  C   UNL     1       4.306  -1.763  -4.154  0.00  0.00    +0.000 A 
ATOM      5  C   UNL     1       3.001  -1.779  -4.612  0.00  0.00    +0.007 A 
ATOM      6  C   UNL     1       1.977  -2.168  -3.771  0.00  0.00    -0.008 A 
ENDROOT
BRANCH   1   7
ATOM      7  N   UNL     1       1.223  -2.923  -1.606  0.00  0.00    -0.216 N 
ATOM      8  H   UNL     1       0.465  -3.417  -1.956  0.00  0.00    +0.174 HD
BRANCH   7   9
ATOM      9  S   UNL     1       1.292  -2.541   0.004  0.00  0.00    +0.072 S 
ATOM     10  O   UNL     1       2.538  -3.027   0.484  0.00  0.00    -0.150 OA
ATOM     11  O   UNL     1       0.050  -2.939   0.569  0.00  0.00    -0.150 OA
BRANCH   9  16
ATOM     12  C   UNL     1       1.518   3.475   0.406  0.00  0.00    +0.044 C 
ATOM     13  C   UNL     1       1.462   1.972   0.306  0.00  0.00    -0.050 A 
ATOM     14  C   UNL     1       0.240   1.325   0.300  0.00  0.00    +0.005 A 
ATOM     15  C   UNL     1       0.188  -0.053   0.207  0.00  0.00    +0.029 A 
ATOM     16  C   UNL     1       1.358  -0.784   0.121  0.00  0.00    +0.109 A 
ATOM     17  C   UNL     1       2.579  -0.138   0.126  0.00  0.00    +0.029 A 
ATOM     18  C   UNL     1       2.631   1.241   0.218  0.00  0.00    +0.005 A 
ENDBRANCH   9  16
ENDBRANCH   7   9
ENDBRANCH   1   7
BRANCH   6  19
ATOM     19  C   UNL     1       0.556  -2.191  -4.273  0.00  0.00    +0.138 C 
BRANCH  19  20
ATOM     20  N   UNL     1      -0.141  -0.978  -3.824  0.00  0.00    -0.339 N 
ATOM     21  H   UNL     1      -0.099  -0.887  -2.820  0.00  0.00    +0.146 HD
BRANCH  20  22
ATOM     22  C   UNL     1      -1.464  -0.967  -4.273  0.00  0.00    +0.033 A 
ATOM     23  C   UNL     1      -1.737  -0.992  -5.635  0.00  0.00    -0.029 A 
ATOM     24  C   UNL     1      -3.046  -0.985  -6.075  0.00  0.00    +0.005 A 
ATOM     25  C   UNL     1      -4.084  -0.943  -5.162  0.00  0.00    +0.001 A 
ATOM     26  C   UNL     1      -3.816  -0.912  -3.806  0.00  0.00    +0.005 A 
ATOM     27  C   UNL     1      -2.509  -0.924  -3.359  0.00  0.00    -0.029 A 
ATOM     28  C   UNL     1      -2.217  -0.890  -1.881  0.00  0.00    +0.045 C 
ATOM     29  C   UNL     1      -0.607  -1.032  -6.630  0.00  0.00    +0.045 C 
ENDBRANCH  20  22
ENDBRANCH  19  20
ENDBRANCH   6  19
TORSDOF 6
