REMARK  Name = ZINC16605377
REMARK  5 active torsions:
REMARK  status: ('A' for Active; 'I' for Inactive)
REMARK    1  A    between atoms: C_1  and  C_2
REMARK    2  A    between atoms: C_2  and  C_3
REMARK    3  A    between atoms: C_10  and  C_12
REMARK    4  A    between atoms: N_17  and  C_20
REMARK    5  A    between atoms: C_20  and  C_21
REMARK                            x       y       z     vdW  Elec       q    Type
REMARK                         _______ _______ _______ _____ _____    ______ ____
ROOT
ATOM      1  C   UNL     1       0.517  -0.524  -1.597  0.00  0.00    -0.007 C 
ATOM      2  C   UNL     1       0.725  -1.974  -1.152  0.00  0.00    +0.009 C 
ATOM      3  C   UNL     1       1.397  -2.750  -2.293  0.00  0.00    +0.043 C 
ATOM      4  C   UNL     1       2.563  -1.947  -2.791  0.00  0.00    -0.006 A 
ATOM      5  C   UNL     1       2.814  -0.630  -2.538  0.00  0.00    -0.036 A 
ATOM      6  C   UNL     1       3.961  -0.095  -3.105  0.00  0.00    +0.024 A 
ATOM      7  C   UNL     1       4.736  -0.947  -3.870  0.00  0.00    +0.075 A 
ATOM      8  S   UNL     1       3.817  -2.472  -3.761  0.00  0.00    -0.088 S 
ATOM      9  C   UNL     1       1.866   0.193  -1.671  0.00  0.00    +0.039 C 
ENDROOT
BRANCH   7  10
ATOM     10  C   UNL     1       5.985  -0.670  -4.585  0.00  0.00    +0.253 C 
ATOM     11  O   UNL     1       6.637   0.320  -4.309  0.00  0.00    -0.269 OA
ATOM     12  N   UNL     1       6.413  -1.512  -5.546  0.00  0.00    -0.295 N 
ATOM     13  C   UNL     1       5.571  -2.629  -6.000  0.00  0.00    +0.123 C 
ATOM     14  C   UNL     1       5.480  -2.580  -7.529  0.00  0.00    +0.103 C 
ATOM     15  N   UNL     1       6.835  -2.553  -8.096  0.00  0.00    -0.300 NA
ATOM     16  C   UNL     1       7.558  -1.341  -7.691  0.00  0.00    +0.103 C 
ATOM     17  C   UNL     1       7.731  -1.335  -6.173  0.00  0.00    +0.123 C 
BRANCH  15  18
ATOM     18  C   UNL     1       6.796  -2.679  -9.559  0.00  0.00    +0.081 C 
ATOM     19  C   UNL     1       8.214  -2.898 -10.090  0.00  0.00    +0.020 C 
ENDBRANCH  15  18
ENDBRANCH   7  10
BRANCH   1  21
ATOM     20  C   UNL     1      -0.699   1.601  -1.099  0.00  0.00    +0.004 C 
ATOM     21  C   UNL     1      -0.385   0.192  -0.591  0.00  0.00    +0.000 C 
ENDBRANCH   1  21
TORSDOF 3
