REMARK  Name = ZINC27533332
REMARK  12 active torsions:
REMARK  status: ('A' for Active; 'I' for Inactive)
REMARK    1  A    between atoms: C_1  and  O_2
REMARK    2  A    between atoms: O_2  and  C_3
REMARK    3  A    between atoms: C_5  and  C_13
REMARK    4  A    between atoms: C_7  and  O_11
REMARK    5  A    between atoms: C_8  and  O_9
REMARK    6  A    between atoms: O_9  and  C_10
REMARK    7  A    between atoms: O_11  and  C_12
REMARK    8  A    between atoms: C_18  and  C_23
REMARK    9  A    between atoms: C_30  and  N_36
REMARK   10  A    between atoms: C_31  and  C_32
REMARK   11  A    between atoms: C_32  and  O_34
REMARK   12  A    between atoms: O_34  and  C_35
REMARK                            x       y       z     vdW  Elec       q    Type
REMARK                         _______ _______ _______ _____ _____    ______ ____
ROOT
ATOM      1  C   UNL     1      -0.017   1.148   0.087  0.00  0.00    +0.098 C 
ATOM      2  C   UNL     1      -0.781   1.587  -1.138  0.00  0.00    +0.045 C 
ATOM      3  C   UNL     1      -0.318   2.584  -1.914  0.00  0.00    +0.115 C 
ATOM      4  C   UNL     1      -1.071   3.012  -3.151  0.00  0.00    +0.083 C 
ATOM      5  C   UNL     1      -2.571   2.800  -2.939  0.00  0.00    +0.034 C 
ATOM      6  C   UNL     1      -2.815   1.319  -2.633  0.00  0.00    +0.088 C 
ATOM      7  C   UNL     1      -1.988   0.926  -1.440  0.00  0.00    +0.164 C 
ATOM      8  O   UNL     1      -2.367   0.021  -0.723  0.00  0.00    -0.292 OA
ATOM      9  O   UNL     1       0.827   3.228  -1.618  0.00  0.00    -0.446 OA
ATOM     10  C   UNL     1       1.743   2.636  -0.837  0.00  0.00    +0.195 C 
ATOM     11  C   UNL     1       1.404   1.629   0.010  0.00  0.00    +0.105 C 
ENDROOT
BRANCH   1  14
ATOM     12  C   UNL     1      -1.774   1.405   3.424  0.00  0.00    +0.165 A 
ATOM     13  C   UNL     1      -1.170   0.879   2.292  0.00  0.00    +0.054 A 
ATOM     14  C   UNL     1      -0.674   1.723   1.315  0.00  0.00    -0.028 A 
ATOM     15  C   UNL     1      -0.774   3.094   1.465  0.00  0.00    +0.054 A 
ATOM     16  C   UNL     1      -1.383   3.627   2.591  0.00  0.00    +0.165 A 
ATOM     17  C   UNL     1      -1.882   2.782   3.575  0.00  0.00    +0.204 A 
BRANCH  12  19
ATOM     18  C   UNL     1      -2.115  -0.830   4.162  0.00  0.00    +0.277 C 
ATOM     19  O   UNL     1      -2.260   0.574   4.384  0.00  0.00    -0.491 OA
ENDBRANCH  12  19
BRANCH  17  20
ATOM     20  O   UNL     1      -2.474   3.302   4.685  0.00  0.00    -0.488 OA
ATOM     21  C   UNL     1      -1.629   3.573   5.805  0.00  0.00    +0.277 C 
ENDBRANCH  17  20
BRANCH  16  22
ATOM     22  O   UNL     1      -1.486   4.976   2.735  0.00  0.00    -0.491 OA
ATOM     23  C   UNL     1      -0.951   5.783   1.685  0.00  0.00    +0.277 C 
ENDBRANCH  16  22
ENDBRANCH   1  14
BRANCH   5  24
ATOM     24  C   UNL     1      -3.320   3.190  -4.188  0.00  0.00    -0.043 A 
ATOM     25  C   UNL     1      -3.041   2.558  -5.386  0.00  0.00    +0.004 A 
ATOM     26  C   UNL     1      -3.730   2.912  -6.531  0.00  0.00    +0.000 A 
ATOM     27  C   UNL     1      -4.692   3.904  -6.479  0.00  0.00    +0.000 A 
ATOM     28  C   UNL     1      -4.967   4.539  -5.283  0.00  0.00    +0.000 A 
ATOM     29  C   UNL     1      -4.281   4.182  -4.137  0.00  0.00    +0.004 A 
ENDBRANCH   5  24
BRANCH  10  30
ATOM     30  N   UNL     1       3.045   3.056  -0.894  0.00  0.00    -0.329 N 
ATOM     31  H   UNL     1       3.805   2.578  -0.258  0.00  0.00    +0.145 HD
ATOM     32  H   UNL     1       3.331   3.871  -1.575  0.00  0.00    +0.145 HD
ENDBRANCH  10  30
BRANCH  11  33
ATOM     33  C   UNL     1       2.388   1.036   0.817  0.00  0.00    +0.341 C 
ATOM     34  O   UNL     1       2.858  -0.044   0.507  0.00  0.00    -0.245 OA
BRANCH  33  35
ATOM     35  O   UNL     1       2.812   1.662   1.935  0.00  0.00    -0.465 OA
ATOM     36  C   UNL     1       3.814   1.000   2.709  0.00  0.00    +0.280 C 
ENDBRANCH  33  35
ENDBRANCH  11  33
TORSDOF 8
