REMARK  Name = ZINC20674637
REMARK  9 active torsions:
REMARK  status: ('A' for Active; 'I' for Inactive)
REMARK    1  A    between atoms: C_1  and  C_2
REMARK    2  A    between atoms: C_2  and  O_3
REMARK    3  A    between atoms: O_3  and  C_4
REMARK    4  A    between atoms: C_4  and  C_6
REMARK    5  A    between atoms: C_8  and  C_34
REMARK    6  A    between atoms: N_18  and  C_21
REMARK    7  A    between atoms: C_21  and  C_22
REMARK    8  A    between atoms: C_21  and  C_28
REMARK    9  A    between atoms: C_37  and  C_40
REMARK                            x       y       z     vdW  Elec       q    Type
REMARK                         _______ _______ _______ _____ _____    ______ ____
ROOT
ATOM      1  C   UNL     1      -2.648  -4.074   6.555  0.00  0.00    +0.210 C 
ATOM      2  C   UNL     1      -1.865  -2.754   6.555  0.00  0.00    +0.126 C 
ATOM      3  N   UNL     1      -2.323  -1.965   5.399  0.00  0.00    -0.311 N 
ATOM      4  C   UNL     1      -2.349  -2.578   4.178  0.00  0.00    +0.175 C 
ATOM      5  N   UNL     1      -2.487  -3.892   4.096  0.00  0.00    -0.151 NA
ATOM      6  C   UNL     1      -2.612  -4.662   5.167  0.00  0.00    +0.255 C 
ATOM      7  O   UNL     1      -2.703  -5.866   5.028  0.00  0.00    -0.273 OA
ATOM      8  N   UNL     1      -2.240  -1.834   3.042  0.00  0.00    -0.303 N 
ATOM      9  C   UNL     1      -2.265  -2.472   1.716  0.00  0.00    +0.123 C 
ATOM     10  C   UNL     1      -1.054  -1.982   0.917  0.00  0.00    +0.104 C 
ATOM     11  N   UNL     1      -1.044  -0.513   0.900  0.00  0.00    -0.289 NA
ATOM     12  C   UNL     1      -0.888   0.035   2.254  0.00  0.00    +0.104 C 
ATOM     13  C   UNL     1      -2.093  -0.372   3.108  0.00  0.00    +0.123 C 
ATOM     14  H   UNL     1      -2.630  -0.918   5.534  0.00  0.00    +0.149 HD
ENDROOT
BRANCH   2  15
ATOM     15  C   UNL     1      -0.390  -3.034   6.431  0.00  0.00    -0.026 A 
ATOM     16  C   UNL     1       0.151  -3.357   5.201  0.00  0.00    +0.006 A 
ATOM     17  C   UNL     1       1.506  -3.610   5.086  0.00  0.00    +0.004 A 
ATOM     18  C   UNL     1       2.317  -3.549   6.203  0.00  0.00    -0.050 A 
ATOM     19  C   UNL     1       1.775  -3.230   7.434  0.00  0.00    +0.004 A 
ATOM     20  C   UNL     1       0.422  -2.973   7.548  0.00  0.00    +0.006 A 
ATOM     21  C   UNL     1       3.793  -3.829   6.079  0.00  0.00    +0.044 C 
ENDBRANCH   2  15
BRANCH   1  22
ATOM     22  C   UNL     1      -2.016  -5.036   7.527  0.00  0.00    +0.321 C 
ATOM     23  O   UNL     1      -1.040  -4.704   8.157  0.00  0.00    -0.250 OA
BRANCH  22  24
ATOM     24  O   UNL     1      -2.537  -6.262   7.693  0.00  0.00    -0.464 OA
BRANCH  24  26
ATOM     25  C   UNL     1      -2.607  -8.479   8.699  0.00  0.00    +0.048 C 
ATOM     26  C   UNL     1      -1.876  -7.136   8.646  0.00  0.00    +0.229 C 
ENDBRANCH  24  26
ENDBRANCH  22  24
ENDBRANCH   1  22
BRANCH  11  27
ATOM     27  C   UNL     1       0.002  -0.004   0.002  0.00  0.00    +0.117 C 
BRANCH  27  28
ATOM     28  C   UNL     1      -0.018   1.503   0.010  0.00  0.00    -0.026 A 
ATOM     29  C   UNL     1      -1.225   2.178   0.020  0.00  0.00    +0.005 A 
ATOM     30  C   UNL     1      -1.244   3.560   0.032  0.00  0.00    +0.000 A 
ATOM     31  C   UNL     1      -0.056   4.267   0.025  0.00  0.00    +0.000 A 
ATOM     32  C   UNL     1       1.151   3.592   0.010  0.00  0.00    +0.000 A 
ATOM     33  C   UNL     1       1.169   2.210   0.003  0.00  0.00    +0.005 A 
ENDBRANCH  27  28
BRANCH  27  34
ATOM     34  C   UNL     1      -0.251  -0.502  -1.398  0.00  0.00    -0.026 A 
ATOM     35  C   UNL     1      -1.542  -0.557  -1.889  0.00  0.00    +0.005 A 
ATOM     36  C   UNL     1      -1.774  -1.010  -3.174  0.00  0.00    +0.000 A 
ATOM     37  C   UNL     1      -0.716  -1.416  -3.965  0.00  0.00    +0.000 A 
ATOM     38  C   UNL     1       0.575  -1.367  -3.472  0.00  0.00    +0.000 A 
ATOM     39  C   UNL     1       0.807  -0.910  -2.188  0.00  0.00    +0.005 A 
ENDBRANCH  27  34
ENDBRANCH  11  27
TORSDOF 7
