REMARK  Name = ZINC35035328
REMARK  6 active torsions:
REMARK  status: ('A' for Active; 'I' for Inactive)
REMARK    1  A    between atoms: C_1  and  C_2
REMARK    2  A    between atoms: C_2  and  C_3
REMARK    3  A    between atoms: C_3  and  C_5
REMARK    4  A    between atoms: C_3  and  N_16
REMARK    5  A    between atoms: C_20  and  C_23
REMARK    6  A    between atoms: C_24  and  C_26
REMARK                            x       y       z     vdW  Elec       q    Type
REMARK                         _______ _______ _______ _____ _____    ______ ____
ROOT
ATOM      1  N   UNL     1      -2.654   0.477   0.509  0.00  0.00    +0.388 N 
ATOM      2  C   UNL     1      -4.056   0.083   0.692  0.00  0.00    -0.059 C 
ATOM      3  C   UNL     1      -4.310  -0.228   2.171  0.00  0.00    +0.090 C 
ATOM      4  N   UNL     1      -3.897   0.937   2.969  0.00  0.00    -0.298 N 
ATOM      5  C   UNL     1      -2.560   1.501   2.732  0.00  0.00    +0.057 C 
ATOM      6  C   UNL     1      -2.389   1.730   1.227  0.00  0.00    -0.055 C 
ATOM      7  C   UNL     1      -2.423   2.830   3.478  0.00  0.00    +0.026 C 
ATOM      8  C   UNL     1      -4.722   1.472   3.891  0.00  0.00    +0.247 C 
ATOM      9  O   UNL     1      -4.409   2.497   4.465  0.00  0.00    -0.270 OA
ATOM     10  H   UNL     1      -2.053  -0.249   0.869  0.00  0.00    -0.081 HD
ENDROOT
BRANCH   8  11
ATOM     11  C   UNL     1      -6.007   0.812   4.205  0.00  0.00    +0.038 A 
ATOM     12  C   UNL     1      -6.149  -0.566   4.029  0.00  0.00    +0.014 A 
ATOM     13  C   UNL     1      -7.349  -1.176   4.323  0.00  0.00    +0.022 A 
ATOM     14  C   UNL     1      -8.415  -0.425   4.793  0.00  0.00    +0.059 A 
ATOM     15  C   UNL     1      -8.280   0.943   4.970  0.00  0.00    +0.060 A 
ATOM     16  C   UNL     1      -7.081   1.564   4.684  0.00  0.00    +0.034 A 
ATOM     17 CL   UNL     1      -9.621   1.876   5.559  0.00  0.00    -0.082 Cl
ATOM     18 CL   UNL     1      -9.924  -1.201   5.160  0.00  0.00    -0.082 Cl
ENDBRANCH   8  11
BRANCH   1  19
ATOM     19  C   UNL     1      -2.383   0.669  -0.922  0.00  0.00    -0.001 C 
BRANCH  19  20
ATOM     20  C   UNL     1      -3.346   1.683  -1.484  0.00  0.00    +0.098 A 
ATOM     21  N   UNL     1      -4.117   2.329  -0.654  0.00  0.00    -0.197 NA
ATOM     22  C   UNL     1      -5.002   3.250  -1.080  0.00  0.00    +0.281 A 
ATOM     23  O   UNL     1      -5.716   3.846  -0.292  0.00  0.00    -0.265 OA
ATOM     24  C   UNL     1      -5.083   3.518  -2.527  0.00  0.00    +0.065 A 
ATOM     25  C   UNL     1      -5.968   4.453  -3.059  0.00  0.00    +0.015 A 
ATOM     26  C   UNL     1      -5.997   4.660  -4.421  0.00  0.00    +0.001 A 
ATOM     27  C   UNL     1      -5.154   3.945  -5.260  0.00  0.00    +0.002 A 
ATOM     28  C   UNL     1      -4.273   3.016  -4.748  0.00  0.00    +0.026 A 
ATOM     29  C   UNL     1      -4.228   2.793  -3.378  0.00  0.00    +0.053 A 
ATOM     30  N   UNL     1      -3.361   1.879  -2.814  0.00  0.00    -0.344 N 
ATOM     31  H   UNL     1      -2.760   1.371  -3.382  0.00  0.00    +0.167 HD
ENDBRANCH  19  20
BRANCH  19  33
ATOM     32  C   UNL     1      -1.544  -1.676  -1.124  0.00  0.00    +0.002 C 
ATOM     33  C   UNL     1      -2.559  -0.662  -1.657  0.00  0.00    -0.011 C 
ENDBRANCH  19  33
ENDBRANCH   1  19
TORSDOF 4
