REMARK  Name = ZINC04491958
REMARK  12 active torsions:
REMARK  status: ('A' for Active; 'I' for Inactive)
REMARK    1  A    between atoms: C_1  and  C_2
REMARK    2  A    between atoms: C_4  and  C_32
REMARK    3  A    between atoms: C_6  and  N_8
REMARK    4  A    between atoms: C_9  and  C_11
REMARK    5  A    between atoms: C_11  and  C_13
REMARK    6  A    between atoms: C_11  and  N_24
REMARK    7  A    between atoms: C_13  and  C_14
REMARK    8  A    between atoms: C_25  and  O_27
REMARK    9  A    between atoms: O_27  and  C_28
REMARK   10  A    between atoms: C_28  and  C_29
REMARK   11  A    between atoms: C_29  and  C_30
REMARK   12  A    between atoms: C_29  and  C_31
REMARK                            x       y       z     vdW  Elec       q    Type
REMARK                         _______ _______ _______ _____ _____    ______ ____
ROOT
ATOM      1  C   UNL     1      -2.486   1.196  -0.120  0.00  0.00    +0.167 C 
ENDROOT
BRANCH   1   3
ATOM      2  N   UNL     1      -4.789   1.478   0.737  0.00  0.00    -0.284 N 
ATOM      3  C   UNL     1      -3.586   2.031   0.483  0.00  0.00    +0.238 C 
ATOM      4  O   UNL     1      -3.389   3.200   0.739  0.00  0.00    -0.273 OA
ATOM      5  H   UNL     1      -4.972   0.566   0.463  0.00  0.00    +0.155 HD
BRANCH   2  11
ATOM      6  C   UNL     1      -9.540   2.549   1.414  0.00  0.00    +0.044 C 
ATOM      7  C   UNL     1      -8.085   2.760   1.745  0.00  0.00    -0.048 A 
ATOM      8  C   UNL     1      -7.723   3.689   2.703  0.00  0.00    +0.006 A 
ATOM      9  C   UNL     1      -6.389   3.886   3.010  0.00  0.00    -0.048 A 
ATOM     10  C   UNL     1      -5.414   3.154   2.361  0.00  0.00    +0.026 A 
ATOM     11  C   UNL     1      -5.774   2.221   1.397  0.00  0.00    +0.034 A 
ATOM     12  C   UNL     1      -7.114   2.030   1.087  0.00  0.00    +0.026 A 
ATOM     13  C   UNL     1      -5.998   4.899   4.055  0.00  0.00    +0.044 C 
ENDBRANCH   2  11
ENDBRANCH   1   3
BRANCH   1  14
ATOM     14  N   UNL     1      -1.289   2.020  -0.298  0.00  0.00    -0.269 N 
ATOM     15  C   UNL     1      -0.071   1.443  -0.332  0.00  0.00    +0.401 C 
ATOM     16  O   UNL     1       0.033   0.238  -0.214  0.00  0.00    -0.226 OA
ATOM     17  H   UNL     1      -1.372   2.982  -0.392  0.00  0.00    +0.153 HD
BRANCH  15  18
ATOM     18  O   UNL     1       1.029   2.200  -0.501  0.00  0.00    -0.450 OA
BRANCH  18  19
ATOM     19  C   UNL     1       2.306   1.510  -0.533  0.00  0.00    +0.236 C 
BRANCH  19  20
ATOM     20  C   UNL     1       3.431   2.528  -0.731  0.00  0.00    +0.021 C 
ATOM     21  C   UNL     1       3.501   3.453   0.485  0.00  0.00    +0.010 C 
ATOM     22  C   UNL     1       4.763   1.791  -0.889  0.00  0.00    +0.010 C 
ENDBRANCH  19  20
ENDBRANCH  18  19
ENDBRANCH  15  18
ENDBRANCH   1  14
BRANCH   1  23
ATOM     23  C   UNL     1      -2.941   0.657  -1.478  0.00  0.00    +0.069 C 
BRANCH  23  24
ATOM     24  C   UNL     1      -1.892  -0.276  -2.026  0.00  0.00    -0.020 A 
ATOM     25  C   UNL     1      -0.911   0.041  -2.886  0.00  0.00    +0.087 A 
ATOM     26  N   UNL     1      -0.150  -1.064  -3.154  0.00  0.00    -0.360 N 
ATOM     27  H   UNL     1       0.618  -1.081  -3.746  0.00  0.00    +0.165 HD
ATOM     28  C   UNL     1      -0.640  -2.149  -2.462  0.00  0.00    +0.047 A 
ATOM     29  C   UNL     1      -1.752  -1.703  -1.724  0.00  0.00    +0.003 A 
ATOM     30  C   UNL     1      -2.458  -2.598  -0.918  0.00  0.00    +0.010 A 
ATOM     31  C   UNL     1      -2.064  -3.905  -0.849  0.00  0.00    +0.001 A 
ATOM     32  C   UNL     1      -0.967  -4.350  -1.575  0.00  0.00    +0.002 A 
ATOM     33  C   UNL     1      -0.256  -3.483  -2.376  0.00  0.00    +0.026 A 
ENDBRANCH  23  24
ENDBRANCH   1  23
TORSDOF 8
