REMARK  Name = ZINC12381786
REMARK  9 active torsions:
REMARK  status: ('A' for Active; 'I' for Inactive)
REMARK    1  A    between atoms: C_1  and  C_2
REMARK    2  A    between atoms: C_2  and  C_3
REMARK    3  A    between atoms: C_2  and  C_4
REMARK    4  A    between atoms: C_2  and  C_5
REMARK    5  A    between atoms: C_11  and  C_13
REMARK    6  A    between atoms: C_19  and  C_21
REMARK    7  A    between atoms: C_21  and  C_22
REMARK    8  A    between atoms: C_21  and  C_23
REMARK    9  A    between atoms: C_21  and  C_24
REMARK                            x       y       z     vdW  Elec       q    Type
REMARK                         _______ _______ _______ _____ _____    ______ ____
ROOT
ATOM      1  C   UNL     1      -4.100  -3.342  -3.183  0.00  0.00    +0.109 A 
ATOM      2  N   UNL     1      -4.173  -2.068  -2.851  0.00  0.00    -0.144 NA
ATOM      3  N   UNL     1      -3.142  -1.437  -2.488  0.00  0.00    -0.126 NA
ATOM      4  C   UNL     1      -1.953  -2.013  -2.436  0.00  0.00    +0.188 A 
ATOM      5  S   UNL     1      -2.350  -3.628  -2.945  0.00  0.00    -0.035 S 
ATOM      6  N   UNL     1      -0.724  -1.476  -2.069  0.00  0.00    -0.263 N 
ATOM      7  C   UNL     1      -0.636  -0.182  -1.703  0.00  0.00    +0.222 C 
ATOM      8  O   UNL     1      -1.629   0.514  -1.694  0.00  0.00    -0.275 OA
ATOM      9  H   UNL     1       0.070  -2.033  -2.077  0.00  0.00    +0.157 HD
ENDROOT
BRANCH   7  10
ATOM     10  C   UNL     1       0.696   0.400  -1.306  0.00  0.00    +0.078 C 
ATOM     11  C   UNL     1       0.519   1.875  -0.938  0.00  0.00    +0.032 C 
ATOM     12  C   UNL     1       1.881   2.471  -0.568  0.00  0.00    +0.108 C 
ATOM     13  N   UNL     1       2.483   1.653   0.493  0.00  0.00    -0.301 N 
ATOM     14  C   UNL     1       2.617   0.206   0.280  0.00  0.00    +0.108 C 
ATOM     15  C   UNL     1       1.248  -0.365  -0.100  0.00  0.00    +0.032 C 
ATOM     16  C   UNL     1       2.905   2.220   1.641  0.00  0.00    +0.221 C 
ATOM     17  O   UNL     1       3.303   1.523   2.551  0.00  0.00    -0.275 OA
BRANCH  16  18
ATOM     18  C   UNL     1       2.881   3.719   1.795  0.00  0.00    +0.039 C 
ATOM     19  C   UNL     1       3.582   4.109   3.098  0.00  0.00    +0.020 C 
ATOM     20  C   UNL     1       3.607   4.364   0.613  0.00  0.00    +0.020 C 
ATOM     21  C   UNL     1       1.431   4.205   1.830  0.00  0.00    +0.020 C 
ENDBRANCH  16  18
ENDBRANCH   7  10
BRANCH   1  23
ATOM     22  C   UNL     1      -5.821  -3.757  -4.919  0.00  0.00    +0.018 C 
ATOM     23  C   UNL     1      -5.182  -4.288  -3.634  0.00  0.00    +0.013 C 
ATOM     24  C   UNL     1      -4.576  -5.668  -3.898  0.00  0.00    +0.018 C 
ATOM     25  C   UNL     1      -6.249  -4.400  -2.543  0.00  0.00    +0.018 C 
ENDBRANCH   1  23
TORSDOF 3
