REMARK  Name = ZINC01125427
REMARK  8 active torsions:
REMARK  status: ('A' for Active; 'I' for Inactive)
REMARK    1  A    between atoms: C_1  and  C_2
REMARK    2  A    between atoms: C_2  and  O_3
REMARK    3  A    between atoms: O_3  and  C_4
REMARK    4  A    between atoms: C_4  and  C_6
REMARK    5  A    between atoms: C_7  and  C_23
REMARK    6  A    between atoms: C_12  and  C_14
REMARK    7  A    between atoms: C_19  and  O_20
REMARK    8  A    between atoms: O_20  and  C_21
REMARK                            x       y       z     vdW  Elec       q    Type
REMARK                         _______ _______ _______ _____ _____    ______ ____
ROOT
ATOM      1  C   UNL     1      -1.923  -0.626   1.353  0.00  0.00    +0.078 C 
ATOM      2  C   UNL     1      -2.212  -1.734   2.069  0.00  0.00    +0.021 C 
ATOM      3  N   UNL     1      -1.927  -2.979   1.586  0.00  0.00    -0.273 N 
ATOM      4  C   UNL     1      -1.353  -3.200   0.396  0.00  0.00    +0.304 C 
ATOM      5  O   UNL     1      -1.138  -4.346   0.051  0.00  0.00    -0.252 OA
ATOM      6  N   UNL     1      -1.008  -2.195  -0.432  0.00  0.00    -0.288 N 
ATOM      7  C   UNL     1      -1.273  -0.811  -0.003  0.00  0.00    +0.147 C 
ATOM      8  C   UNL     1      -2.859  -1.594   3.423  0.00  0.00    +0.061 C 
ATOM      9  H   UNL     1      -2.152  -3.746   2.135  0.00  0.00    +0.156 HD
ATOM     10  H   UNL     1      -0.594  -2.378  -1.290  0.00  0.00    +0.151 HD
ENDROOT
BRANCH   7  11
ATOM     11  C   UNL     1       0.037  -0.067   0.004  0.00  0.00    +0.020 A 
ATOM     12  C   UNL     1       0.688   0.176   1.199  0.00  0.00    +0.023 A 
ATOM     13  C   UNL     1       1.890   0.860   1.206  0.00  0.00    +0.014 A 
ATOM     14  C   UNL     1       2.444   1.301   0.018  0.00  0.00    +0.018 A 
ATOM     15  C   UNL     1       1.798   1.060  -1.179  0.00  0.00    +0.047 A 
ATOM     16  C   UNL     1       0.591   0.374  -1.188  0.00  0.00    +0.125 A 
ATOM     17  I   UNL     1       2.873   1.227   3.019  0.00  0.00    -0.044 I 
BRANCH  16  18
ATOM     18  O   UNL     1      -0.044   0.131  -2.365  0.00  0.00    -0.495 OA
ATOM     19  C   UNL     1       0.525   0.709  -3.541  0.00  0.00    +0.277 C 
ENDBRANCH  16  18
ENDBRANCH   7  11
BRANCH   1  20
ATOM     20  C   UNL     1      -2.217   0.664   1.854  0.00  0.00    +0.339 C 
ATOM     21  O   UNL     1      -2.643   0.795   2.986  0.00  0.00    -0.245 OA
BRANCH  20  22
ATOM     22  O   UNL     1      -2.024   1.749   1.076  0.00  0.00    -0.462 OA
BRANCH  22  24
ATOM     23  C   UNL     1      -2.263   4.094   0.540  0.00  0.00    +0.048 C 
ATOM     24  C   UNL     1      -2.446   3.009   1.603  0.00  0.00    +0.229 C 
ENDBRANCH  22  24
ENDBRANCH  20  22
ENDBRANCH   1  20
TORSDOF 5
