REMARK  Name = ZINC09441031
REMARK  7 active torsions:
REMARK  status: ('A' for Active; 'I' for Inactive)
REMARK    1  A    between atoms: C_1  and  C_2
REMARK    2  A    between atoms: C_3  and  C_20
REMARK    3  A    between atoms: C_4  and  C_10
REMARK    4  A    between atoms: C_15  and  O_16
REMARK    5  A    between atoms: O_16  and  C_17
REMARK    6  A    between atoms: N_22  and  C_23
REMARK    7  A    between atoms: C_28  and  C_29
REMARK                            x       y       z     vdW  Elec       q    Type
REMARK                         _______ _______ _______ _____ _____    ______ ____
ROOT
ATOM      1  C   UNL     1       0.196   2.625   1.341  0.00  0.00    +0.061 C 
ATOM      2  C   UNL     1      -0.850   2.160   2.322  0.00  0.00    +0.017 C 
ATOM      3  C   UNL     1      -0.472   1.751   3.551  0.00  0.00    +0.056 C 
ATOM      4  C   UNL     1      -1.555   1.292   4.506  0.00  0.00    +0.143 C 
ATOM      5  N   UNL     1      -2.941   1.329   4.010  0.00  0.00    -0.315 N 
ATOM      6  C   UNL     1      -3.161   1.764   2.754  0.00  0.00    +0.135 C 
ATOM      7  S   UNL     1      -4.768   1.814   2.164  0.00  0.00    -0.019 S 
ATOM      8  N   UNL     1      -2.165   2.164   1.954  0.00  0.00    -0.300 N 
ATOM      9  H   UNL     1      -3.678   1.048   4.575  0.00  0.00    +0.149 HD
ATOM     10  H   UNL     1      -2.389   2.471   1.061  0.00  0.00    +0.154 HD
ENDROOT
BRANCH   4  11
ATOM     11  C   UNL     1      -1.246  -0.126   4.912  0.00  0.00    +0.019 A 
ATOM     12  C   UNL     1      -1.869  -1.180   4.271  0.00  0.00    +0.009 A 
ATOM     13  C   UNL     1      -1.582  -2.481   4.640  0.00  0.00    +0.001 A 
ATOM     14  C   UNL     1      -0.680  -2.731   5.657  0.00  0.00    +0.004 A 
ATOM     15  C   UNL     1      -0.059  -1.681   6.305  0.00  0.00    +0.046 A 
ATOM     16  C   UNL     1      -0.341  -0.374   5.933  0.00  0.00    +0.132 A 
BRANCH  16  17
ATOM     17  O   UNL     1       0.269   0.661   6.569  0.00  0.00    -0.434 OA
BRANCH  17  18
ATOM     18  C   UNL     1       1.158   0.332   7.638  0.00  0.00    +0.541 C 
ATOM     19  F   UNL     1       0.435  -0.263   8.678  0.00  0.00    -0.166 F 
ATOM     20  F   UNL     1       2.132  -0.559   7.178  0.00  0.00    -0.166 F 
ENDBRANCH  17  18
ENDBRANCH  16  17
ENDBRANCH   4  11
BRANCH   3  21
ATOM     21  C   UNL     1       0.891   1.752   3.936  0.00  0.00    +0.248 C 
ATOM     22  O   UNL     1       1.317   2.628   4.666  0.00  0.00    -0.270 OA
ATOM     23  N   UNL     1       1.716   0.782   3.495  0.00  0.00    -0.281 N 
ATOM     24  H   UNL     1       1.400   0.133   2.847  0.00  0.00    +0.155 HD
BRANCH  23  25
ATOM     25  C   UNL     1       3.030   0.711   3.971  0.00  0.00    +0.045 A 
ATOM     26  C   UNL     1       3.651   1.848   4.472  0.00  0.00    +0.024 A 
ATOM     27  C   UNL     1       4.947   1.775   4.941  0.00  0.00    +0.002 A 
ATOM     28  C   UNL     1       5.628   0.571   4.912  0.00  0.00    +0.001 A 
ATOM     29  C   UNL     1       5.013  -0.562   4.414  0.00  0.00    +0.014 A 
ATOM     30  C   UNL     1       3.714  -0.497   3.949  0.00  0.00    +0.076 A 
BRANCH  30  31
ATOM     31  C   UNL     1       3.042  -1.735   3.412  0.00  0.00    +0.419 C 
ATOM     32  F   UNL     1       3.894  -2.833   3.568  0.00  0.00    -0.166 F 
ATOM     33  F   UNL     1       1.854  -1.963   4.115  0.00  0.00    -0.166 F 
ATOM     34  F   UNL     1       2.753  -1.557   2.055  0.00  0.00    -0.166 F 
ENDBRANCH  30  31
ENDBRANCH  23  25
ENDBRANCH   3  21
TORSDOF 6
