REMARK  Name = ZINC20463874
REMARK  4 active torsions:
REMARK  status: ('A' for Active; 'I' for Inactive)
REMARK    1  A    between atoms: C_4  and  C_7
REMARK    2  A    between atoms: C_7  and  N_8
REMARK    3  A    between atoms: N_8  and  C_9
REMARK    4  A    between atoms: C_18  and  N_23
REMARK                            x       y       z     vdW  Elec       q    Type
REMARK                         _______ _______ _______ _____ _____    ______ ____
ROOT
ATOM      1  C   UNL     1       3.732  -2.416  -3.651  0.00  0.00    -0.009 C 
ATOM      2  C   UNL     1       2.818  -2.215  -4.871  0.00  0.00    +0.135 C 
ATOM      3  C   UNL     1       3.403  -3.043  -6.039  0.00  0.00    +0.193 C 
ATOM      4  O   UNL     1       2.777  -4.334  -5.928  0.00  0.00    -0.350 OA
ATOM      5  C   UNL     1       1.927  -4.290  -4.768  0.00  0.00    +0.240 C 
ATOM      6  O   UNL     1       1.565  -2.885  -4.582  0.00  0.00    -0.349 OA
ATOM      7  C   UNL     1       2.751  -4.737  -3.551  0.00  0.00    +0.019 C 
ATOM      8  C   UNL     1       4.048  -3.910  -3.515  0.00  0.00    +0.136 C 
ATOM      9  O   UNL     1       4.865  -4.327  -4.610  0.00  0.00    -0.234 OA
ENDROOT
BRANCH   7  10
ATOM     10  N   UNL     1       1.992  -4.478  -2.320  0.00  0.00    +0.387 N 
ATOM     11  C   UNL     1       2.842  -4.754  -1.156  0.00  0.00    -0.078 C 
ATOM     12  C   UNL     1       2.083  -4.408   0.127  0.00  0.00    -0.019 C 
ATOM     13  C   UNL     1       0.812  -5.259   0.208  0.00  0.00    -0.004 C 
ATOM     14  C   UNL     1      -0.031  -5.019  -1.048  0.00  0.00    -0.019 C 
ATOM     15  C   UNL     1       0.806  -5.342  -2.287  0.00  0.00    -0.078 C 
ATOM     16  H   UNL     1       1.703  -3.511  -2.302  0.00  0.00    -0.081 HD
ENDBRANCH   7  10
BRANCH   1  17
ATOM     17  N   UNL     1       3.049  -1.944  -2.440  0.00  0.00    +0.385 N 
ATOM     18  H   UNL     1       3.458  -2.384  -1.629  0.00  0.00    -0.085 HD
ATOM     19  H   UNL     1       2.069  -2.180  -2.492  0.00  0.00    -0.085 HD
BRANCH  17  20
ATOM     20  C   UNL     1       3.195  -0.486  -2.332  0.00  0.00    -0.079 C 
BRANCH  20  24
ATOM     21  C   UNL     1       0.525   1.749   0.238  0.00  0.00    +0.000 C 
ATOM     22  C   UNL     1       2.030   1.996   0.371  0.00  0.00    +0.000 C 
ATOM     23  C   UNL     1       2.741   1.504  -0.891  0.00  0.00    +0.002 C 
ATOM     24  C   UNL     1       2.484   0.006  -1.070  0.00  0.00    -0.028 C 
ATOM     25  C   UNL     1       0.980  -0.241  -1.203  0.00  0.00    +0.002 C 
ATOM     26  C   UNL     1       0.268   0.251   0.059  0.00  0.00    +0.000 C 
ENDBRANCH  20  24
ENDBRANCH  17  20
ENDBRANCH   1  17
TORSDOF 4
