REMARK  Name = ZINC27628819
REMARK  6 active torsions:
REMARK  status: ('A' for Active; 'I' for Inactive)
REMARK    1  A    between atoms: C_6  and  C_7
REMARK    2  A    between atoms: N_11  and  C_15
REMARK    3  A    between atoms: C_15  and  C_16
REMARK    4  A    between atoms: C_16  and  N_17
REMARK    5  A    between atoms: C_18  and  C_20
REMARK    6  A    between atoms: C_25  and  O_26
REMARK                            x       y       z     vdW  Elec       q    Type
REMARK                         _______ _______ _______ _____ _____    ______ ____
ROOT
ATOM      1  C   UNL     1      -1.032  -0.883   0.008  0.00  0.00    +0.028 C 
ATOM      2  C   UNL     1      -0.068   0.011  -0.328  0.00  0.00    +0.080 C 
ATOM      3  C   UNL     1      -0.144   1.482  -0.434  0.00  0.00    +0.260 C 
ATOM      4  O   UNL     1      -1.178   2.086  -0.215  0.00  0.00    -0.269 OA
ATOM      5  N   UNL     1       0.966   2.109  -0.785  0.00  0.00    -0.227 N 
ATOM      6  C   UNL     1       2.108   1.435  -1.032  0.00  0.00    +0.286 C 
ATOM      7  O   UNL     1       3.191   1.880  -1.360  0.00  0.00    -0.262 OA
ATOM      8  S   UNL     1       1.644  -0.267  -0.761  0.00  0.00    -0.026 S 
ENDROOT
BRANCH   1  14
ATOM      9  C   UNL     1       0.394  -2.776  -0.743  0.00  0.00    +0.012 A 
ATOM     10  C   UNL     1       0.638  -4.128  -0.850  0.00  0.00    +0.050 A 
ATOM     11  C   UNL     1      -0.274  -5.045  -0.345  0.00  0.00    +0.166 A 
ATOM     12  C   UNL     1      -1.441  -4.602   0.279  0.00  0.00    +0.167 A 
ATOM     13  C   UNL     1      -1.691  -3.249   0.396  0.00  0.00    +0.057 A 
ATOM     14  C   UNL     1      -0.771  -2.324  -0.113  0.00  0.00    -0.020 A 
ATOM     15  O   UNL     1      -2.160  -5.691   0.682  0.00  0.00    -0.453 OA
ATOM     16  C   UNL     1      -1.624  -6.801  -0.062  0.00  0.00    +0.466 C 
ATOM     17  O   UNL     1      -0.265  -6.409  -0.332  0.00  0.00    -0.453 OA
ENDBRANCH   1  14
BRANCH   5  18
ATOM     18  C   UNL     1       0.955   3.569  -0.908  0.00  0.00    +0.136 C 
BRANCH  18  19
ATOM     19  C   UNL     1       1.322   4.197   0.438  0.00  0.00    +0.124 C 
BRANCH  19  20
ATOM     20  N   UNL     1       1.310   5.657   0.314  0.00  0.00    -0.310 N 
ATOM     21  C   UNL     1       1.605   6.426   1.381  0.00  0.00    +0.248 C 
ATOM     22  O   UNL     1       1.881   5.908   2.446  0.00  0.00    -0.270 OA
ATOM     23  H   UNL     1       1.061   6.126  -0.649  0.00  0.00    +0.149 HD
BRANCH  21  24
ATOM     24  C   UNL     1       1.594   7.896   1.257  0.00  0.00    +0.079 A 
ATOM     25  C   UNL     1       1.278   8.495   0.035  0.00  0.00    +0.036 A 
ATOM     26  C   UNL     1       1.269   9.870  -0.074  0.00  0.00    +0.042 A 
ATOM     27  C   UNL     1       1.573  10.660   1.024  0.00  0.00    +0.023 A 
ATOM     28  C   UNL     1       1.886  10.080   2.236  0.00  0.00    +0.047 A 
ATOM     29  C   UNL     1       1.894   8.699   2.365  0.00  0.00    +0.129 A 
ATOM     30 CL   UNL     1       0.877  10.613  -1.593  0.00  0.00    -0.084 Cl
BRANCH  29  31
ATOM     31  O   UNL     1       2.197   8.128   3.558  0.00  0.00    -0.506 OA
ATOM     32  H   UNL     1       2.432   8.761   4.427  0.00  0.00    +0.292 HD
ENDBRANCH  29  31
ENDBRANCH  21  24
ENDBRANCH  19  20
ENDBRANCH  18  19
ENDBRANCH   5  18
TORSDOF 6
