REMARK  Name = ZINC04597910
REMARK  11 active torsions:
REMARK  status: ('A' for Active; 'I' for Inactive)
REMARK    1  A    between atoms: C_1  and  C_2
REMARK    2  A    between atoms: C_2  and  C_23
REMARK    3  A    between atoms: C_4  and  N_9
REMARK    4  A    between atoms: C_6  and  C_7
REMARK    5  A    between atoms: C_6  and  C_8
REMARK    6  A    between atoms: N_9  and  S_10
REMARK    7  A    between atoms: S_10  and  C_13
REMARK    8  A    between atoms: C_15  and  O_21
REMARK    9  A    between atoms: C_18  and  O_19
REMARK   10  A    between atoms: O_19  and  C_20
REMARK   11  A    between atoms: O_21  and  C_22
REMARK                            x       y       z     vdW  Elec       q    Type
REMARK                         _______ _______ _______ _____ _____    ______ ____
ROOT
ATOM      1  N   UNL     1      -3.280   1.562   3.109  0.00  0.00    -0.187 NA
ATOM      2  H   UNL     1      -4.194   1.685   3.408  0.00  0.00    +0.148 HD
ENDROOT
BRANCH   1   6
ATOM      3  C   UNL     1      -2.467  -2.122   0.834  0.00  0.00    -0.010 C 
ATOM      4  C   UNL     1      -3.725  -1.271   0.623  0.00  0.00    -0.072 C 
ATOM      5  C   UNL     1      -3.980  -0.420   1.865  0.00  0.00    +0.007 C 
ATOM      6  C   UNL     1      -2.998   0.750   1.919  0.00  0.00    +0.074 C 
ATOM      7  C   UNL     1      -3.191   1.606   0.668  0.00  0.00    +0.007 C 
ATOM      8  C   UNL     1      -2.925   0.779  -0.587  0.00  0.00    -0.072 C 
ATOM      9  C   UNL     1      -1.414   0.573  -0.754  0.00  0.00    -0.010 C 
ATOM     10  C   UNL     1      -3.410   1.604  -1.800  0.00  0.00    -0.010 C 
ATOM     11  C   UNL     1      -4.916  -2.244   0.474  0.00  0.00    -0.010 C 
ATOM     12  N   UNL     1      -3.661  -0.512  -0.655  0.00  0.00    +0.386 N 
ATOM     13  H   UNL     1      -4.622  -0.314  -0.956  0.00  0.00    -0.084 HD
ATOM     14  H   UNL     1      -3.199  -1.105  -1.354  0.00  0.00    -0.084 HD
ENDBRANCH   1   6
BRANCH   1  15
ATOM     15  S   UNL     1      -2.035   2.270   3.942  0.00  0.00    +0.062 S 
ATOM     16  O   UNL     1      -2.620   2.955   5.042  0.00  0.00    -0.153 OA
ATOM     17  O   UNL     1      -1.224   2.928   2.979  0.00  0.00    -0.153 OA
BRANCH  15  18
ATOM     18  C   UNL     1      -1.058   0.971   4.621  0.00  0.00    +0.150 A 
ATOM     19  C   UNL     1       0.249   0.800   4.205  0.00  0.00    +0.077 A 
ATOM     20  C   UNL     1       1.018  -0.223   4.739  0.00  0.00    +0.122 A 
ATOM     21  C   UNL     1       0.477  -1.073   5.691  0.00  0.00    +0.049 A 
ATOM     22  C   UNL     1      -0.827  -0.899   6.112  0.00  0.00    +0.051 A 
ATOM     23  C   UNL     1      -1.599   0.120   5.573  0.00  0.00    +0.147 A 
BRANCH  23  24
ATOM     24  O   UNL     1      -2.884   0.289   5.983  0.00  0.00    -0.493 OA
ATOM     25  C   UNL     1      -3.337  -0.541   7.055  0.00  0.00    +0.277 C 
ENDBRANCH  23  24
BRANCH  20  26
ATOM     26  O   UNL     1       2.304  -0.391   4.329  0.00  0.00    -0.495 OA
ATOM     27  C   UNL     1       3.039  -1.464   4.922  0.00  0.00    +0.277 C 
ENDBRANCH  20  26
ENDBRANCH  15  18
ENDBRANCH   1  15
TORSDOF 5
