REMARK  Name = ZINC02365280
REMARK  10 active torsions:
REMARK  status: ('A' for Active; 'I' for Inactive)
REMARK    1  A    between atoms: C_1  and  C_2
REMARK    2  A    between atoms: C_2  and  C_3
REMARK    3  A    between atoms: C_2  and  C_4
REMARK    4  A    between atoms: C_12  and  N_29
REMARK    5  A    between atoms: C_14  and  S_16
REMARK    6  A    between atoms: S_16  and  C_17
REMARK    7  A    between atoms: C_17  and  C_18
REMARK    8  A    between atoms: N_20  and  C_21
REMARK    9  A    between atoms: C_26  and  O_27
REMARK   10  A    between atoms: O_27  and  C_28
REMARK                            x       y       z     vdW  Elec       q    Type
REMARK                         _______ _______ _______ _____ _____    ______ ____
ROOT
ATOM      1  C   UNL     1      -0.249   9.820  -0.456  0.00  0.00    +0.126 C 
ATOM      2  C   UNL     1       0.278   8.382  -0.470  0.00  0.00    +0.068 C 
ATOM      3  C   UNL     1      -0.373   7.628   0.687  0.00  0.00    -0.020 A 
ATOM      4  C   UNL     1      -0.951   8.320   1.692  0.00  0.00    +0.021 A 
ATOM      5  S   UNL     1      -1.576   7.090   2.801  0.00  0.00    -0.071 S 
ATOM      6  C   UNL     1      -1.059   5.643   1.912  0.00  0.00    +0.115 A 
ATOM      7  C   UNL     1      -0.413   6.170   0.774  0.00  0.00    +0.051 A 
ATOM      8  C   UNL     1       0.111   5.207  -0.133  0.00  0.00    +0.129 A 
ATOM      9  N   UNL     1      -0.034   3.920   0.135  0.00  0.00    -0.207 NA
ATOM     10  C   UNL     1      -0.655   3.492   1.227  0.00  0.00    +0.191 A 
ATOM     11  N   UNL     1      -1.168   4.343   2.105  0.00  0.00    -0.214 NA
ATOM     12  C   UNL     1      -1.028   9.811   1.811  0.00  0.00    +0.203 C 
ATOM     13  O   UNL     1      -0.119  10.379   0.854  0.00  0.00    -0.371 OA
ENDROOT
BRANCH   1  15
ATOM     14  C   UNL     1       0.030  12.102  -1.435  0.00  0.00    +0.010 C 
ATOM     15  C   UNL     1       0.555  10.665  -1.447  0.00  0.00    +0.012 C 
ATOM     16  C   UNL     1       2.031  10.657  -1.043  0.00  0.00    +0.010 C 
ENDBRANCH   1  15
BRANCH   8  17
ATOM     17  N   UNL     1       0.765   5.612  -1.282  0.00  0.00    -0.343 N 
ATOM     18  H   UNL     1       1.053   4.955  -1.934  0.00  0.00    +0.144 HD
ATOM     19  H   UNL     1       0.935   6.555  -1.436  0.00  0.00    +0.144 HD
ENDBRANCH   8  17
BRANCH  10  20
ATOM     20  S   UNL     1      -0.808   1.760   1.512  0.00  0.00    -0.077 S 
BRANCH  20  21
ATOM     21  C   UNL     1       0.035   1.124   0.042  0.00  0.00    +0.173 C 
BRANCH  21  22
ATOM     22  C   UNL     1       0.027  -0.383   0.070  0.00  0.00    +0.228 C 
ATOM     23  O   UNL     1      -0.497  -0.969   0.994  0.00  0.00    -0.275 OA
ATOM     24  N   UNL     1       0.602  -1.079  -0.930  0.00  0.00    -0.282 N 
ATOM     25  H   UNL     1       0.949  -0.614  -1.708  0.00  0.00    +0.155 HD
BRANCH  24  26
ATOM     26  C   UNL     1       0.699  -2.475  -0.848  0.00  0.00    +0.076 A 
ATOM     27  C   UNL     1       0.701  -3.099   0.391  0.00  0.00    +0.027 A 
ATOM     28  C   UNL     1       0.791  -4.476   0.469  0.00  0.00    +0.002 A 
ATOM     29  C   UNL     1       0.890  -5.233  -0.684  0.00  0.00    +0.004 A 
ATOM     30  C   UNL     1       0.895  -4.617  -1.921  0.00  0.00    +0.047 A 
ATOM     31  C   UNL     1       0.799  -3.238  -2.009  0.00  0.00    +0.141 A 
BRANCH  31  32
ATOM     32  O   UNL     1       0.804  -2.630  -3.225  0.00  0.00    -0.493 OA
ATOM     33  C   UNL     1       0.910  -3.476  -4.372  0.00  0.00    +0.277 C 
ENDBRANCH  31  32
ENDBRANCH  24  26
ENDBRANCH  21  22
ENDBRANCH  20  21
ENDBRANCH  10  20
TORSDOF 7
