REMARK  Name = ZINC20906113
REMARK  6 active torsions:
REMARK  status: ('A' for Active; 'I' for Inactive)
REMARK    1  A    between atoms: C_1  and  C_2
REMARK    2  A    between atoms: C_5  and  C_7
REMARK    3  A    between atoms: C_7  and  N_8
REMARK    4  A    between atoms: N_8  and  C_9
REMARK    5  A    between atoms: N_8  and  C_10
REMARK    6  A    between atoms: C_10  and  C_11
REMARK                            x       y       z     vdW  Elec       q    Type
REMARK                         _______ _______ _______ _____ _____    ______ ____
ROOT
ATOM      1  C   UNL     1      -6.762   0.365   4.067  0.00  0.00    +0.001 A 
ATOM      2  C   UNL     1      -6.717   0.250   5.422  0.00  0.00    +0.012 A 
ATOM      3  C   UNL     1      -7.277  -0.879   6.051  0.00  0.00    -0.028 A 
ATOM      4  C   UNL     1      -7.851  -1.844   5.304  0.00  0.00    +0.022 A 
ATOM      5  N   UNL     1      -7.881  -1.729   3.943  0.00  0.00    -0.326 N 
ATOM      6  H   UNL     1      -8.340  -2.522   3.334  0.00  0.00    +0.169 HD
ATOM      7  C   UNL     1      -7.360  -0.662   3.316  0.00  0.00    +0.250 A 
ATOM      8  O   UNL     1      -7.405  -0.584   2.099  0.00  0.00    -0.268 OA
ATOM      9  C   UNL     1      -8.488  -3.070   5.905  0.00  0.00    +0.053 C 
ATOM     10  C   UNL     1      -8.010  -3.279   7.340  0.00  0.00    +0.006 C 
ATOM     11  C   UNL     1      -8.194  -1.962   8.104  0.00  0.00    +0.005 C 
ATOM     12  C   UNL     1      -7.194  -0.948   7.553  0.00  0.00    +0.037 C 
ENDROOT
BRANCH   1  13
ATOM     13  C   UNL     1      -6.174   1.572   3.381  0.00  0.00    -0.037 C 
BRANCH  13  14
ATOM     14  N   UNL     1      -4.798   1.275   2.963  0.00  0.00    +0.385 N 
ATOM     15  C   UNL     1      -4.776   0.237   1.923  0.00  0.00    -0.095 C 
ATOM     16  H   UNL     1      -4.255   0.889   3.837  0.00  0.00    -0.081 HD
BRANCH  14  17
ATOM     17  C   UNL     1      -4.113   2.491   2.506  0.00  0.00    -0.015 C 
BRANCH  17  22
ATOM     18  C   UNL     1      -0.013   1.086   0.008  0.00  0.00    +0.066 C 
ATOM     19  C   UNL     1      -0.718   1.572   1.248  0.00  0.00    +0.046 A 
ATOM     20  C   UNL     1      -0.028   1.807   2.393  0.00  0.00    +0.069 A 
ATOM     21  S   UNL     1      -1.351   2.342   3.469  0.00  0.00    -0.082 S 
ATOM     22  C   UNL     1      -2.646   2.202   2.320  0.00  0.00    +0.062 A 
ATOM     23  N   UNL     1      -2.018   1.784   1.245  0.00  0.00    -0.251 NA
ENDBRANCH  17  22
ENDBRANCH  14  17
ENDBRANCH  13  14
ENDBRANCH   1  13
TORSDOF 4
