REMARK  Name = ZINC04598531
REMARK  9 active torsions:
REMARK  status: ('A' for Active; 'I' for Inactive)
REMARK    1  A    between atoms: C_1  and  C_2
REMARK    2  A    between atoms: C_2  and  O_3
REMARK    3  A    between atoms: O_3  and  C_4
REMARK    4  A    between atoms: C_4  and  C_6
REMARK    5  A    between atoms: C_12  and  O_30
REMARK    6  A    between atoms: C_17  and  C_29
REMARK    7  A    between atoms: N_18  and  C_22
REMARK    8  A    between atoms: C_25  and  C_28
REMARK    9  A    between atoms: O_30  and  C_31
REMARK                            x       y       z     vdW  Elec       q    Type
REMARK                         _______ _______ _______ _____ _____    ______ ____
ROOT
ATOM      1  C   UNL     1       2.777  -0.241   0.364  0.00  0.00    +0.185 C 
ATOM      2  C   UNL     1       1.317  -0.664   0.135  0.00  0.00    +0.125 C 
ATOM      3  C   UNL     1       0.417   0.423   0.679  0.00  0.00    +0.019 A 
ATOM      4  C   UNL     1      -0.872   0.096   1.059  0.00  0.00    +0.054 A 
ATOM      5  C   UNL     1      -1.721   1.074   1.554  0.00  0.00    +0.121 A 
ATOM      6  C   UNL     1      -1.273   2.383   1.667  0.00  0.00    +0.049 A 
ATOM      7  C   UNL     1       0.014   2.707   1.291  0.00  0.00    +0.049 A 
ATOM      8  C   UNL     1       0.868   1.726   0.794  0.00  0.00    +0.129 A 
ATOM      9  O   UNL     1       2.130   2.084   0.441  0.00  0.00    -0.467 OA
ATOM     10  C   UNL     1       2.939   1.152  -0.261  0.00  0.00    +0.196 C 
ATOM     11  N   UNL     1       2.522   1.107  -1.659  0.00  0.00    -0.243 N 
ATOM     12  C   UNL     1       1.671   0.176  -2.118  0.00  0.00    +0.141 C 
ATOM     13  S   UNL     1       1.319   0.135  -3.793  0.00  0.00    -0.018 S 
ATOM     14  N   UNL     1       1.082  -0.743  -1.317  0.00  0.00    -0.318 N 
ATOM     15  C   UNL     1       4.407   1.576  -0.182  0.00  0.00    +0.080 C 
ATOM     16  H   UNL     1       0.515  -1.440  -1.681  0.00  0.00    +0.148 HD
ENDROOT
BRANCH  11  17
ATOM     17  C   UNL     1       3.023   2.064  -2.547  0.00  0.00    +0.039 A 
ATOM     18  C   UNL     1       2.407   3.303  -2.657  0.00  0.00    +0.024 A 
ATOM     19  C   UNL     1       2.907   4.248  -3.531  0.00  0.00    +0.005 A 
ATOM     20  C   UNL     1       4.016   3.956  -4.306  0.00  0.00    -0.050 A 
ATOM     21  C   UNL     1       4.629   2.721  -4.203  0.00  0.00    +0.005 A 
ATOM     22  C   UNL     1       4.136   1.774  -3.327  0.00  0.00    +0.024 A 
ATOM     23  C   UNL     1       4.556   4.987  -5.263  0.00  0.00    +0.044 C 
ENDBRANCH  11  17
BRANCH   1  24
ATOM     24  C   UNL     1       3.069  -0.181   1.841  0.00  0.00    +0.318 C 
ATOM     25  O   UNL     1       3.424   0.859   2.344  0.00  0.00    -0.250 OA
BRANCH  24  26
ATOM     26  O   UNL     1       2.936  -1.282   2.597  0.00  0.00    -0.465 OA
BRANCH  26  28
ATOM     27  C   UNL     1       3.028  -2.499   4.704  0.00  0.00    +0.048 C 
ATOM     28  C   UNL     1       3.235  -1.150   4.012  0.00  0.00    +0.229 C 
ENDBRANCH  26  28
ENDBRANCH  24  26
ENDBRANCH   1  24
BRANCH   5  29
ATOM     29  O   UNL     1      -2.988   0.753   1.927  0.00  0.00    -0.495 OA
ATOM     30  C   UNL     1      -3.805   1.812   2.428  0.00  0.00    +0.277 C 
ENDBRANCH   5  29
TORSDOF 5
