REMARK  Name = ZINC22004439
REMARK  11 active torsions:
REMARK  status: ('A' for Active; 'I' for Inactive)
REMARK    1  A    between atoms: C_1  and  C_2
REMARK    2  A    between atoms: C_2  and  C_4
REMARK    3  A    between atoms: C_2  and  O_13
REMARK    4  A    between atoms: N_6  and  C_7
REMARK    5  A    between atoms: N_6  and  C_10
REMARK    6  A    between atoms: C_7  and  C_8
REMARK    7  A    between atoms: C_7  and  C_9
REMARK    8  A    between atoms: C_10  and  C_11
REMARK    9  A    between atoms: C_10  and  C_12
REMARK   10  A    between atoms: O_13  and  C_14
REMARK   11  A    between atoms: C_14  and  C_16
REMARK                            x       y       z     vdW  Elec       q    Type
REMARK                         _______ _______ _______ _____ _____    ______ ____
ROOT
ATOM      1  C   UNL     1       0.516   0.501  -2.801  0.00  0.00    +0.340 C 
ATOM      2  O   UNL     1       0.935   1.446  -2.163  0.00  0.00    -0.245 OA
ENDROOT
BRANCH   1   3
ATOM      3  C   UNL     1       1.275   0.001  -3.960  0.00  0.00    +0.067 A 
ATOM      4  C   UNL     1       0.814  -1.078  -4.712  0.00  0.00    +0.016 A 
ATOM      5  C   UNL     1       1.518  -1.563  -5.809  0.00  0.00    +0.005 A 
ATOM      6  C   UNL     1       2.697  -1.001  -6.200  0.00  0.00    -0.039 A 
ATOM      7  C   UNL     1       3.196   0.079  -5.478  0.00  0.00    -0.011 A 
ATOM      8  C   UNL     1       2.534   0.623  -4.364  0.00  0.00    -0.003 A 
ATOM      9  C   UNL     1       3.120   1.714  -3.714  0.00  0.00    +0.009 A 
ATOM     10  C   UNL     1       4.303   2.206  -4.192  0.00  0.00    +0.001 A 
ATOM     11  C   UNL     1       4.943   1.656  -5.304  0.00  0.00    +0.004 A 
ATOM     12  C   UNL     1       4.402   0.586  -5.951  0.00  0.00    -0.039 A 
ATOM     13  C   UNL     1       4.800  -0.239  -7.150  0.00  0.00    +0.040 C 
ATOM     14  C   UNL     1       3.676  -1.286  -7.315  0.00  0.00    +0.040 C 
ENDBRANCH   1   3
BRANCH   1  15
ATOM     15  O   UNL     1      -0.643  -0.090  -2.448  0.00  0.00    -0.449 OA
BRANCH  15  17
ATOM     16  C   UNL     1      -2.293   1.540  -1.772  0.00  0.00    +0.062 C 
ATOM     17  C   UNL     1      -1.326   0.447  -1.314  0.00  0.00    +0.259 C 
BRANCH  17  18
ATOM     18  C   UNL     1      -2.098  -0.650  -0.627  0.00  0.00    +0.257 C 
ATOM     19  O   UNL     1      -2.409  -1.649  -1.241  0.00  0.00    -0.272 OA
ATOM     20  N   UNL     1      -2.442  -0.522   0.670  0.00  0.00    -0.293 N 
BRANCH  20  21
ATOM     21  C   UNL     1      -2.128   0.714   1.392  0.00  0.00    +0.070 C 
ATOM     22  C   UNL     1      -3.374   1.201   2.135  0.00  0.00    +0.028 C 
ATOM     23  C   UNL     1      -1.007   0.445   2.398  0.00  0.00    +0.028 C 
ENDBRANCH  20  21
BRANCH  20  24
ATOM     24  C   UNL     1      -3.130  -1.617   1.357  0.00  0.00    +0.070 C 
ATOM     25  C   UNL     1      -2.503  -1.828   2.737  0.00  0.00    +0.028 C 
ATOM     26  C   UNL     1      -4.611  -1.268   1.518  0.00  0.00    +0.028 C 
ENDBRANCH  20  24
ENDBRANCH  17  18
ENDBRANCH  15  17
ENDBRANCH   1  15
TORSDOF 6
