REMARK  Name = ZINC43736879
REMARK  7 active torsions:
REMARK  status: ('A' for Active; 'I' for Inactive)
REMARK    1  A    between atoms: C_1  and  C_2
REMARK    2  A    between atoms: C_13  and  O_15
REMARK    3  A    between atoms: N_21  and  O_22
REMARK    4  A    between atoms: O_22  and  C_23
REMARK    5  A    between atoms: C_23  and  C_24
REMARK    6  A    between atoms: N_26  and  C_27
REMARK    7  A    between atoms: C_38  and  C_39
REMARK                            x       y       z     vdW  Elec       q    Type
REMARK                         _______ _______ _______ _____ _____    ______ ____
ROOT
ATOM      1  C   UNL     1      -0.019   1.526   0.010  0.00  0.00    +0.014 C 
ATOM      2  C   UNL     1       0.002  -0.004   0.002  0.00  0.00    -0.003 C 
ATOM      3  C   UNL     1       0.639  -0.483  -1.284  0.00  0.00    +0.010 C 
ATOM      4  C   UNL     1       0.754  -2.005  -1.284  0.00  0.00    +0.005 C 
ATOM      5  C   UNL     1       1.638  -2.442  -0.107  0.00  0.00    +0.002 C 
ATOM      6  C   UNL     1       1.005  -2.004   1.202  0.00  0.00    -0.003 C 
ATOM      7  C   UNL     1       0.747  -0.501   1.250  0.00  0.00    +0.001 C 
ATOM      8  C   UNL     1      -0.327  -0.292   2.360  0.00  0.00    +0.007 C 
ATOM      9  C   UNL     1      -1.649  -0.705   1.677  0.00  0.00    +0.032 C 
ATOM     10  C   UNL     1      -1.433  -0.524   0.161  0.00  0.00    +0.121 C 
ATOM     11  C   UNL     1       1.867  -2.345   2.414  0.00  0.00    +0.008 C 
ATOM     12  C   UNL     1       2.686  -3.612   2.217  0.00  0.00    +0.031 C 
ATOM     13  C   UNL     1       1.991  -4.505   1.219  0.00  0.00    -0.062 C 
ATOM     14  C   UNL     1       1.599  -5.723   1.561  0.00  0.00    +0.026 C 
ATOM     15  C   UNL     1       0.911  -6.594   0.600  0.00  0.00    +0.080 C 
ATOM     16  N   UNL     1       0.559  -7.792   0.946  0.00  0.00    -0.089 NA
ATOM     17  C   UNL     1       0.612  -6.091  -0.790  0.00  0.00    +0.059 C 
ATOM     18  C   UNL     1       0.477  -4.565  -0.747  0.00  0.00    +0.017 C 
ATOM     19  C   UNL     1       1.760  -3.970  -0.182  0.00  0.00    -0.007 C 
ATOM     20  C   UNL     1       2.946  -4.343  -1.072  0.00  0.00    +0.016 C 
ENDROOT
BRANCH  10  21
ATOM     21  O   UNL     1      -2.363   0.427  -0.360  0.00  0.00    -0.391 OA
ATOM     22  H   UNL     1      -3.287   0.154  -0.288  0.00  0.00    +0.210 HD
ENDBRANCH  10  21
BRANCH  16  23
ATOM     23  O   UNL     1       0.840  -8.263   2.252  0.00  0.00    -0.384 OA
BRANCH  23  24
ATOM     24  C   UNL     1       0.397  -9.600   2.495  0.00  0.00    +0.358 C 
BRANCH  24  25
ATOM     25  C   UNL     1       0.745  -9.995   3.907  0.00  0.00    +0.254 C 
ATOM     26  O   UNL     1       1.316  -9.209   4.633  0.00  0.00    -0.272 OA
ATOM     27  N   UNL     1       0.421 -11.222   4.362  0.00  0.00    -0.301 N 
ATOM     28  H   UNL     1      -0.035 -11.850   3.781  0.00  0.00    +0.150 HD
BRANCH  27  29
ATOM     29  C   UNL     1       0.760 -11.606   5.735  0.00  0.00    +0.159 C 
ATOM     30  C   UNL     1      -0.189 -12.710   6.208  0.00  0.00    +0.032 C 
ATOM     31  C   UNL     1      -0.293 -12.716   7.723  0.00  0.00    +0.004 C 
ATOM     32  C   UNL     1       0.993 -13.112   8.424  0.00  0.00    +0.019 C 
ATOM     33  C   UNL     1       2.078 -12.054   8.212  0.00  0.00    +0.104 C 
ATOM     34  N   UNL     1       2.779 -12.346   6.951  0.00  0.00    -0.314 N 
ATOM     35  C   UNL     1       2.178 -12.133   5.780  0.00  0.00    +0.233 C 
ATOM     36  O   UNL     1       2.769 -12.369   4.748  0.00  0.00    -0.274 OA
ATOM     37  H   UNL     1       3.685 -12.691   6.973  0.00  0.00    +0.149 HD
ENDBRANCH  27  29
ENDBRANCH  24  25
ENDBRANCH  23  24
ENDBRANCH  16  23
TORSDOF 5
