REMARK  Name = ZINC36714421
REMARK  11 active torsions:
REMARK  status: ('A' for Active; 'I' for Inactive)
REMARK    1  A    between atoms: C_1  and  C_2
REMARK    2  A    between atoms: C_2  and  C_3
REMARK    3  A    between atoms: C_6  and  C_9
REMARK    4  A    between atoms: C_9  and  C_11
REMARK    5  A    between atoms: C_9  and  N_12
REMARK    6  A    between atoms: C_13  and  C_15
REMARK    7  A    between atoms: C_15  and  N_16
REMARK    8  A    between atoms: C_22  and  C_25
REMARK    9  A    between atoms: C_25  and  C_26
REMARK   10  A    between atoms: C_25  and  C_27
REMARK   11  A    between atoms: C_25  and  C_28
REMARK                            x       y       z     vdW  Elec       q    Type
REMARK                         _______ _______ _______ _____ _____    ______ ____
ROOT
ATOM      1  N   UNL     1       5.414  -5.691  -6.033  0.00  0.00    -0.215 N 
ATOM      2  C   UNL     1       4.739  -6.835  -6.272  0.00  0.00    +0.247 C 
ATOM      3  O   UNL     1       3.839  -7.308  -5.612  0.00  0.00    -0.273 OA
ATOM      4  C   UNL     1       5.341  -7.402  -7.537  0.00  0.00    +0.113 C 
ATOM      5  C   UNL     1       5.959  -8.769  -7.266  0.00  0.00    +0.035 C 
ATOM      6  C   UNL     1       6.589  -9.311  -8.551  0.00  0.00    +0.006 C 
ATOM      7  C   UNL     1       5.515  -9.424  -9.636  0.00  0.00    -0.005 C 
ATOM      8  C   UNL     1       4.921  -8.042  -9.913  0.00  0.00    +0.006 C 
ATOM      9  C   UNL     1       4.285  -7.495  -8.633  0.00  0.00    +0.035 C 
ATOM     10  N   UNL     1       6.380  -6.431  -7.904  0.00  0.00    -0.285 N 
ATOM     11  C   UNL     1       6.344  -5.463  -6.968  0.00  0.00    +0.310 C 
ATOM     12  O   UNL     1       7.076  -4.493  -6.971  0.00  0.00    -0.252 OA
ATOM     13  H   UNL     1       6.972  -6.476  -8.671  0.00  0.00    +0.151 HD
ENDROOT
BRANCH   7  14
ATOM     14  C   UNL     1       6.141  -9.977 -10.917  0.00  0.00    -0.035 C 
ATOM     15  C   UNL     1       6.734 -11.360 -10.640  0.00  0.00    +0.011 C 
ATOM     16  C   UNL     1       5.068 -10.090 -12.002  0.00  0.00    +0.011 C 
ATOM     17  C   UNL     1       7.249  -9.034 -11.392  0.00  0.00    +0.011 C 
ENDBRANCH   7  14
BRANCH   1  18
ATOM     18  C   UNL     1       5.157  -4.806  -4.894  0.00  0.00    +0.213 C 
BRANCH  18  20
ATOM     19  N   UNL     1       3.718  -2.861  -4.381  0.00  0.00    -0.307 N 
ATOM     20  C   UNL     1       4.116  -3.785  -5.277  0.00  0.00    +0.231 C 
ATOM     21  O   UNL     1       3.636  -3.796  -6.391  0.00  0.00    -0.274 OA
ATOM     22  H   UNL     1       4.102  -2.852  -3.490  0.00  0.00    +0.149 HD
BRANCH  19  23
ATOM     23  C   UNL     1       2.707  -1.868  -4.752  0.00  0.00    +0.100 C 
ATOM     24  C   UNL     1       3.383  -0.687  -5.451  0.00  0.00    +0.033 C 
BRANCH  23  28
ATOM     25  C   UNL     1       0.707  -0.490  -1.238  0.00  0.00    -0.048 A 
ATOM     26  C   UNL     1      -0.011  -0.719  -2.397  0.00  0.00    +0.004 A 
ATOM     27  C   UNL     1       0.636  -1.164  -3.534  0.00  0.00    +0.006 A 
ATOM     28  C   UNL     1       2.002  -1.381  -3.513  0.00  0.00    -0.027 A 
ATOM     29  C   UNL     1       2.720  -1.152  -2.354  0.00  0.00    +0.006 A 
ATOM     30  C   UNL     1       2.073  -0.702  -1.218  0.00  0.00    +0.004 A 
BRANCH  25  32
ATOM     31  C   UNL     1      -0.019   1.526   0.010  0.00  0.00    +0.009 C 
ATOM     32  C   UNL     1       0.002  -0.004   0.002  0.00  0.00    +0.032 C 
ENDBRANCH  25  32
ENDBRANCH  23  28
ENDBRANCH  19  23
ENDBRANCH  18  20
ENDBRANCH   1  18
TORSDOF 6
