REMARK  Name = ZINC20532098
REMARK  7 active torsions:
REMARK  status: ('A' for Active; 'I' for Inactive)
REMARK    1  A    between atoms: C_1  and  C_2
REMARK    2  A    between atoms: C_2  and  O_3
REMARK    3  A    between atoms: O_3  and  C_4
REMARK    4  A    between atoms: C_4  and  C_6
REMARK    5  A    between atoms: C_10  and  N_11
REMARK    6  A    between atoms: C_17  and  C_20
REMARK    7  A    between atoms: C_20  and  N_21
REMARK                            x       y       z     vdW  Elec       q    Type
REMARK                         _______ _______ _______ _____ _____    ______ ____
ROOT
ATOM      1  N   UNL     1       1.207   2.134  -0.107  0.00  0.00    -0.263 N 
ATOM      2  C   UNL     1       0.043   1.470   0.033  0.00  0.00    +0.307 C 
ATOM      3  O   UNL     1       0.041   0.259   0.131  0.00  0.00    -0.252 OA
ATOM      4  N   UNL     1      -1.120   2.151   0.070  0.00  0.00    -0.285 N 
ATOM      5  C   UNL     1      -2.387   1.454   0.334  0.00  0.00    +0.109 C 
ATOM      6  C   UNL     1      -3.092   2.150   1.508  0.00  0.00    +0.021 C 
ATOM      7  C   UNL     1      -3.248   3.639   1.192  0.00  0.00    -0.025 C 
ATOM      8  C   UNL     1      -1.866   4.272   1.017  0.00  0.00    +0.021 C 
ATOM      9  C   UNL     1      -1.146   3.602  -0.158  0.00  0.00    +0.109 C 
ATOM     10  H   UNL     1       1.204   3.220  -0.280  0.00  0.00    +0.157 HD
ENDROOT
BRANCH   1  15
ATOM     11  C   UNL     1       3.698   1.949  -0.159  0.00  0.00    +0.091 A 
ATOM     12  C   UNL     1       4.799   1.007  -0.038  0.00  0.00    -0.021 A 
ATOM     13  C   UNL     1       4.437  -0.276   0.176  0.00  0.00    -0.004 A 
ATOM     14  S   UNL     1       2.668  -0.246   0.225  0.00  0.00    -0.077 S 
ATOM     15  C   UNL     1       2.409   1.447  -0.035  0.00  0.00    +0.087 A 
ATOM     16  C   UNL     1       5.346  -1.456   0.335  0.00  0.00    +0.043 C 
ATOM     17  C   UNL     1       6.746  -1.058  -0.154  0.00  0.00    +0.005 C 
ATOM     18  C   UNL     1       7.121   0.289   0.469  0.00  0.00    +0.005 C 
ATOM     19  C   UNL     1       6.267   1.401  -0.144  0.00  0.00    +0.037 C 
BRANCH  11  20
ATOM     20  C   UNL     1       3.940   3.372  -0.400  0.00  0.00    +0.342 C 
ATOM     21  O   UNL     1       4.075   4.134   0.540  0.00  0.00    -0.245 OA
BRANCH  20  22
ATOM     22  O   UNL     1       4.013   3.840  -1.663  0.00  0.00    -0.461 OA
BRANCH  22  24
ATOM     23  C   UNL     1       4.304   5.604  -3.317  0.00  0.00    +0.048 C 
ATOM     24  C   UNL     1       4.254   5.263  -1.826  0.00  0.00    +0.229 C 
ENDBRANCH  22  24
ENDBRANCH  20  22
ENDBRANCH  11  20
ENDBRANCH   1  15
BRANCH   7  25
ATOM     25  C   UNL     1      -3.984   4.330   2.342  0.00  0.00    -0.075 C 
BRANCH  25  26
ATOM     26  N   UNL     1      -5.341   3.780   2.455  0.00  0.00    +0.383 N 
ATOM     27  C   UNL     1      -6.197   4.259   1.358  0.00  0.00    -0.074 C 
ATOM     28  C   UNL     1      -7.455   3.390   1.309  0.00  0.00    +0.017 C 
ATOM     29  C   UNL     1      -8.072   3.303   2.682  0.00  0.00    -0.048 A 
ATOM     30  C   UNL     1      -9.385   2.869   2.790  0.00  0.00    +0.004 A 
ATOM     31  C   UNL     1      -9.986   2.767   4.028  0.00  0.00    +0.000 A 
ATOM     32  C   UNL     1      -9.275   3.098   5.167  0.00  0.00    +0.000 A 
ATOM     33  C   UNL     1      -7.969   3.532   5.060  0.00  0.00    +0.002 A 
ATOM     34  C   UNL     1      -7.364   3.637   3.816  0.00  0.00    -0.061 A 
ATOM     35  C   UNL     1      -5.939   4.119   3.750  0.00  0.00    -0.043 C 
ATOM     36  H   UNL     1      -5.264   2.685   2.387  0.00  0.00    -0.081 HD
ENDBRANCH  25  26
ENDBRANCH   7  25
TORSDOF 6
