REMARK  Name = ZINC04091839
REMARK  8 active torsions:
REMARK  status: ('A' for Active; 'I' for Inactive)
REMARK    1  A    between atoms: C_1  and  C_2
REMARK    2  A    between atoms: C_2  and  N_3
REMARK    3  A    between atoms: N_3  and  C_4
REMARK    4  A    between atoms: N_3  and  C_6
REMARK    5  A    between atoms: C_4  and  C_5
REMARK    6  A    between atoms: C_9  and  C_12
REMARK    7  A    between atoms: C_23  and  C_24
REMARK    8  A    between atoms: C_23  and  N_62
REMARK                            x       y       z     vdW  Elec       q    Type
REMARK                         _______ _______ _______ _____ _____    ______ ____
ROOT
ATOM      1  C   UNL     1      -2.261  -1.437  -5.951  0.00  0.00    +0.190 C 
ATOM      2  N   UNL     1      -3.445  -0.557  -5.970  0.00  0.00    -0.316 N 
ATOM      3  C   UNL     1      -3.252   0.724  -6.416  0.00  0.00    +0.080 A 
ATOM      4  C   UNL     1      -2.194   1.086  -7.266  0.00  0.00    +0.068 A 
ATOM      5  C   UNL     1      -2.148   2.484  -7.655  0.00  0.00    -0.027 A 
ATOM      6  C   UNL     1      -3.122   3.270  -7.140  0.00  0.00    -0.021 A 
ATOM      7  S   UNL     1      -4.111   2.182  -6.151  0.00  0.00    -0.080 S 
ATOM      8  C   UNL     1      -3.299   4.737  -7.376  0.00  0.00    -0.035 C 
ATOM      9  C   UNL     1      -1.619   4.429  -9.093  0.00  0.00    -0.073 C 
ATOM     10  C   UNL     1      -1.095   3.084  -8.581  0.00  0.00    +0.018 C 
ATOM     11  C   UNL     1      -1.256   0.018  -7.682  0.00  0.00    +0.248 C 
ATOM     12  O   UNL     1      -0.389   0.225  -8.511  0.00  0.00    -0.270 OA
ATOM     13  N   UNL     1      -1.402  -1.192  -7.105  0.00  0.00    -0.289 N 
ATOM     14  H   UNL     1      -4.316  -0.870  -5.682  0.00  0.00    +0.149 HD
ATOM     15  H   UNL     1      -0.910  -1.941  -7.477  0.00  0.00    +0.151 HD
ATOM     16  N   UNL     1      -2.035   5.262  -7.946  0.00  0.00    +0.386 N 
ATOM     17  H   UNL     1      -1.304   5.228  -7.226  0.00  0.00    -0.081 HD
ENDROOT
BRANCH   1  21
ATOM     18  C   UNL     1      -0.038  -0.713  -2.373  0.00  0.00    +0.030 A 
ATOM     19  C   UNL     1      -1.412  -0.506  -2.393  0.00  0.00    +0.023 A 
ATOM     20  C   UNL     1      -2.126  -0.736  -3.552  0.00  0.00    +0.009 A 
ATOM     21  C   UNL     1      -1.478  -1.182  -4.689  0.00  0.00    -0.009 A 
ATOM     22  C   UNL     1      -0.111  -1.394  -4.671  0.00  0.00    +0.009 A 
ATOM     23  C   UNL     1       0.610  -1.161  -3.517  0.00  0.00    +0.023 A 
BRANCH  18  24
ATOM     24  N   UNL     1       0.688  -0.476  -1.203  0.00  0.00    -0.330 N 
BRANCH  24  26
ATOM     25  C   UNL     1      -0.019   1.526   0.010  0.00  0.00    +0.024 C 
ATOM     26  C   UNL     1       0.002  -0.004   0.002  0.00  0.00    +0.102 C 
ENDBRANCH  24  26
BRANCH  24  27
ATOM     27  C   UNL     1       2.135  -0.701  -1.182  0.00  0.00    +0.102 C 
ATOM     28  C   UNL     1       2.421  -2.145  -0.763  0.00  0.00    +0.024 C 
ENDBRANCH  24  27
ENDBRANCH  18  24
ENDBRANCH   1  21
BRANCH  16  29
ATOM     29  C   UNL     1      -2.219   6.664  -8.379  0.00  0.00    -0.043 C 
BRANCH  29  30
ATOM     30  C   UNL     1      -3.211   6.739  -9.511  0.00  0.00    -0.064 A 
ATOM     31  C   UNL     1      -2.774   6.651 -10.819  0.00  0.00    +0.002 A 
ATOM     32  C   UNL     1      -3.684   6.716 -11.858  0.00  0.00    +0.000 A 
ATOM     33  C   UNL     1      -5.030   6.879 -11.588  0.00  0.00    +0.000 A 
ATOM     34  C   UNL     1      -5.466   6.972 -10.279  0.00  0.00    +0.000 A 
ATOM     35  C   UNL     1      -4.556   6.903  -9.241  0.00  0.00    +0.002 A 
ENDBRANCH  29  30
ENDBRANCH  16  29
TORSDOF 6
