REMARK  Name = ZINC39665991
REMARK  10 active torsions:
REMARK  status: ('A' for Active; 'I' for Inactive)
REMARK    1  A    between atoms: C_1  and  C_2
REMARK    2  A    between atoms: C_2  and  C_3
REMARK    3  A    between atoms: C_6  and  C_9
REMARK    4  A    between atoms: C_13  and  C_22
REMARK    5  A    between atoms: N_24  and  C_25
REMARK    6  A    between atoms: C_25  and  C_26
REMARK    7  A    between atoms: C_26  and  C_28
REMARK    8  A    between atoms: C_26  and  O_29
REMARK    9  A    between atoms: O_29  and  C_30
REMARK   10  A    between atoms: C_33  and  C_36
REMARK                            x       y       z     vdW  Elec       q    Type
REMARK                         _______ _______ _______ _____ _____    ______ ____
ROOT
ATOM      1  C   UNL     1      -5.301  -1.985   0.066  0.00  0.00    +0.247 C 
ATOM      2  O   UNL     1      -4.176  -1.524   0.058  0.00  0.00    -0.270 OA
ATOM      3  N   UNL     1      -5.910  -2.296  -1.095  0.00  0.00    -0.296 N 
ATOM      4  C   UNL     1      -5.348  -2.219  -2.464  0.00  0.00    +0.121 C 
ATOM      5  C   UNL     1      -5.893  -3.475  -3.180  0.00  0.00    +0.100 C 
ATOM      6  C   UNL     1      -7.170  -3.845  -2.408  0.00  0.00    -0.004 C 
ATOM      7  C   UNL     1      -7.291  -2.797  -1.291  0.00  0.00    +0.115 C 
ATOM      8  C   UNL     1      -8.384  -3.778  -3.329  0.00  0.00    -0.010 C 
ATOM      9  C   UNL     1      -9.633  -4.206  -2.553  0.00  0.00    -0.082 C 
ATOM     10  N   UNL     1      -9.452  -5.572  -2.046  0.00  0.00    +0.379 N 
ATOM     11  C   UNL     1      -8.340  -5.607  -1.089  0.00  0.00    -0.082 C 
ATOM     12  C   UNL     1      -7.037  -5.239  -1.803  0.00  0.00    -0.010 C 
ATOM     13  H   UNL     1     -10.299  -5.873  -1.588  0.00  0.00    -0.086 HD
ATOM     14  H   UNL     1      -9.251  -6.191  -2.817  0.00  0.00    -0.086 HD
ENDROOT
BRANCH   1  18
ATOM     15  C   UNL     1      -7.311  -2.616   3.754  0.00  0.00    -0.048 A 
ATOM     16  C   UNL     1      -8.031  -2.243   2.633  0.00  0.00    +0.004 A 
ATOM     17  C   UNL     1      -7.384  -2.036   1.432  0.00  0.00    +0.013 A 
ATOM     18  C   UNL     1      -6.000  -2.204   1.350  0.00  0.00    +0.037 A 
ATOM     19  C   UNL     1      -5.281  -2.580   2.485  0.00  0.00    +0.013 A 
ATOM     20  C   UNL     1      -5.939  -2.779   3.681  0.00  0.00    +0.004 A 
BRANCH  15  22
ATOM     21  C   UNL     1      -8.084  -1.526   5.843  0.00  0.00    +0.009 C 
ATOM     22  C   UNL     1      -8.025  -2.840   5.062  0.00  0.00    +0.032 C 
ENDBRANCH  15  22
ENDBRANCH   1  18
BRANCH   5  23
ATOM     23  C   UNL     1      -4.889  -4.597  -3.108  0.00  0.00    +0.218 C 
ATOM     24  O   UNL     1      -4.193  -4.724  -2.123  0.00  0.00    -0.275 OA
ATOM     25  N   UNL     1      -4.767  -5.459  -4.136  0.00  0.00    -0.312 N 
ATOM     26  H   UNL     1      -5.324  -5.357  -4.924  0.00  0.00    +0.149 HD
BRANCH  25  27
ATOM     27  C   UNL     1      -3.791  -6.550  -4.066  0.00  0.00    +0.148 C 
BRANCH  27  28
ATOM     28  C   UNL     1      -3.854  -7.375  -5.353  0.00  0.00    +0.187 C 
ATOM     29  C   UNL     1      -2.927  -8.585  -5.229  0.00  0.00    +0.053 C 
BRANCH  28  30
ATOM     30  O   UNL     1      -3.440  -6.568  -6.457  0.00  0.00    -0.488 OA
BRANCH  30  31
ATOM     31  C   UNL     1      -3.893  -6.925  -7.687  0.00  0.00    +0.121 A 
ATOM     32  C   UNL     1      -4.799  -7.967  -7.818  0.00  0.00    +0.046 A 
ATOM     33  C   UNL     1      -5.259  -8.329  -9.069  0.00  0.00    +0.007 A 
ATOM     34  C   UNL     1      -4.816  -7.653 -10.191  0.00  0.00    -0.050 A 
ATOM     35  C   UNL     1      -3.912  -6.614 -10.064  0.00  0.00    +0.007 A 
ATOM     36  C   UNL     1      -3.454  -6.245  -8.814  0.00  0.00    +0.046 A 
ATOM     37  C   UNL     1      -5.319  -8.049 -11.556  0.00  0.00    +0.044 C 
ENDBRANCH  30  31
ENDBRANCH  28  30
ENDBRANCH  27  28
ENDBRANCH  25  27
ENDBRANCH   5  23
TORSDOF 7
