REMARK  Name = ZINC34898070
REMARK  16 active torsions:
REMARK  status: ('A' for Active; 'I' for Inactive)
REMARK    1  A    between atoms: C_1  and  C_2
REMARK    2  A    between atoms: C_2  and  C_3
REMARK    3  A    between atoms: C_3  and  N_4
REMARK    4  A    between atoms: N_4  and  C_5
REMARK    5  A    between atoms: C_5  and  C_6
REMARK    6  A    between atoms: N_8  and  C_9
REMARK    7  A    between atoms: N_8  and  C_21
REMARK    8  A    between atoms: C_9  and  C_10
REMARK    9  A    between atoms: C_10  and  C_11
REMARK   10  A    between atoms: C_21  and  C_22
REMARK   11  A    between atoms: C_25  and  C_28
REMARK   12  A    between atoms: C_29  and  C_31
REMARK   13  A    between atoms: C_33  and  O_39
REMARK   14  A    between atoms: C_35  and  O_37
REMARK   15  A    between atoms: O_37  and  C_38
REMARK   16  A    between atoms: O_39  and  C_40
REMARK                            x       y       z     vdW  Elec       q    Type
REMARK                         _______ _______ _______ _____ _____    ______ ____
ROOT
ATOM      1  C   UNL     1      -2.053  -3.099   1.339  0.00  0.00    +0.233 C 
ATOM      2  O   UNL     1      -3.151  -2.758   0.951  0.00  0.00    -0.274 OA
ATOM      3  N   UNL     1      -1.927  -3.768   2.502  0.00  0.00    -0.296 N 
ENDROOT
BRANCH   1   4
ATOM      4  C   UNL     1      -0.831  -2.776   0.519  0.00  0.00    +0.203 C 
BRANCH   4   5
ATOM      5  N   UNL     1      -1.240  -2.177  -0.753  0.00  0.00    -0.289 N 
ATOM      6  C   UNL     1      -1.347  -2.945  -1.856  0.00  0.00    +0.247 C 
ATOM      7  O   UNL     1      -1.593  -2.433  -2.931  0.00  0.00    -0.270 OA
BRANCH   6   8
ATOM      8  C   UNL     1      -1.167  -4.409  -1.758  0.00  0.00    +0.044 A 
ATOM      9  C   UNL     1      -1.807  -5.127  -0.748  0.00  0.00    +0.059 A 
ATOM     10  C   UNL     1      -1.635  -6.498  -0.659  0.00  0.00    +0.124 A 
ATOM     11  C   UNL     1      -0.827  -7.158  -1.574  0.00  0.00    +0.091 A 
ATOM     12  C   UNL     1      -0.189  -6.448  -2.580  0.00  0.00    +0.124 A 
ATOM     13  C   UNL     1      -0.359  -5.077  -2.679  0.00  0.00    +0.059 A 
BRANCH  12  14
ATOM     14  O   UNL     1       0.602  -7.100  -3.473  0.00  0.00    -0.495 OA
ATOM     15  C   UNL     1       0.729  -8.514  -3.316  0.00  0.00    +0.277 C 
ENDBRANCH  12  14
BRANCH  10  16
ATOM     16  O   UNL     1      -2.259  -7.199   0.324  0.00  0.00    -0.495 OA
ATOM     17  C   UNL     1      -2.038  -8.610   0.356  0.00  0.00    +0.277 C 
ENDBRANCH  10  16
ENDBRANCH   6   8
BRANCH   5  18
ATOM     18  C   UNL     1      -1.533  -0.744  -0.828  0.00  0.00    +0.108 C 
BRANCH  18  20
ATOM     19  C   UNL     1      -0.540   1.529  -1.132  0.00  0.00    +0.005 C 
ATOM     20  C   UNL     1      -0.234   0.032  -1.055  0.00  0.00    +0.016 C 
ENDBRANCH  18  20
ENDBRANCH   5  18
ENDBRANCH   4   5
ENDBRANCH   1   4
BRANCH   3  21
ATOM     21  C   UNL     1      -3.122  -4.184   3.241  0.00  0.00    +0.113 C 
BRANCH  21  22
ATOM     22  C   UNL     1      -3.546  -5.580   2.781  0.00  0.00    +0.056 C 
BRANCH  22  23
ATOM     23  C   UNL     1      -4.774  -6.008   3.541  0.00  0.00    -0.021 A 
ATOM     24  C   UNL     1      -4.804  -6.751   4.658  0.00  0.00    +0.087 A 
ATOM     25  N   UNL     1      -6.098  -6.937   5.061  0.00  0.00    -0.360 N 
ATOM     26  H   UNL     1      -6.371  -7.441   5.844  0.00  0.00    +0.165 HD
ATOM     27  C   UNL     1      -6.955  -6.302   4.191  0.00  0.00    +0.047 A 
ATOM     28  C   UNL     1      -6.163  -5.687   3.203  0.00  0.00    +0.003 A 
ATOM     29  C   UNL     1      -6.770  -4.958   2.179  0.00  0.00    +0.010 A 
ATOM     30  C   UNL     1      -8.131  -4.842   2.143  0.00  0.00    +0.001 A 
ATOM     31  C   UNL     1      -8.916  -5.443   3.117  0.00  0.00    +0.002 A 
ATOM     32  C   UNL     1      -8.339  -6.176   4.131  0.00  0.00    +0.026 A 
ENDBRANCH  22  23
ENDBRANCH  21  22
ENDBRANCH   3  21
BRANCH   3  33
ATOM     33  C   UNL     1      -0.595  -4.078   3.028  0.00  0.00    +0.143 C 
BRANCH  33  34
ATOM     34  C   UNL     1      -0.196  -3.030   4.034  0.00  0.00    -0.030 A 
ATOM     35  C   UNL     1       0.425  -1.869   3.613  0.00  0.00    +0.005 A 
ATOM     36  C   UNL     1       0.792  -0.907   4.536  0.00  0.00    +0.003 A 
ATOM     37  C   UNL     1       0.537  -1.106   5.880  0.00  0.00    -0.050 A 
ATOM     38  C   UNL     1      -0.085  -2.267   6.301  0.00  0.00    +0.003 A 
ATOM     39  C   UNL     1      -0.455  -3.227   5.378  0.00  0.00    +0.005 A 
ATOM     40  C   UNL     1       0.938  -0.058   6.886  0.00  0.00    +0.044 C 
ENDBRANCH  33  34
ENDBRANCH   3  33
TORSDOF 12
