REMARK  Name = ZINC39352945
REMARK  7 active torsions:
REMARK  status: ('A' for Active; 'I' for Inactive)
REMARK    1  A    between atoms: C_4  and  N_7
REMARK    2  A    between atoms: N_9  and  C_29
REMARK    3  A    between atoms: C_13  and  C_14
REMARK    4  A    between atoms: N_17  and  C_24
REMARK    5  A    between atoms: C_24  and  C_25
REMARK    6  A    between atoms: C_29  and  C_30
REMARK    7  A    between atoms: C_30  and  C_31
REMARK                            x       y       z     vdW  Elec       q    Type
REMARK                         _______ _______ _______ _____ _____    ______ ____
ROOT
ATOM      1  N   UNL     1       3.312  -1.417  -0.355  0.00  0.00    -0.225 NA
ATOM      2  C   UNL     1       3.685  -2.018   0.752  0.00  0.00    +0.168 C 
ATOM      3  N   UNL     1       2.965  -2.197   1.913  0.00  0.00    -0.246 N 
ATOM      4  C   UNL     1       3.495  -2.831   2.945  0.00  0.00    +0.259 C 
ATOM      5  O   UNL     1       2.875  -2.998   3.978  0.00  0.00    -0.269 OA
ATOM      6  C   UNL     1       4.883  -3.329   2.782  0.00  0.00    +0.074 C 
ATOM      7  C   UNL     1       5.653  -3.995   3.650  0.00  0.00    +0.003 C 
ATOM      8  S   UNL     1       5.246  -2.807   1.113  0.00  0.00    -0.049 S 
ENDROOT
BRANCH   7   9
ATOM      9  C   UNL     1       5.125  -4.337   5.020  0.00  0.00    +0.062 C 
ATOM     10  C   UNL     1       6.025  -3.731   6.109  0.00  0.00    +0.118 C 
ATOM     11  N   UNL     1       6.532  -4.877   6.868  0.00  0.00    -0.318 N 
ATOM     12  C   UNL     1       6.026  -6.065   6.339  0.00  0.00    +0.034 A 
ATOM     13  C   UNL     1       5.191  -5.829   5.254  0.00  0.00    -0.018 A 
ATOM     14  C   UNL     1       4.588  -6.879   4.590  0.00  0.00    +0.006 A 
ATOM     15  C   UNL     1       4.808  -8.180   5.002  0.00  0.00    +0.000 A 
ATOM     16  C   UNL     1       5.636  -8.429   6.081  0.00  0.00    +0.002 A 
ATOM     17  C   UNL     1       6.247  -7.381   6.750  0.00  0.00    +0.023 A 
BRANCH  11  18
ATOM     18  C   UNL     1       7.439  -4.788   8.016  0.00  0.00    +0.230 C 
BRANCH  18  19
ATOM     19  C   UNL     1       6.634  -4.672   9.284  0.00  0.00    +0.373 C 
ATOM     20  O   UNL     1       5.416  -4.663   9.235  0.00  0.00    -0.245 OA
ATOM     21  O   UNL     1       7.201  -4.585  10.360  0.00  0.00    -0.245 OA
ENDBRANCH  18  19
ENDBRANCH  11  18
ENDBRANCH   7   9
BRANCH   1  25
ATOM     22  C   UNL     1       0.533   1.646  -0.211  0.00  0.00    +0.000 A 
ATOM     23  C   UNL     1       1.727   1.767   0.477  0.00  0.00    +0.002 A 
ATOM     24  C   UNL     1       2.658   0.750   0.434  0.00  0.00    +0.028 A 
ATOM     25  C   UNL     1       2.393  -0.404  -0.307  0.00  0.00    +0.067 A 
ATOM     26  C   UNL     1       1.185  -0.519  -0.999  0.00  0.00    +0.028 A 
ATOM     27  C   UNL     1       0.264   0.506  -0.947  0.00  0.00    +0.002 A 
ENDBRANCH   1  25
BRANCH   3  28
ATOM     28  C   UNL     1       1.598  -1.678   2.006  0.00  0.00    +0.120 C 
BRANCH  28  29
ATOM     29  C   UNL     1       0.606  -2.796   1.680  0.00  0.00    +0.056 C 
BRANCH  29  30
ATOM     30  C   UNL     1      -0.800  -2.298   1.896  0.00  0.00    -0.021 A 
ATOM     31  C   UNL     1      -1.706  -1.773   0.871  0.00  0.00    +0.003 A 
ATOM     32  C   UNL     1      -1.600  -1.573  -0.507  0.00  0.00    +0.010 A 
ATOM     33  C   UNL     1      -2.656  -1.050  -1.199  0.00  0.00    +0.001 A 
ATOM     34  C   UNL     1      -3.833  -0.715  -0.543  0.00  0.00    +0.002 A 
ATOM     35  C   UNL     1      -3.959  -0.905   0.816  0.00  0.00    +0.026 A 
ATOM     36  C   UNL     1      -2.897  -1.437   1.540  0.00  0.00    +0.047 A 
ATOM     37  N   UNL     1      -2.715  -1.739   2.871  0.00  0.00    -0.360 N 
ATOM     38  C   UNL     1      -1.462  -2.256   3.063  0.00  0.00    +0.087 A 
ATOM     39  H   UNL     1      -3.377  -1.609   3.568  0.00  0.00    +0.165 HD
ENDBRANCH  29  30
ENDBRANCH  28  29
ENDBRANCH   3  28
TORSDOF 7
