REMARK  Name = ZINC21126910
REMARK  8 active torsions:
REMARK  status: ('A' for Active; 'I' for Inactive)
REMARK    1  A    between atoms: C_1  and  C_2
REMARK    2  A    between atoms: C_2  and  C_3
REMARK    3  A    between atoms: C_6  and  C_9
REMARK    4  A    between atoms: C_11  and  S_14
REMARK    5  A    between atoms: S_14  and  C_15
REMARK    6  A    between atoms: C_15  and  C_17
REMARK    7  A    between atoms: C_15  and  C_18
REMARK    8  A    between atoms: N_20  and  C_21
REMARK                            x       y       z     vdW  Elec       q    Type
REMARK                         _______ _______ _______ _____ _____    ______ ____
ROOT
ATOM      1  S   UNL     1       3.797   0.912  -0.053  0.00  0.00    -0.074 S 
ENDROOT
BRANCH   1   4
ATOM      2  C   UNL     1      -0.005   0.014  -0.050  0.00  0.00    +0.182 A 
ATOM      3  N   UNL     1       1.314  -0.376  -0.057  0.00  0.00    -0.201 NA
ATOM      4  C   UNL     1       2.040   0.781  -0.049  0.00  0.00    +0.185 A 
ATOM      5  N   UNL     1       1.184   1.778  -0.039  0.00  0.00    -0.253 N 
ATOM      6  N   UNL     1      -0.019   1.326  -0.039  0.00  0.00    -0.152 NA
ATOM      7  H   UNL     1       1.364   2.863  -0.030  0.00  0.00    +0.191 HD
BRANCH   2  11
ATOM      8  C   UNL     1      -3.393  -2.548  -0.063  0.00  0.00    -0.048 A 
ATOM      9  C   UNL     1      -3.568  -1.175  -0.051  0.00  0.00    +0.004 A 
ATOM     10  C   UNL     1      -2.471  -0.338  -0.047  0.00  0.00    +0.012 A 
ATOM     11  C   UNL     1      -1.185  -0.878  -0.054  0.00  0.00    +0.021 A 
ATOM     12  C   UNL     1      -1.016  -2.263  -0.072  0.00  0.00    +0.012 A 
ATOM     13  C   UNL     1      -2.120  -3.090  -0.071  0.00  0.00    +0.004 A 
BRANCH   8  15
ATOM     14  C   UNL     1      -5.005  -3.752  -1.513  0.00  0.00    +0.009 C 
ATOM     15  C   UNL     1      -4.596  -3.457  -0.069  0.00  0.00    +0.032 C 
ENDBRANCH   8  15
ENDBRANCH   2  11
ENDBRANCH   1   4
BRANCH   1  16
ATOM     16  C   UNL     1       3.978   2.713  -0.038  0.00  0.00    +0.137 C 
ATOM     17  C   UNL     1       3.418   3.292  -1.339  0.00  0.00    +0.029 C 
BRANCH  16  18
ATOM     18  C   UNL     1       5.436   3.071   0.085  0.00  0.00    +0.230 C 
ATOM     19  O   UNL     1       6.286   2.290  -0.289  0.00  0.00    -0.274 OA
ATOM     20  N   UNL     1       5.797   4.259   0.610  0.00  0.00    -0.283 N 
ATOM     21  H   UNL     1       5.027   4.997   0.880  0.00  0.00    +0.155 HD
BRANCH  20  22
ATOM     22  C   UNL     1       7.151   4.553   0.810  0.00  0.00    +0.053 A 
ATOM     23  C   UNL     1       8.105   4.081  -0.081  0.00  0.00    +0.044 A 
ATOM     24  C   UNL     1       9.441   4.374   0.121  0.00  0.00    +0.043 A 
ATOM     25  C   UNL     1       9.827   5.137   1.209  0.00  0.00    +0.021 A 
ATOM     26  C   UNL     1       8.879   5.608   2.098  0.00  0.00    +0.023 A 
ATOM     27  C   UNL     1       7.541   5.324   1.899  0.00  0.00    +0.062 A 
ATOM     28 CL   UNL     1       6.351   5.922   3.012  0.00  0.00    -0.082 Cl
ATOM     29 CL   UNL     1      10.635   3.784  -0.993  0.00  0.00    -0.083 Cl
ENDBRANCH  20  22
ENDBRANCH  16  18
ENDBRANCH   1  16
TORSDOF 6
