REMARK  Name = ZINC18244972
REMARK  3 active torsions:
REMARK  status: ('A' for Active; 'I' for Inactive)
REMARK    1  A    between atoms: C_1  and  C_2
REMARK    2  A    between atoms: C_2  and  C_22
REMARK    3  A    between atoms: N_12  and  C_15
REMARK                            x       y       z     vdW  Elec       q    Type
REMARK                         _______ _______ _______ _____ _____    ______ ____
ROOT
ATOM      1  C   UNL     1      -0.019   1.526   0.010  0.00  0.00    +0.016 C 
ATOM      2  C   UNL     1       0.002  -0.004   0.002  0.00  0.00    -0.006 C 
ATOM      3  C   UNL     1       0.665  -0.484  -1.284  0.00  0.00    +0.012 C 
ATOM      4  C   UNL     1       2.165  -0.138  -1.328  0.00  0.00    +0.014 C 
ATOM      5  C   UNL     1       2.787  -0.746  -0.093  0.00  0.00    +0.088 C 
ATOM      6  C   UNL     1       2.171   0.001   1.127  0.00  0.00    +0.089 C 
ATOM      7  C   UNL     1       0.750  -0.503   1.255  0.00  0.00    +0.024 C 
ATOM      8  C   UNL     1       3.173  -0.351   2.180  0.00  0.00    +0.230 C 
ATOM      9  O   UNL     1       2.966  -0.489   3.367  0.00  0.00    -0.275 OA
ATOM     10  N   UNL     1       4.363  -0.485   1.536  0.00  0.00    -0.210 N 
ATOM     11  C   UNL     1       4.244  -0.548   0.177  0.00  0.00    +0.230 C 
ATOM     12  O   UNL     1       5.133  -0.458  -0.642  0.00  0.00    -0.275 OA
ENDROOT
BRANCH  10  13
ATOM     13  C   UNL     1       5.595  -0.558   2.202  0.00  0.00    +0.044 A 
ATOM     14  C   UNL     1       5.641  -0.500   3.588  0.00  0.00    +0.025 A 
ATOM     15  C   UNL     1       6.855  -0.572   4.242  0.00  0.00    +0.017 A 
ATOM     16  C   UNL     1       8.026  -0.703   3.516  0.00  0.00    +0.018 A 
ATOM     17  C   UNL     1       7.983  -0.761   2.135  0.00  0.00    +0.017 A 
ATOM     18  C   UNL     1       6.771  -0.695   1.476  0.00  0.00    +0.025 A 
ATOM     19 BR   UNL     1       9.687  -0.801   4.415  0.00  0.00    -0.050 Br
ENDBRANCH  10  13
BRANCH   2  20
ATOM     20  C   UNL     1      -1.416  -0.514   0.041  0.00  0.00    -0.041 A 
ATOM     21  C   UNL     1      -1.834  -1.312   1.090  0.00  0.00    +0.004 A 
ATOM     22  C   UNL     1      -3.135  -1.779   1.126  0.00  0.00    +0.000 A 
ATOM     23  C   UNL     1      -4.016  -1.448   0.114  0.00  0.00    +0.000 A 
ATOM     24  C   UNL     1      -3.598  -0.650  -0.934  0.00  0.00    +0.000 A 
ATOM     25  C   UNL     1      -2.299  -0.179  -0.968  0.00  0.00    +0.004 A 
ENDBRANCH   2  20
TORSDOF 2
