REMARK  Name = ZINC43366853
REMARK  8 active torsions:
REMARK  status: ('A' for Active; 'I' for Inactive)
REMARK    1  A    between atoms: C_1  and  C_2
REMARK    2  A    between atoms: C_2  and  C_3
REMARK    3  A    between atoms: C_3  and  C_5
REMARK    4  A    between atoms: C_3  and  N_21
REMARK    5  A    between atoms: C_5  and  C_7
REMARK    6  A    between atoms: C_5  and  O_13
REMARK    7  A    between atoms: C_10  and  C_12
REMARK    8  A    between atoms: O_13  and  C_14
REMARK                            x       y       z     vdW  Elec       q    Type
REMARK                         _______ _______ _______ _____ _____    ______ ____
ROOT
ATOM      1  C   UNL     1      -1.421  -2.079  -0.128  0.00  0.00    +0.224 C 
ENDROOT
BRANCH   1   2
ATOM      2  C   UNL     1      -0.947  -2.585  -1.466  0.00  0.00    +0.144 A 
ATOM      3  C   UNL     1      -1.730  -2.874  -2.520  0.00  0.00    +0.049 A 
ATOM      4  C   UNL     1      -0.875  -3.313  -3.557  0.00  0.00    +0.045 A 
ATOM      5  C   UNL     1       0.379  -3.267  -3.074  0.00  0.00    +0.102 A 
ATOM      6  O   UNL     1       0.330  -2.820  -1.809  0.00  0.00    -0.461 OA
ATOM      7  C   UNL     1       1.628  -3.647  -3.827  0.00  0.00    +0.086 C 
ENDBRANCH   1   2
BRANCH   1   8
ATOM      8  C   UNL     1      -1.340  -0.551  -0.103  0.00  0.00    -0.026 C 
BRANCH   8   9
ATOM      9  N   UNL     1      -1.914  -0.051   1.154  0.00  0.00    +0.383 N 
ATOM     10  H   UNL     1      -1.396  -0.428   1.933  0.00  0.00    -0.089 HD
ATOM     11  H   UNL     1      -1.860   0.957   1.170  0.00  0.00    -0.089 HD
ATOM     12  H   UNL     1      -2.879  -0.337   1.221  0.00  0.00    -0.089 HD
ENDBRANCH   8   9
BRANCH   8  14
ATOM     13  C   UNL     1       0.197   1.408  -0.305  0.00  0.00    +0.002 C 
ATOM     14  C   UNL     1       0.123  -0.117  -0.204  0.00  0.00    -0.016 C 
ENDBRANCH   8  14
ENDBRANCH   1   8
BRANCH   1  15
ATOM     15  O   UNL     1      -0.594  -2.617   0.906  0.00  0.00    -0.483 OA
BRANCH  15  16
ATOM     16  C   UNL     1      -1.179  -2.836   2.113  0.00  0.00    +0.122 A 
ATOM     17  C   UNL     1      -2.541  -2.623   2.274  0.00  0.00    +0.046 A 
ATOM     18  C   UNL     1      -3.134  -2.848   3.501  0.00  0.00    +0.005 A 
ATOM     19  C   UNL     1      -2.371  -3.284   4.569  0.00  0.00    +0.014 A 
ATOM     20  C   UNL     1      -1.014  -3.496   4.412  0.00  0.00    +0.017 A 
ATOM     21  C   UNL     1      -0.417  -3.279   3.184  0.00  0.00    +0.060 A 
ATOM     22  I   UNL     1       0.138  -4.156   6.033  0.00  0.00    -0.044 I 
ENDBRANCH  15  16
ENDBRANCH   1  15
TORSDOF 6
