REMARK  Name = ZINC00977587
REMARK  4 active torsions:
REMARK  status: ('A' for Active; 'I' for Inactive)
REMARK    1  A    between atoms: C_5  and  N_7
REMARK    2  A    between atoms: N_7  and  C_8
REMARK    3  A    between atoms: C_8  and  N_10
REMARK    4  A    between atoms: C_11  and  C_13
REMARK                            x       y       z     vdW  Elec       q    Type
REMARK                         _______ _______ _______ _____ _____    ______ ____
ROOT
ATOM      1  C   UNL     1       3.362   6.964  -0.388  0.00  0.00    +0.141 C 
ATOM      2  S   UNL     1       4.857   6.314  -0.912  0.00  0.00    -0.018 S 
ENDROOT
BRANCH   1   3
ATOM      3  N   UNL     1       2.259   6.190  -0.377  0.00  0.00    -0.264 N 
ATOM      4  C   UNL     1       2.332   4.906  -0.779  0.00  0.00    +0.251 C 
ATOM      5  O   UNL     1       3.393   4.445  -1.151  0.00  0.00    -0.270 OA
ATOM      6  H   UNL     1       1.412   6.558  -0.080  0.00  0.00    +0.157 HD
BRANCH   4   7
ATOM      7  C   UNL     1       1.122   4.058  -0.767  0.00  0.00    +0.056 A 
ATOM      8  C   UNL     1       1.185   2.722  -1.182  0.00  0.00    +0.031 A 
ATOM      9  C   UNL     1       0.022   1.970  -1.152  0.00  0.00    +0.037 A 
ATOM     10  C   UNL     1      -1.155   2.560  -0.722  0.00  0.00    +0.126 A 
ATOM     11  N   UNL     1      -1.182   3.820  -0.332  0.00  0.00    -0.261 NA
ATOM     12  C   UNL     1      -0.103   4.575  -0.342  0.00  0.00    +0.123 A 
ATOM     13 BR   UNL     1       0.040   0.161  -1.699  0.00  0.00    -0.049 Br
ENDBRANCH   4   7
ENDBRANCH   1   3
BRANCH   1  14
ATOM     14  N   UNL     1       3.289   8.248   0.014  0.00  0.00    -0.295 N 
ATOM     15  H   UNL     1       2.429   8.639   0.235  0.00  0.00    +0.154 HD
BRANCH  14  20
ATOM     16  C   UNL     1       6.741   9.235   0.805  0.00  0.00    +0.004 A 
ATOM     17  C   UNL     1       6.827  10.506   0.344  0.00  0.00    +0.031 A 
ATOM     18  C   UNL     1       5.704  11.118  -0.273  0.00  0.00    +0.102 A 
ATOM     19  C   UNL     1       4.473  10.345  -0.400  0.00  0.00    +0.121 A 
ATOM     20  C   UNL     1       4.451   9.016   0.112  0.00  0.00    +0.061 A 
ATOM     21  C   UNL     1       5.566   8.494   0.692  0.00  0.00    +0.025 A 
ATOM     22  N   UNL     1       3.508  11.037  -1.001  0.00  0.00    -0.189 NA
ATOM     23  S   UNL     1       4.120  12.439  -1.340  0.00  0.00    +0.117 S 
ATOM     24  N   UNL     1       5.582  12.341  -0.785  0.00  0.00    -0.191 NA
ENDBRANCH  14  20
ENDBRANCH   1  14
TORSDOF 4
