REMARK  Name = ZINC21255483
REMARK  7 active torsions:
REMARK  status: ('A' for Active; 'I' for Inactive)
REMARK    1  A    between atoms: C_1  and  O_2
REMARK    2  A    between atoms: O_2  and  C_3
REMARK    3  A    between atoms: C_8  and  C_9
REMARK    4  A    between atoms: C_14  and  C_24
REMARK    5  A    between atoms: C_29  and  O_30
REMARK    6  A    between atoms: O_30  and  C_31
REMARK    7  A    between atoms: C_31  and  C_32
REMARK                            x       y       z     vdW  Elec       q    Type
REMARK                         _______ _______ _______ _____ _____    ______ ____
ROOT
ATOM      1  C   UNL     1      -1.197   3.742   0.586  0.00  0.00    +0.035 C 
ATOM      2  C   UNL     1      -1.345   2.392  -0.113  0.00  0.00    +0.060 C 
ATOM      3  C   UNL     1      -0.034   1.627  -0.045  0.00  0.00    +0.017 C 
ATOM      4  C   UNL     1       1.140   2.284  -0.059  0.00  0.00    +0.037 C 
ATOM      5  C   UNL     1       2.509   1.651  -0.005  0.00  0.00    +0.139 C 
ATOM      6  N   UNL     1       2.518   0.217  -0.198  0.00  0.00    -0.331 N 
ATOM      7  C   UNL     1       1.907  -0.634   0.722  0.00  0.00    +0.049 A 
ATOM      8  C   UNL     1       2.650  -1.496   1.513  0.00  0.00    +0.025 A 
ATOM      9  C   UNL     1       2.014  -2.240   2.492  0.00  0.00    +0.002 A 
ATOM     10  C   UNL     1       0.648  -2.127   2.679  0.00  0.00    +0.002 A 
ATOM     11  C   UNL     1      -0.100  -1.283   1.876  0.00  0.00    +0.025 A 
ATOM     12  C   UNL     1       0.533  -0.552   0.885  0.00  0.00    +0.052 A 
ATOM     13  N   UNL     1      -0.163   0.277   0.013  0.00  0.00    -0.316 N 
ATOM     14  C   UNL     1       1.163   3.697  -0.115  0.00  0.00    +0.163 C 
ATOM     15  O   UNL     1       2.238   4.264  -0.150  0.00  0.00    -0.292 OA
ATOM     16  C   UNL     1      -0.089   4.521  -0.134  0.00  0.00    +0.088 C 
ATOM     17  H   UNL     1       3.011  -0.216  -1.080  0.00  0.00    +0.147 HD
ATOM     18  H   UNL     1      -0.859  -0.238  -0.665  0.00  0.00    +0.152 HD
ENDROOT
BRANCH   1  24
ATOM     19  C   UNL     1      -3.135   4.913   1.663  0.00  0.00    +0.124 A 
ATOM     20  C   UNL     1      -4.329   5.615   1.583  0.00  0.00    +0.046 A 
ATOM     21  C   UNL     1      -4.877   5.906   0.349  0.00  0.00    +0.004 A 
ATOM     22  C   UNL     1      -4.236   5.498  -0.807  0.00  0.00    +0.001 A 
ATOM     23  C   UNL     1      -3.043   4.803  -0.730  0.00  0.00    +0.007 A 
ATOM     24  C   UNL     1      -2.494   4.505   0.503  0.00  0.00    -0.002 A 
BRANCH  19  26
ATOM     25  C   UNL     1      -3.309   5.077   4.029  0.00  0.00    +0.277 C 
ATOM     26  O   UNL     1      -2.594   4.626   2.876  0.00  0.00    -0.495 OA
ENDBRANCH  19  26
ENDBRANCH   1  24
BRANCH   5  27
ATOM     27  C   UNL     1       3.119   1.956   1.339  0.00  0.00    +0.019 A 
ATOM     28  C   UNL     1       2.308   2.287   2.407  0.00  0.00    +0.009 A 
ATOM     29  C   UNL     1       2.868   2.566   3.640  0.00  0.00    +0.001 A 
ATOM     30  C   UNL     1       4.239   2.516   3.808  0.00  0.00    +0.004 A 
ATOM     31  C   UNL     1       5.054   2.186   2.742  0.00  0.00    +0.046 A 
ATOM     32  C   UNL     1       4.495   1.900   1.505  0.00  0.00    +0.126 A 
BRANCH  32  33
ATOM     33  O   UNL     1       5.294   1.569   0.457  0.00  0.00    -0.487 OA
BRANCH  33  34
ATOM     34  C   UNL     1       6.702   1.531   0.701  0.00  0.00    +0.264 C 
BRANCH  34  35
ATOM     35  C   UNL     1       7.421   1.149  -0.567  0.00  0.00    -0.010 A 
ATOM     36  C   UNL     1       7.673  -0.182  -0.845  0.00  0.00    +0.007 A 
ATOM     37  C   UNL     1       8.328  -0.532  -2.011  0.00  0.00    +0.000 A 
ATOM     38  C   UNL     1       8.742   0.448  -2.893  0.00  0.00    +0.000 A 
ATOM     39  C   UNL     1       8.496   1.779  -2.612  0.00  0.00    +0.000 A 
ATOM     40  C   UNL     1       7.835   2.129  -1.449  0.00  0.00    +0.007 A 
ENDBRANCH  34  35
ENDBRANCH  33  34
ENDBRANCH  32  33
ENDBRANCH   5  27
TORSDOF 6
