REMARK  Name = ZINC63572415
REMARK  3 active torsions:
REMARK  status: ('A' for Active; 'I' for Inactive)
REMARK    1  A    between atoms: C_1  and  C_2
REMARK    2  A    between atoms: C_5  and  N_9
REMARK    3  A    between atoms: C_25  and  C_27
REMARK                            x       y       z     vdW  Elec       q    Type
REMARK                         _______ _______ _______ _____ _____    ______ ____
ROOT
ATOM      1  N   UNL     1      -1.724  -4.349  -0.375  0.00  0.00    -0.268 N 
ATOM      2  C   UNL     1      -1.215  -4.989  -1.447  0.00  0.00    +0.307 C 
ATOM      3  O   UNL     1      -1.130  -4.413  -2.515  0.00  0.00    -0.252 OA
ATOM      4  N   UNL     1      -0.800  -6.267  -1.335  0.00  0.00    -0.276 N 
ATOM      5  C   UNL     1      -1.037  -7.000  -0.087  0.00  0.00    +0.114 C 
ATOM      6  C   UNL     1       0.306  -7.495   0.479  0.00  0.00    +0.052 C 
ATOM      7  C   UNL     1       1.070  -8.089  -0.677  0.00  0.00    -0.035 C 
ATOM      8  C   UNL     1       1.661  -9.269  -0.826  0.00  0.00    +0.001 A 
ATOM      9  C   UNL     1       1.880 -10.380   0.115  0.00  0.00    +0.030 A 
ATOM     10  C   UNL     1       2.516 -11.473  -0.386  0.00  0.00    +0.042 A 
ATOM     11  C   UNL     1       2.951 -11.569  -1.713  0.00  0.00    +0.022 A 
ATOM     12  C   UNL     1       2.798 -10.594  -2.643  0.00  0.00    +0.027 A 
ATOM     13  C   UNL     1       2.150  -9.392  -2.233  0.00  0.00    +0.043 A 
ATOM     14  N   UNL     1       1.896  -8.304  -2.899  0.00  0.00    -0.375 N 
ATOM     15  C   UNL     1       1.275  -7.341  -1.989  0.00  0.00    +0.131 C 
ATOM     16  C   UNL     1      -0.121  -6.913  -2.469  0.00  0.00    +0.134 C 
ATOM     17 CL   UNL     1       2.805 -12.816   0.676  0.00  0.00    -0.084 Cl
ATOM     18  H   UNL     1      -1.717  -4.779   0.494  0.00  0.00    +0.156 HD
ATOM     19  H   UNL     1       2.086  -8.157  -3.838  0.00  0.00    +0.160 HD
ENDROOT
BRANCH   1  24
ATOM     20  C   UNL     1      -3.906   0.857  -0.952  0.00  0.00    +0.044 C 
ATOM     21  C   UNL     1      -3.326  -0.526  -0.799  0.00  0.00    -0.049 A 
ATOM     22  C   UNL     1      -2.349  -0.965  -1.672  0.00  0.00    +0.005 A 
ATOM     23  C   UNL     1      -1.815  -2.232  -1.534  0.00  0.00    +0.025 A 
ATOM     24  C   UNL     1      -2.262  -3.065  -0.517  0.00  0.00    +0.053 A 
ATOM     25  C   UNL     1      -3.244  -2.621   0.359  0.00  0.00    +0.062 A 
ATOM     26  C   UNL     1      -3.770  -1.350   0.219  0.00  0.00    +0.025 A 
ATOM     27 CL   UNL     1      -3.806  -3.658   1.633  0.00  0.00    -0.082 Cl
ENDBRANCH   1  24
BRANCH  16  28
ATOM     28  C   UNL     1       0.006  -5.939  -3.611  0.00  0.00    -0.025 A 
ATOM     29  C   UNL     1       0.780  -4.802  -3.467  0.00  0.00    +0.008 A 
ATOM     30  C   UNL     1       0.897  -3.908  -4.514  0.00  0.00    +0.038 A 
ATOM     31  C   UNL     1       0.239  -4.151  -5.708  0.00  0.00    +0.123 A 
ATOM     32  C   UNL     1      -0.536  -5.289  -5.851  0.00  0.00    +0.038 A 
ATOM     33  C   UNL     1      -0.647  -6.184  -4.805  0.00  0.00    +0.008 A 
ATOM     34  F   UNL     1       0.352  -3.277  -6.732  0.00  0.00    -0.205 F 
ENDBRANCH  16  28
TORSDOF 2
