REMARK  Name = ZINC35571865
REMARK  6 active torsions:
REMARK  status: ('A' for Active; 'I' for Inactive)
REMARK    1  A    between atoms: C_1  and  C_2
REMARK    2  A    between atoms: C_2  and  N_3
REMARK    3  A    between atoms: N_3  and  C_4
REMARK    4  A    between atoms: C_4  and  C_6
REMARK    5  A    between atoms: C_4  and  C_12
REMARK    6  A    between atoms: C_9  and  C_11
REMARK                            x       y       z     vdW  Elec       q    Type
REMARK                         _______ _______ _______ _____ _____    ______ ____
ROOT
ATOM      1  C   UNL     1       0.710  -1.947  -1.215  0.00  0.00    +0.028 C 
ENDROOT
BRANCH   1   2
ATOM      2  C   UNL     1      -0.700  -2.467  -1.328  0.00  0.00    -0.036 A 
ATOM      3  C   UNL     1      -1.683  -1.688  -1.912  0.00  0.00    +0.009 A 
ATOM      4  C   UNL     1      -2.970  -2.167  -2.014  0.00  0.00    -0.017 A 
ATOM      5  C   UNL     1      -3.299  -3.429  -1.536  0.00  0.00    +0.038 A 
ATOM      6  C   UNL     1      -2.305  -4.209  -0.949  0.00  0.00    +0.043 A 
ATOM      7  C   UNL     1      -1.014  -3.729  -0.853  0.00  0.00    +0.045 A 
ATOM      8 CL   UNL     1       0.221  -4.710  -0.127  0.00  0.00    -0.083 Cl
ATOM      9  N   UNL     1      -4.653  -3.688  -1.752  0.00  0.00    -0.285 N 
ATOM     10  C   UNL     1      -5.277  -2.664  -2.357  0.00  0.00    +0.222 C 
ATOM     11  O   UNL     1      -6.449  -2.615  -2.665  0.00  0.00    -0.275 OA
ATOM     12  C   UNL     1      -4.242  -1.582  -2.583  0.00  0.00    +0.133 C 
ATOM     13  H   UNL     1      -5.093  -4.514  -1.495  0.00  0.00    +0.155 HD
ENDBRANCH   1   2
BRANCH   1  14
ATOM     14  C   UNL     1       1.520  -2.432  -2.389  0.00  0.00    +0.096 A 
ATOM     15  C   UNL     1       2.371  -3.474  -2.381  0.00  0.00    +0.043 A 
ATOM     16  C   UNL     1       2.910  -3.572  -3.684  0.00  0.00    +0.044 A 
ATOM     17  C   UNL     1       2.357  -2.584  -4.410  0.00  0.00    +0.102 A 
ATOM     18  O   UNL     1       1.512  -1.900  -3.622  0.00  0.00    -0.466 OA
ATOM     19  C   UNL     1       2.635  -2.297  -5.864  0.00  0.00    +0.086 C 
ENDBRANCH   1  14
BRANCH   1  20
ATOM     20  N   UNL     1       0.690  -0.478  -1.207  0.00  0.00    +0.388 N 
ATOM     21  H   UNL     1       0.202  -0.144  -2.024  0.00  0.00    -0.084 HD
ATOM     22  H   UNL     1       1.636  -0.129  -1.214  0.00  0.00    -0.084 HD
BRANCH  20  24
ATOM     23  C   UNL     1      -0.019   1.526   0.010  0.00  0.00    -0.017 C 
ATOM     24  C   UNL     1       0.002  -0.004   0.002  0.00  0.00    -0.085 C 
ENDBRANCH  20  24
ENDBRANCH   1  20
TORSDOF 4
