REMARK  Name = ZINC58847929
REMARK  9 active torsions:
REMARK  status: ('A' for Active; 'I' for Inactive)
REMARK    1  A    between atoms: C_1  and  C_2
REMARK    2  A    between atoms: C_3  and  N_9
REMARK    3  A    between atoms: N_9  and  S_10
REMARK    4  A    between atoms: S_10  and  C_13
REMARK    5  A    between atoms: C_26  and  C_29
REMARK    6  A    between atoms: C_31  and  O_37
REMARK    7  A    between atoms: C_34  and  O_35
REMARK    8  A    between atoms: O_35  and  C_36
REMARK    9  A    between atoms: O_37  and  C_38
REMARK                            x       y       z     vdW  Elec       q    Type
REMARK                         _______ _______ _______ _____ _____    ______ ____
ROOT
ATOM      1  C   UNL     1      -2.471  -0.716  -3.441  0.00  0.00    +0.109 A 
ATOM      2  C   UNL     1      -3.070  -1.799  -2.825  0.00  0.00    +0.030 A 
ATOM      3  C   UNL     1      -4.433  -1.797  -2.609  0.00  0.00    +0.025 A 
ATOM      4  C   UNL     1      -5.201  -0.708  -3.007  0.00  0.00    +0.031 A 
ATOM      5  C   UNL     1      -4.600   0.385  -3.613  0.00  0.00    -0.018 A 
ATOM      6  C   UNL     1      -3.230   0.370  -3.828  0.00  0.00    +0.034 A 
ATOM      7  C   UNL     1      -5.385   1.587  -4.017  0.00  0.00    +0.049 C 
ATOM      8  C   UNL     1      -5.620   1.638  -5.505  0.00  0.00    -0.023 C 
ATOM      9  C   UNL     1      -6.805   2.132  -5.760  0.00  0.00    -0.030 C 
ATOM     10  C   UNL     1      -7.533   2.477  -4.479  0.00  0.00    +0.033 C 
ATOM     11  C   UNL     1      -6.777   1.673  -3.396  0.00  0.00    +0.029 C 
ATOM     12  C   UNL     1      -7.460   0.330  -3.241  0.00  0.00    +0.109 C 
ATOM     13  N   UNL     1      -6.575  -0.728  -2.800  0.00  0.00    -0.336 N 
ATOM     14  H   UNL     1      -6.963  -1.499  -2.358  0.00  0.00    +0.147 HD
ENDROOT
BRANCH  12  15
ATOM     15  C   UNL     1      -8.082  -0.046  -4.561  0.00  0.00    +0.018 A 
ATOM     16  C   UNL     1      -9.414   0.232  -4.802  0.00  0.00    +0.054 A 
ATOM     17  C   UNL     1      -9.985  -0.114  -6.017  0.00  0.00    +0.121 A 
ATOM     18  C   UNL     1      -9.220  -0.739  -6.991  0.00  0.00    +0.049 A 
ATOM     19  C   UNL     1      -7.889  -1.016  -6.750  0.00  0.00    +0.049 A 
ATOM     20  C   UNL     1      -7.315  -0.666  -5.537  0.00  0.00    +0.125 A 
BRANCH  20  21
ATOM     21  O   UNL     1      -6.003  -0.934  -5.302  0.00  0.00    -0.495 OA
ATOM     22  C   UNL     1      -5.274  -1.574  -6.351  0.00  0.00    +0.277 C 
ENDBRANCH  20  21
BRANCH  17  23
ATOM     23  O   UNL     1     -11.296   0.159  -6.254  0.00  0.00    -0.495 OA
ATOM     24  C   UNL     1     -11.819  -0.225  -7.527  0.00  0.00    +0.277 C 
ENDBRANCH  17  23
ENDBRANCH  12  15
BRANCH   1  25
ATOM     25  S   UNL     1      -0.732  -0.719  -3.727  0.00  0.00    +0.072 S 
ATOM     26  O   UNL     1      -0.496   0.178  -4.804  0.00  0.00    -0.150 OA
ATOM     27  O   UNL     1      -0.329  -2.081  -3.767  0.00  0.00    -0.150 OA
BRANCH  25  28
ATOM     28  N   UNL     1      -0.015  -0.053  -2.391  0.00  0.00    -0.216 N 
ATOM     29  H   UNL     1       0.523   0.750  -2.479  0.00  0.00    +0.174 HD
BRANCH  28  32
ATOM     30  C   UNL     1      -0.201   1.646  -0.116  0.00  0.00    +0.047 C 
ATOM     31  C   UNL     1      -0.281   0.145  -0.001  0.00  0.00    -0.010 A 
ATOM     32  C   UNL     1      -0.185  -0.646  -1.138  0.00  0.00    +0.052 A 
ATOM     33  C   UNL     1      -0.260  -2.029  -1.027  0.00  0.00    +0.025 A 
ATOM     34  C   UNL     1      -0.429  -2.613   0.213  0.00  0.00    +0.003 A 
ATOM     35  C   UNL     1      -0.524  -1.823   1.344  0.00  0.00    +0.020 A 
ATOM     36  C   UNL     1      -0.444  -0.445   1.238  0.00  0.00    +0.046 A 
ATOM     37 CL   UNL     1      -0.556   0.542   2.662  0.00  0.00    -0.083 Cl
ENDBRANCH  28  32
ENDBRANCH  25  28
ENDBRANCH   1  25
TORSDOF 6
