REMARK  Name = ZINC48798055
REMARK  10 active torsions:
REMARK  status: ('A' for Active; 'I' for Inactive)
REMARK    1  A    between atoms: C_1  and  C_2
REMARK    2  A    between atoms: C_2  and  C_4
REMARK    3  A    between atoms: C_2  and  N_22
REMARK    4  A    between atoms: C_4  and  C_5
REMARK    5  A    between atoms: C_10  and  O_11
REMARK    6  A    between atoms: O_11  and  C_12
REMARK    7  A    between atoms: C_12  and  C_14
REMARK    8  A    between atoms: C_12  and  C_15
REMARK    9  A    between atoms: N_17  and  C_18
REMARK   10  A    between atoms: C_18  and  C_19
REMARK                            x       y       z     vdW  Elec       q    Type
REMARK                         _______ _______ _______ _____ _____    ______ ____
ROOT
ATOM      1  C   UNL     1       0.905  -1.847   1.371  0.00  0.00    -0.006 A 
ATOM      2  C   UNL     1      -0.120  -2.484   2.046  0.00  0.00    +0.007 A 
ATOM      3  C   UNL     1      -0.194  -3.865   2.049  0.00  0.00    +0.002 A 
ATOM      4  C   UNL     1       0.757  -4.612   1.378  0.00  0.00    +0.019 A 
ATOM      5  C   UNL     1       1.783  -3.980   0.702  0.00  0.00    +0.060 A 
ATOM      6  C   UNL     1       1.856  -2.594   0.693  0.00  0.00    +0.139 A 
ATOM      7 BR   UNL     1       3.083  -5.003  -0.215  0.00  0.00    -0.047 Br
ENDROOT
BRANCH   1   8
ATOM      8  C   UNL     1       0.984  -0.343   1.368  0.00  0.00    +0.022 C 
BRANCH   8  10
ATOM      9  C   UNL     1       0.418   1.722   0.079  0.00  0.00    -0.014 C 
ATOM     10  C   UNL     1       0.228   0.205   0.156  0.00  0.00    -0.074 C 
BRANCH  10  11
ATOM     11  N   UNL     1      -1.202  -0.102   0.290  0.00  0.00    +0.380 N 
ATOM     12  H   UNL     1      -1.700   0.259  -0.509  0.00  0.00    -0.090 HD
ATOM     13  H   UNL     1      -1.328  -1.102   0.341  0.00  0.00    -0.090 HD
ATOM     14  H   UNL     1      -1.560   0.325   1.132  0.00  0.00    -0.090 HD
ENDBRANCH  10  11
ENDBRANCH   8  10
ENDBRANCH   1   8
BRANCH   6  15
ATOM     15  O   UNL     1       2.862  -1.970   0.024  0.00  0.00    -0.479 OA
BRANCH  15  16
ATOM     16  C   UNL     1       2.597  -1.575  -1.323  0.00  0.00    +0.256 C 
ATOM     17  C   UNL     1       3.203  -2.601  -2.283  0.00  0.00    +0.062 C 
BRANCH  16  18
ATOM     18  C   UNL     1       3.211  -0.223  -1.580  0.00  0.00    +0.254 C 
ATOM     19  O   UNL     1       3.892   0.306  -0.727  0.00  0.00    -0.272 OA
ATOM     20  N   UNL     1       3.004   0.398  -2.758  0.00  0.00    -0.301 N 
ATOM     21  H   UNL     1       2.460  -0.025  -3.441  0.00  0.00    +0.150 HD
BRANCH  20  22
ATOM     22  C   UNL     1       3.601   1.713  -3.008  0.00  0.00    +0.193 C 
BRANCH  22  23
ATOM     23  C   UNL     1       3.228   2.173  -4.356  0.00  0.00    -0.087 C 
ATOM     24  C   UNL     1       2.931   2.539  -5.431  0.00  0.00    +0.005 C 
ENDBRANCH  22  23
ENDBRANCH  20  22
ENDBRANCH  16  18
ENDBRANCH  15  16
ENDBRANCH   6  15
TORSDOF 8
