REMARK  Name = ZINC01297116
REMARK  7 active torsions:
REMARK  status: ('A' for Active; 'I' for Inactive)
REMARK    1  A    between atoms: C_1  and  C_2
REMARK    2  A    between atoms: C_7  and  C_8
REMARK    3  A    between atoms: N_14  and  N_15
REMARK    4  A    between atoms: C_16  and  C_17
REMARK    5  A    between atoms: C_20  and  O_25
REMARK    6  A    between atoms: C_21  and  O_23
REMARK    7  A    between atoms: O_23  and  C_24
REMARK                            x       y       z     vdW  Elec       q    Type
REMARK                         _______ _______ _______ _____ _____    ______ ____
ROOT
ATOM      1  C   UNL     1      -1.300   2.519  -0.251  0.00  0.00    +0.184 A 
ATOM      2  N   UNL     1      -1.072   3.800  -0.161  0.00  0.00    -0.152 NA
ATOM      3  N   UNL     1       0.299   4.012  -0.361  0.00  0.00    -0.253 N 
ATOM      4  H   UNL     1       0.754   4.868  -0.353  0.00  0.00    +0.191 HD
ATOM      5  C   UNL     1       0.871   2.807  -0.566  0.00  0.00    +0.197 A 
ATOM      6  S   UNL     1       2.531   2.514  -0.860  0.00  0.00    -0.010 S 
ATOM      7  N   UNL     1      -0.102   1.877  -0.498  0.00  0.00    -0.188 N 
ENDROOT
BRANCH   1  14
ATOM      8  C   UNL     1      -3.018   3.230   1.966  0.00  0.00    +0.044 C 
ATOM      9  C   UNL     1      -3.456   2.199   0.957  0.00  0.00    -0.040 A 
ATOM     10  C   UNL     1      -4.686   1.588   1.082  0.00  0.00    +0.004 A 
ATOM     11  C   UNL     1      -5.087   0.638   0.160  0.00  0.00    +0.000 A 
ATOM     12  C   UNL     1      -4.260   0.298  -0.896  0.00  0.00    +0.001 A 
ATOM     13  C   UNL     1      -3.029   0.905  -1.035  0.00  0.00    +0.012 A 
ATOM     14  C   UNL     1      -2.619   1.865  -0.108  0.00  0.00    +0.024 A 
ENDBRANCH   1  14
BRANCH   7  15
ATOM     15  N   UNL     1       0.071   0.495  -0.656  0.00  0.00    -0.171 NA
ATOM     16  C   UNL     1       0.328  -0.249   0.376  0.00  0.00    +0.141 C 
BRANCH  16  17
ATOM     17  C   UNL     1       0.510  -1.702   0.209  0.00  0.00    -0.002 A 
ATOM     18  C   UNL     1       0.401  -2.281  -1.058  0.00  0.00    +0.013 A 
ATOM     19  C   UNL     1       0.577  -3.640  -1.212  0.00  0.00    +0.050 A 
ATOM     20  C   UNL     1       0.852  -4.437  -0.110  0.00  0.00    +0.158 A 
ATOM     21  C   UNL     1       0.957  -3.868   1.157  0.00  0.00    +0.162 A 
ATOM     22  C   UNL     1       0.787  -2.506   1.319  0.00  0.00    +0.059 A 
BRANCH  21  23
ATOM     23  O   UNL     1       1.226  -4.652   2.235  0.00  0.00    -0.491 OA
ATOM     24  C   UNL     1       1.320  -4.002   3.503  0.00  0.00    +0.277 C 
ENDBRANCH  21  23
BRANCH  20  25
ATOM     25  O   UNL     1       1.018  -5.777  -0.267  0.00  0.00    -0.503 OA
ATOM     26  H   UNL     1       0.201  -6.287  -0.186  0.00  0.00    +0.292 HD
ENDBRANCH  20  25
ENDBRANCH  16  17
ENDBRANCH   7  15
TORSDOF 5
