REMARK  Name = ZINC36066234
REMARK  14 active torsions:
REMARK  status: ('A' for Active; 'I' for Inactive)
REMARK    1  A    between atoms: C_1  and  C_2
REMARK    2  A    between atoms: C_7  and  N_12
REMARK    3  A    between atoms: C_9  and  C_11
REMARK    4  A    between atoms: C_13  and  C_15
REMARK    5  A    between atoms: C_23  and  C_35
REMARK    6  A    between atoms: N_29  and  C_30
REMARK    7  A    between atoms: C_30  and  C_31
REMARK    8  A    between atoms: C_31  and  C_32
REMARK    9  A    between atoms: C_32  and  O_33
REMARK   10  A    between atoms: O_33  and  C_34
REMARK   11  A    between atoms: N_37  and  C_38
REMARK   12  A    between atoms: C_41  and  C_44
REMARK   13  A    between atoms: C_44  and  C_45
REMARK   14  A    between atoms: C_44  and  C_46
REMARK                            x       y       z     vdW  Elec       q    Type
REMARK                         _______ _______ _______ _____ _____    ______ ____
ROOT
ATOM      1  C   UNL     1       2.002  -4.310   3.302  0.00  0.00    +0.198 C 
ATOM      2  C   UNL     1       3.332  -4.996   3.247  0.00  0.00    +0.127 C 
ATOM      3  C   UNL     1       3.339  -6.195   2.317  0.00  0.00    +0.009 C 
ATOM      4  C   UNL     1       4.570  -6.683   2.369  0.00  0.00    +0.004 C 
ATOM      5  C   UNL     1       5.302  -5.806   3.392  0.00  0.00    +0.155 C 
ATOM      6  O   UNL     1       4.644  -4.489   3.170  0.00  0.00    -0.358 OA
ATOM      7  C   UNL     1       4.673  -6.288   4.755  0.00  0.00    +0.123 C 
ATOM      8  C   UNL     1       3.354  -5.515   4.741  0.00  0.00    +0.128 C 
ATOM      9  C   UNL     1       1.996  -6.081   4.842  0.00  0.00    +0.223 C 
ATOM     10  O   UNL     1       1.666  -7.053   5.487  0.00  0.00    -0.275 OA
ATOM     11  N   UNL     1       1.177  -5.296   4.067  0.00  0.00    -0.286 N 
ENDROOT
BRANCH   1  13
ATOM     12  N   UNL     1       1.654  -2.935   1.275  0.00  0.00    -0.311 N 
ATOM     13  C   UNL     1       1.447  -4.102   1.916  0.00  0.00    +0.237 C 
ATOM     14  O   UNL     1       0.813  -4.985   1.379  0.00  0.00    -0.274 OA
ATOM     15  H   UNL     1       2.161  -2.229   1.705  0.00  0.00    +0.149 HD
BRANCH  12  21
ATOM     16  C   UNL     1       0.166   0.471  -1.985  0.00  0.00    +0.008 C 
ATOM     17  C   UNL     1       0.358  -1.025  -1.731  0.00  0.00    -0.009 C 
ATOM     18  C   UNL     1       1.333  -1.597  -2.763  0.00  0.00    +0.003 C 
ATOM     19  C   UNL     1       1.524  -3.093  -2.510  0.00  0.00    +0.002 C 
ATOM     20  C   UNL     1       2.089  -3.304  -1.103  0.00  0.00    +0.022 C 
ATOM     21  C   UNL     1       1.114  -2.733  -0.071  0.00  0.00    +0.076 C 
ATOM     22  C   UNL     1       0.922  -1.236  -0.325  0.00  0.00    +0.009 C 
ATOM     23  C   UNL     1      -0.053  -0.665   0.707  0.00  0.00    +0.009 C 
ENDBRANCH  12  21
ENDBRANCH   1  13
BRANCH   7  24
ATOM     24  C   UNL     1       4.448  -7.778   4.750  0.00  0.00    +0.224 C 
ATOM     25  O   UNL     1       3.326  -8.223   4.869  0.00  0.00    -0.275 OA
ATOM     26  N   UNL     1       5.494  -8.617   4.614  0.00  0.00    -0.285 N 
ATOM     27  H   UNL     1       6.381  -8.263   4.445  0.00  0.00    +0.155 HD
BRANCH  26  28
ATOM     28  C   UNL     1       5.301  -9.999   4.718  0.00  0.00    +0.033 A 
ATOM     29  C   UNL     1       6.079 -10.869   3.966  0.00  0.00    +0.023 A 
ATOM     30  C   UNL     1       5.886 -12.232   4.071  0.00  0.00    +0.006 A 
ATOM     31  C   UNL     1       4.920 -12.732   4.924  0.00  0.00    -0.045 A 
ATOM     32  C   UNL     1       4.143 -11.868   5.674  0.00  0.00    +0.006 A 
ATOM     33  C   UNL     1       4.335 -10.504   5.579  0.00  0.00    +0.023 A 
BRANCH  31  34
ATOM     34  C   UNL     1       4.712 -14.220   5.036  0.00  0.00    +0.013 C 
ATOM     35  C   UNL     1       4.957 -14.662   6.480  0.00  0.00    +0.012 C 
ATOM     36  C   UNL     1       3.277 -14.566   4.633  0.00  0.00    +0.012 C 
ENDBRANCH  31  34
ENDBRANCH  26  28
ENDBRANCH   7  24
BRANCH  11  37
ATOM     37  C   UNL     1      -0.283  -5.407   4.000  0.00  0.00    +0.111 C 
BRANCH  37  38
ATOM     38  C   UNL     1      -0.908  -4.605   5.144  0.00  0.00    +0.047 C 
BRANCH  38  39
ATOM     39  C   UNL     1      -2.428  -4.783   5.119  0.00  0.00    +0.161 C 
BRANCH  39  40
ATOM     40  O   UNL     1      -3.012  -4.034   6.187  0.00  0.00    -0.383 OA
ATOM     41  C   UNL     1      -4.436  -4.133   6.255  0.00  0.00    +0.193 C 
ENDBRANCH  39  40
ENDBRANCH  38  39
ENDBRANCH  37  38
ENDBRANCH  11  37
TORSDOF 9
