REMARK  Name = ZINC15866210
REMARK  6 active torsions:
REMARK  status: ('A' for Active; 'I' for Inactive)
REMARK    1  A    between atoms: C_1  and  O_2
REMARK    2  A    between atoms: O_2  and  C_3
REMARK    3  A    between atoms: C_7  and  C_13
REMARK    4  A    between atoms: C_8  and  O_9
REMARK    5  A    between atoms: O_9  and  C_10
REMARK    6  A    between atoms: C_16  and  C_24
REMARK                            x       y       z     vdW  Elec       q    Type
REMARK                         _______ _______ _______ _____ _____    ______ ____
ROOT
ATOM      1  C   UNL     1      -2.556   4.163   0.049  0.00  0.00    +0.148 C 
ATOM      2  C   UNL     1      -2.636   5.038   1.306  0.00  0.00    +0.059 C 
ATOM      3  C   UNL     1      -3.827   5.997   1.195  0.00  0.00    +0.106 C 
ATOM      4  N   UNL     1      -3.608   6.890   0.040  0.00  0.00    -0.305 N 
ATOM      5  C   UNL     1      -3.137   6.288  -1.118  0.00  0.00    +0.236 A 
ATOM      6  N   UNL     1      -2.648   5.022  -1.128  0.00  0.00    -0.206 N 
ATOM      7  N   UNL     1      -2.283   4.773  -2.452  0.00  0.00    -0.042 NA
ATOM      8  N   UNL     1      -2.558   5.848  -3.117  0.00  0.00    -0.021 NA
ATOM      9  N   UNL     1      -3.060   6.743  -2.337  0.00  0.00    -0.092 NA
ATOM     10  H   UNL     1      -3.784   7.843   0.087  0.00  0.00    +0.150 HD
ENDROOT
BRANCH   3  11
ATOM     11  C   UNL     1      -3.934   6.818   2.454  0.00  0.00    -0.027 A 
ATOM     12  C   UNL     1      -3.110   7.912   2.639  0.00  0.00    +0.006 A 
ATOM     13  C   UNL     1      -3.211   8.668   3.792  0.00  0.00    +0.015 A 
ATOM     14  C   UNL     1      -4.131   8.323   4.766  0.00  0.00    +0.018 A 
ATOM     15  C   UNL     1      -4.952   7.225   4.583  0.00  0.00    +0.015 A 
ATOM     16  C   UNL     1      -4.854   6.473   3.428  0.00  0.00    +0.006 A 
ATOM     17 BR   UNL     1      -4.266   9.353   6.346  0.00  0.00    -0.050 Br
ENDBRANCH   3  11
BRANCH   1  22
ATOM     18  C   UNL     1      -0.016   1.356   0.009  0.00  0.00    +0.162 A 
ATOM     19  C   UNL     1       1.173   2.066   0.002  0.00  0.00    +0.049 A 
ATOM     20  C   UNL     1       1.153   3.449   0.010  0.00  0.00    +0.004 A 
ATOM     21  C   UNL     1      -0.053   4.125   0.025  0.00  0.00    +0.009 A 
ATOM     22  C   UNL     1      -1.243   3.422   0.032  0.00  0.00    +0.023 A 
ATOM     23  C   UNL     1      -1.230   2.037   0.019  0.00  0.00    +0.173 A 
BRANCH  18  25
ATOM     24  C   UNL     1       1.284  -0.635  -0.014  0.00  0.00    +0.277 C 
ATOM     25  O   UNL     1       0.002  -0.004   0.002  0.00  0.00    -0.491 OA
ENDBRANCH  18  25
BRANCH  23  26
ATOM     26  O   UNL     1      -2.400   1.344   0.021  0.00  0.00    -0.430 OA
BRANCH  26  27
ATOM     27  C   UNL     1      -2.952   1.006   1.295  0.00  0.00    +0.541 C 
ATOM     28  F   UNL     1      -2.043   0.211   2.001  0.00  0.00    -0.166 F 
ATOM     29  F   UNL     1      -3.208   2.177   2.017  0.00  0.00    -0.166 F 
ENDBRANCH  26  27
ENDBRANCH  23  26
ENDBRANCH   1  22
TORSDOF 5
