REMARK  Name = ZINC20905425
REMARK  8 active torsions:
REMARK  status: ('A' for Active; 'I' for Inactive)
REMARK    1  A    between atoms: C_1  and  C_2
REMARK    2  A    between atoms: C_5  and  N_8
REMARK    3  A    between atoms: C_9  and  C_11
REMARK    4  A    between atoms: C_11  and  C_12
REMARK    5  A    between atoms: C_12  and  S_13
REMARK    6  A    between atoms: S_13  and  C_14
REMARK    7  A    between atoms: N_19  and  N_20
REMARK    8  A    between atoms: C_21  and  C_22
REMARK                            x       y       z     vdW  Elec       q    Type
REMARK                         _______ _______ _______ _____ _____    ______ ____
ROOT
ATOM      1  C   UNL     1       1.952   0.196   0.106  0.00  0.00    +0.210 A 
ATOM      2  N   UNL     1       0.599   0.383   0.099  0.00  0.00    -0.186 NA
ATOM      3  C   UNL     1       0.357   1.729   0.098  0.00  0.00    +0.232 A 
ATOM      4  N   UNL     1       1.513   2.348   0.105  0.00  0.00    -0.245 N 
ATOM      5  N   UNL     1       2.524   1.377   0.110  0.00  0.00    -0.144 NA
ATOM      6  N   UNL     1      -0.891   2.333   0.086  0.00  0.00    -0.205 N 
ATOM      7  H   UNL     1      -1.801   1.716   0.076  0.00  0.00    +0.177 HD
ATOM      8  H   UNL     1       1.548   3.447   0.106  0.00  0.00    +0.192 HD
ENDROOT
BRANCH   6   9
ATOM      9  N   UNL     1      -0.993   3.731   0.087  0.00  0.00    -0.188 NA
ATOM     10  C   UNL     1      -2.163   4.297   0.076  0.00  0.00    +0.139 C 
BRANCH  10  11
ATOM     11  C   UNL     1      -2.270   5.764   0.077  0.00  0.00    +0.002 A 
ATOM     12  C   UNL     1      -3.509   6.385   0.178  0.00  0.00    +0.010 A 
ATOM     13  C   UNL     1      -3.606   7.770   0.184  0.00  0.00    +0.001 A 
ATOM     14  C   UNL     1      -2.507   8.567   0.081  0.00  0.00    +0.008 A 
ATOM     15  C   UNL     1      -1.223   8.008  -0.030  0.00  0.00    -0.017 A 
ATOM     16  C   UNL     1      -1.075   6.599  -0.034  0.00  0.00    -0.009 A 
ATOM     17  C   UNL     1       0.203   6.038  -0.143  0.00  0.00    +0.009 A 
ATOM     18  C   UNL     1       1.290   6.854  -0.245  0.00  0.00    +0.001 A 
ATOM     19  C   UNL     1       1.148   8.239  -0.241  0.00  0.00    +0.001 A 
ATOM     20  C   UNL     1      -0.080   8.818  -0.136  0.00  0.00    +0.008 A 
ENDBRANCH  10  11
ENDBRANCH   6   9
BRANCH   1  21
ATOM     21  S   UNL     1       2.783  -1.357   0.110  0.00  0.00    -0.084 S 
BRANCH  21  22
ATOM     22  C   UNL     1       4.503  -0.793   0.120  0.00  0.00    +0.086 C 
BRANCH  22  23
ATOM     23  C   UNL     1       5.437  -2.005   0.124  0.00  0.00    +0.107 C 
BRANCH  23  25
ATOM     24  N   UNL     1       7.873  -2.435   0.138  0.00  0.00    -0.285 N 
ATOM     25  C   UNL     1       6.869  -1.536   0.133  0.00  0.00    +0.218 C 
ATOM     26  O   UNL     1       7.118  -0.349   0.135  0.00  0.00    -0.275 OA
ATOM     27  H   UNL     1       7.649  -3.509   0.213  0.00  0.00    +0.155 HD
BRANCH  24  32
ATOM     28  C   UNL     1      13.255  -0.679  -0.226  0.00  0.00    +0.044 C 
ATOM     29  C   UNL     1      11.825  -1.146  -0.130  0.00  0.00    -0.050 A 
ATOM     30  C   UNL     1      10.898  -0.388   0.561  0.00  0.00    +0.005 A 
ATOM     31  C   UNL     1       9.586  -0.812   0.652  0.00  0.00    +0.023 A 
ATOM     32  C   UNL     1       9.200  -2.002   0.048  0.00  0.00    +0.033 A 
ATOM     33  C   UNL     1      10.136  -2.764  -0.640  0.00  0.00    +0.023 A 
ATOM     34  C   UNL     1      11.444  -2.330  -0.732  0.00  0.00    +0.005 A 
ENDBRANCH  24  32
ENDBRANCH  23  25
ENDBRANCH  22  23
ENDBRANCH  21  22
ENDBRANCH   1  21
TORSDOF 7
