REMARK  Name = ZINC20693721
REMARK  8 active torsions:
REMARK  status: ('A' for Active; 'I' for Inactive)
REMARK    1  A    between atoms: C_1  and  O_2
REMARK    2  A    between atoms: O_2  and  C_3
REMARK    3  A    between atoms: C_5  and  C_10
REMARK    4  A    between atoms: C_8  and  O_9
REMARK    5  A    between atoms: C_21  and  N_26
REMARK    6  A    between atoms: C_27  and  C_29
REMARK    7  A    between atoms: C_29  and  C_30
REMARK    8  A    between atoms: C_30  and  C_31
REMARK                            x       y       z     vdW  Elec       q    Type
REMARK                         _______ _______ _______ _____ _____    ______ ____
ROOT
ATOM      1  C   UNL     1       5.159   3.349  -0.023  0.00  0.00    +0.105 C 
ATOM      2  C   UNL     1       5.088   4.822  -0.385  0.00  0.00    +0.029 C 
ATOM      3  C   UNL     1       4.164   5.708   0.460  0.00  0.00    +0.033 C 
ATOM      4  C   UNL     1       3.765   6.786  -0.549  0.00  0.00    -0.030 C 
ATOM      5  C   UNL     1       3.852   6.307  -1.784  0.00  0.00    -0.023 C 
ATOM      6  C   UNL     1       4.275   4.885  -1.713  0.00  0.00    +0.049 C 
ATOM      7  C   UNL     1       5.093   4.260  -2.775  0.00  0.00    -0.018 A 
ATOM      8  C   UNL     1       5.075   4.706  -4.079  0.00  0.00    +0.029 A 
ATOM      9  C   UNL     1       5.853   4.079  -5.043  0.00  0.00    +0.034 A 
ATOM     10  C   UNL     1       6.651   2.998  -4.691  0.00  0.00    +0.025 A 
ATOM     11  C   UNL     1       6.675   2.552  -3.387  0.00  0.00    +0.025 A 
ATOM     12  C   UNL     1       5.904   3.178  -2.415  0.00  0.00    +0.031 A 
ATOM     13  N   UNL     1       5.962   2.716  -1.092  0.00  0.00    -0.336 N 
ATOM     14  H   UNL     1       6.621   1.867  -0.855  0.00  0.00    +0.147 HD
ENDROOT
BRANCH   1  17
ATOM     15  C   UNL     1       1.766   2.233   1.211  0.00  0.00    +0.162 A 
ATOM     16  C   UNL     1       3.042   2.775   1.181  0.00  0.00    +0.054 A 
ATOM     17  C   UNL     1       3.774   2.754   0.009  0.00  0.00    -0.023 A 
ATOM     18  C   UNL     1       3.240   2.188  -1.134  0.00  0.00    +0.009 A 
ATOM     19  C   UNL     1       1.971   1.641  -1.109  0.00  0.00    +0.049 A 
ATOM     20  C   UNL     1       1.231   1.659   0.062  0.00  0.00    +0.158 A 
BRANCH  15  22
ATOM     21  C   UNL     1       1.656   2.864   3.501  0.00  0.00    +0.277 C 
ATOM     22  O   UNL     1       1.042   2.258   2.362  0.00  0.00    -0.491 OA
ENDBRANCH  15  22
BRANCH  20  23
ATOM     23  O   UNL     1      -0.018   1.121   0.088  0.00  0.00    -0.503 OA
ATOM     24  H   UNL     1      -0.440   0.667  -0.821  0.00  0.00    +0.292 HD
ENDBRANCH  20  23
ENDBRANCH   1  17
BRANCH   9  25
ATOM     25  N   UNL     1       5.833   4.536  -6.367  0.00  0.00    -0.285 N 
ATOM     26  C   UNL     1       5.981   3.664  -7.384  0.00  0.00    +0.218 C 
ATOM     27  O   UNL     1       6.036   2.473  -7.158  0.00  0.00    -0.275 OA
ATOM     28  H   UNL     1       5.696   5.607  -6.578  0.00  0.00    +0.155 HD
BRANCH  26  29
ATOM     29  C   UNL     1       6.078   4.167  -8.801  0.00  0.00    +0.101 C 
BRANCH  29  30
ATOM     30  C   UNL     1       6.241   2.981  -9.753  0.00  0.00    +0.044 C 
BRANCH  30  31
ATOM     31  C   UNL     1       6.338   3.484 -11.171  0.00  0.00    -0.047 A 
ATOM     32  C   UNL     1       5.193   3.633 -11.931  0.00  0.00    +0.003 A 
ATOM     33  C   UNL     1       5.282   4.099 -13.229  0.00  0.00    +0.000 A 
ATOM     34  C   UNL     1       6.516   4.406 -13.771  0.00  0.00    +0.000 A 
ATOM     35  C   UNL     1       7.662   4.252 -13.012  0.00  0.00    +0.000 A 
ATOM     36  C   UNL     1       7.572   3.791 -11.712  0.00  0.00    +0.003 A 
ENDBRANCH  30  31
ENDBRANCH  29  30
ENDBRANCH  26  29
ENDBRANCH   9  25
TORSDOF 7
