REMARK  Name = ZINC04787833
REMARK  13 active torsions:
REMARK  status: ('A' for Active; 'I' for Inactive)
REMARK    1  A    between atoms: C_1  and  C_2
REMARK    2  A    between atoms: C_2  and  O_3
REMARK    3  A    between atoms: O_3  and  C_4
REMARK    4  A    between atoms: C_6  and  C_11
REMARK    5  A    between atoms: C_9  and  O_10
REMARK    6  A    between atoms: C_16  and  C_26
REMARK    7  A    between atoms: C_18  and  C_22
REMARK    8  A    between atoms: C_22  and  O_24
REMARK    9  A    between atoms: O_24  and  C_25
REMARK   10  A    between atoms: C_28  and  C_38
REMARK   11  A    between atoms: C_29  and  C_30
REMARK   12  A    between atoms: C_30  and  O_32
REMARK   13  A    between atoms: O_32  and  C_33
REMARK                            x       y       z     vdW  Elec       q    Type
REMARK                         _______ _______ _______ _____ _____    ______ ____
ROOT
ATOM      1  C   UNL     1       0.654  -4.954  -0.018  0.00  0.00    +0.092 C 
ATOM      2  C   UNL     1       0.628  -5.803  -1.265  0.00  0.00    +0.025 C 
ATOM      3  C   UNL     1       0.243  -7.095  -1.210  0.00  0.00    +0.016 C 
ATOM      4  C   UNL     1       0.203  -7.947  -2.455  0.00  0.00    +0.055 C 
ATOM      5  C   UNL     1       1.279  -7.475  -3.436  0.00  0.00    +0.013 C 
ATOM      6  C   UNL     1       1.027  -5.999  -3.761  0.00  0.00    +0.171 C 
ATOM      7  C   UNL     1       1.015  -5.211  -2.480  0.00  0.00    +0.176 C 
ATOM      8  O   UNL     1       1.347  -4.042  -2.495  0.00  0.00    -0.291 OA
ATOM      9  C   UNL     1       1.206  -8.307  -4.718  0.00  0.00    +0.009 C 
ATOM     10  N   UNL     1      -0.117  -7.664  -0.018  0.00  0.00    -0.321 N 
ATOM     11  C   UNL     1       0.262  -7.098   1.167  0.00  0.00    +0.016 C 
ATOM     12  C   UNL     1       0.640  -5.809   1.214  0.00  0.00    +0.065 C 
ATOM     13  C   UNL     1       0.255  -7.923   2.427  0.00  0.00    +0.061 C 
ATOM     14  H   UNL     1      -0.646  -8.477  -0.014  0.00  0.00    +0.152 HD
ENDROOT
BRANCH   1  17
ATOM     15  C   UNL     1      -1.498  -1.849   0.006  0.00  0.00    +0.162 A 
ATOM     16  C   UNL     1      -0.389  -2.680  -0.003  0.00  0.00    +0.054 A 
ATOM     17  C   UNL     1      -0.553  -4.052  -0.008  0.00  0.00    -0.032 A 
ATOM     18  C   UNL     1      -1.823  -4.600  -0.005  0.00  0.00    +0.008 A 
ATOM     19  C   UNL     1      -2.934  -3.777   0.004  0.00  0.00    +0.049 A 
ATOM     20  C   UNL     1      -2.776  -2.400   0.016  0.00  0.00    +0.158 A 
BRANCH  20  21
ATOM     21  O   UNL     1      -3.868  -1.589   0.030  0.00  0.00    -0.503 OA
ATOM     22  H   UNL     1      -4.192  -1.350  -0.849  0.00  0.00    +0.292 HD
ENDBRANCH  20  21
BRANCH  15  23
ATOM     23  O   UNL     1      -1.339  -0.499   0.012  0.00  0.00    -0.489 OA
BRANCH  23  25
ATOM     24  C   UNL     1      -0.019   1.526   0.010  0.00  0.00    +0.048 C 
ATOM     25  C   UNL     1       0.002  -0.004   0.002  0.00  0.00    +0.226 C 
ENDBRANCH  23  25
ENDBRANCH  15  23
ENDBRANCH   1  17
BRANCH   6  26
ATOM     26  C   UNL     1       2.123  -5.487  -4.660  0.00  0.00    +0.318 C 
ATOM     27  O   UNL     1       3.014  -6.225  -5.007  0.00  0.00    -0.250 OA
BRANCH  26  28
ATOM     28  O   UNL     1       2.108  -4.211  -5.076  0.00  0.00    -0.467 OA
ATOM     29  C   UNL     1       3.177  -3.793  -5.927  0.00  0.00    +0.280 C 
ENDBRANCH  26  28
ENDBRANCH   6  26
BRANCH  12  30
ATOM     30  C   UNL     1       1.034  -5.249   2.452  0.00  0.00    +0.338 C 
ATOM     31  O   UNL     1       1.027  -5.933   3.459  0.00  0.00    -0.245 OA
BRANCH  30  32
ATOM     32  O   UNL     1       1.417  -3.957   2.516  0.00  0.00    -0.458 OA
BRANCH  32  33
ATOM     33  C   UNL     1       1.802  -3.457   3.799  0.00  0.00    +0.177 C 
ATOM     34  C   UNL     1       0.588  -2.815   4.502  0.00  0.00    +0.044 C 
ATOM     35  C   UNL     1       1.182  -1.594   5.246  0.00  0.00    +0.004 C 
ATOM     36  C   UNL     1       2.244  -1.068   4.248  0.00  0.00    +0.004 C 
ATOM     37  C   UNL     1       2.854  -2.346   3.638  0.00  0.00    +0.044 C 
ENDBRANCH  32  33
ENDBRANCH  30  32
ENDBRANCH  12  30
TORSDOF 9
