REMARK  Name = ZINC45606917
REMARK  9 active torsions:
REMARK  status: ('A' for Active; 'I' for Inactive)
REMARK    1  A    between atoms: C_1  and  C_2
REMARK    2  A    between atoms: C_2  and  C_4
REMARK    3  A    between atoms: C_2  and  N_13
REMARK    4  A    between atoms: C_4  and  C_5
REMARK    5  A    between atoms: C_5  and  C_6
REMARK    6  A    between atoms: C_9  and  O_12
REMARK    7  A    between atoms: N_16  and  C_17
REMARK    8  A    between atoms: N_16  and  C_18
REMARK    9  A    between atoms: C_18  and  C_19
REMARK                            x       y       z     vdW  Elec       q    Type
REMARK                         _______ _______ _______ _____ _____    ______ ____
ROOT
ATOM      1  N   UNL     1       0.688  -0.476  -1.203  0.00  0.00    -0.297 N 
ATOM      2  C   UNL     1       2.031  -0.587  -1.215  0.00  0.00    +0.302 C 
ATOM      3  O   UNL     1       2.674  -0.294  -0.225  0.00  0.00    -0.253 OA
ATOM      4  N   UNL     1       2.662  -1.022  -2.324  0.00  0.00    -0.284 N 
ATOM      5  C   UNL     1       1.887  -1.374  -3.517  0.00  0.00    +0.134 C 
ATOM      6  H   UNL     1       0.175  -0.710  -1.993  0.00  0.00    +0.151 HD
ENDROOT
BRANCH   1   8
ATOM      7  C   UNL     1      -0.019   1.526   0.010  0.00  0.00    +0.028 C 
ATOM      8  C   UNL     1       0.002  -0.004   0.002  0.00  0.00    +0.072 C 
BRANCH   8   9
ATOM      9  C   UNL     1      -1.433  -0.534   0.013  0.00  0.00    +0.026 C 
BRANCH   9  10
ATOM     10  C   UNL     1      -1.413  -2.059   0.130  0.00  0.00    +0.037 C 
BRANCH  10  11
ATOM     11  C   UNL     1      -2.827  -2.581   0.141  0.00  0.00    -0.047 A 
ATOM     12  C   UNL     1      -3.501  -2.723   1.340  0.00  0.00    +0.007 A 
ATOM     13  C   UNL     1      -4.797  -3.201   1.352  0.00  0.00    +0.045 A 
ATOM     14  C   UNL     1      -5.422  -3.539   0.161  0.00  0.00    +0.117 A 
ATOM     15  C   UNL     1      -4.744  -3.395  -1.041  0.00  0.00    +0.045 A 
ATOM     16  C   UNL     1      -3.450  -2.911  -1.048  0.00  0.00    +0.007 A 
BRANCH  14  17
ATOM     17  O   UNL     1      -6.697  -4.010   0.170  0.00  0.00    -0.507 OA
ATOM     18  H   UNL     1      -7.372  -3.321   0.100  0.00  0.00    +0.292 HD
ENDBRANCH  14  17
ENDBRANCH  10  11
ENDBRANCH   9  10
ENDBRANCH   8   9
ENDBRANCH   1   8
BRANCH   4  19
ATOM     19  C   UNL     1       4.122  -1.142  -2.336  0.00  0.00    +0.151 C 
BRANCH  19  20
ATOM     20  C   UNL     1       4.516  -2.521  -1.876  0.00  0.00    +0.008 A 
ATOM     21  C   UNL     1       4.708  -3.644  -2.612  0.00  0.00    +0.014 A 
ATOM     22  C   UNL     1       5.072  -4.812  -1.969  0.00  0.00    +0.023 A 
ATOM     23  C   UNL     1       5.226  -4.801  -0.621  0.00  0.00    +0.055 A 
ATOM     24  S   UNL     1       4.860  -3.100  -0.223  0.00  0.00    -0.085 S 
ATOM     25 BR   UNL     1       5.710  -6.217   0.534  0.00  0.00    -0.043 Br
ENDBRANCH  19  20
ENDBRANCH   4  19
TORSDOF 7
