REMARK  Name = ZINC39677149
REMARK  5 active torsions:
REMARK  status: ('A' for Active; 'I' for Inactive)
REMARK    1  A    between atoms: C_1  and  C_2
REMARK    2  A    between atoms: C_6  and  C_7
REMARK    3  A    between atoms: C_7  and  N_8
REMARK    4  A    between atoms: C_9  and  C_11
REMARK    5  A    between atoms: C_22  and  C_24
REMARK                            x       y       z     vdW  Elec       q    Type
REMARK                         _______ _______ _______ _____ _____    ______ ____
ROOT
ATOM      1  C   UNL     1      -3.278   0.575   4.731  0.00  0.00    +0.100 C 
ATOM      2  C   UNL     1      -3.947  -0.817   4.703  0.00  0.00    +0.121 C 
ATOM      3  N   UNL     1      -3.709  -1.375   6.056  0.00  0.00    -0.296 N 
ATOM      4  C   UNL     1      -3.884  -0.218   6.967  0.00  0.00    +0.115 C 
ATOM      5  C   UNL     1      -3.241   0.966   6.218  0.00  0.00    -0.004 C 
ATOM      6  C   UNL     1      -1.800   1.159   6.678  0.00  0.00    -0.010 C 
ATOM      7  C   UNL     1      -1.792   1.603   8.144  0.00  0.00    -0.082 C 
ATOM      8  N   UNL     1      -2.543   2.856   8.282  0.00  0.00    +0.379 N 
ATOM      9  C   UNL     1      -3.950   2.639   7.925  0.00  0.00    -0.082 C 
ATOM     10  C   UNL     1      -4.049   2.239   6.450  0.00  0.00    -0.010 C 
ATOM     11  C   UNL     1      -3.403  -2.646   6.383  0.00  0.00    +0.247 C 
ATOM     12  O   UNL     1      -3.323  -2.970   7.552  0.00  0.00    -0.270 OA
ATOM     13  H   UNL     1      -2.485   3.178   9.236  0.00  0.00    -0.086 HD
ATOM     14  H   UNL     1      -2.146   3.554   7.670  0.00  0.00    -0.086 HD
ENDROOT
BRANCH  11  15
ATOM     15  C   UNL     1      -3.164  -3.645   5.322  0.00  0.00    +0.045 A 
ATOM     16  C   UNL     1      -4.088  -3.800   4.282  0.00  0.00    +0.014 A 
ATOM     17  C   UNL     1      -3.867  -4.731   3.290  0.00  0.00    +0.001 A 
ATOM     18  C   UNL     1      -2.730  -5.523   3.311  0.00  0.00    +0.012 A 
ATOM     19  C   UNL     1      -1.800  -5.385   4.335  0.00  0.00    +0.031 A 
ATOM     20  C   UNL     1      -2.009  -4.437   5.348  0.00  0.00    +0.006 A 
ATOM     21  C   UNL     1      -0.870  -4.496   6.298  0.00  0.00    -0.006 A 
ATOM     22  C   UNL     1      -0.592  -3.785   7.458  0.00  0.00    +0.009 A 
ATOM     23  C   UNL     1       0.568  -4.045   8.170  0.00  0.00    +0.001 A 
ATOM     24  C   UNL     1       1.455  -5.010   7.734  0.00  0.00    +0.001 A 
ATOM     25  C   UNL     1       1.193  -5.728   6.579  0.00  0.00    +0.012 A 
ATOM     26  C   UNL     1       0.033  -5.478   5.856  0.00  0.00    +0.030 A 
ATOM     27  C   UNL     1      -0.519  -6.077   4.617  0.00  0.00    +0.194 C 
ATOM     28  O   UNL     1      -0.012  -6.957   3.953  0.00  0.00    -0.287 OA
ENDBRANCH  11  15
BRANCH   1  30
ATOM     29  N   UNL     1      -1.339   1.563   3.555  0.00  0.00    -0.310 N 
ATOM     30  C   UNL     1      -1.879   0.495   4.175  0.00  0.00    +0.218 C 
ATOM     31  O   UNL     1      -1.240  -0.529   4.285  0.00  0.00    -0.275 OA
ATOM     32  H   UNL     1      -1.850   2.383   3.467  0.00  0.00    +0.149 HD
BRANCH  29  33
ATOM     33  C   UNL     1       0.021   1.486   3.015  0.00  0.00    +0.147 C 
BRANCH  33  39
ATOM     34  C   UNL     1       1.362   3.882   4.393  0.00  0.00    +0.044 C 
ATOM     35  C   UNL     1       0.974   3.888   2.937  0.00  0.00    -0.039 A 
ATOM     36  C   UNL     1       1.219   4.997   2.150  0.00  0.00    +0.011 A 
ATOM     37  C   UNL     1       0.857   4.970   0.844  0.00  0.00    +0.046 A 
ATOM     38  S   UNL     1       0.145   3.340   0.692  0.00  0.00    -0.100 S 
ATOM     39  C   UNL     1       0.383   2.803   2.378  0.00  0.00    +0.010 A 
ENDBRANCH  33  39
ENDBRANCH  29  33
ENDBRANCH   1  30
TORSDOF 4
