REMARK  Name = ZINC39394471
REMARK  5 active torsions:
REMARK  status: ('A' for Active; 'I' for Inactive)
REMARK    1  A    between atoms: C_1  and  N_2
REMARK    2  A    between atoms: C_5  and  N_8
REMARK    3  A    between atoms: C_12  and  C_15
REMARK    4  A    between atoms: N_17  and  C_18
REMARK    5  A    between atoms: C_18  and  C_19
REMARK                            x       y       z     vdW  Elec       q    Type
REMARK                         _______ _______ _______ _____ _____    ______ ____
ROOT
ATOM      1  C   UNL     1       1.932  -6.736  -2.602  0.00  0.00    +0.214 C 
ATOM      2  O   UNL     1       2.490  -6.007  -3.394  0.00  0.00    -0.276 OA
ATOM      3  N   UNL     1       1.839  -8.057  -2.852  0.00  0.00    -0.313 N 
ATOM      4  H   UNL     1       1.392  -8.640  -2.219  0.00  0.00    +0.149 HD
ENDROOT
BRANCH   1   9
ATOM      5  N   UNL     1       1.016  -4.097  -0.065  0.00  0.00    +0.382 N 
ATOM      6  C   UNL     1       1.697  -4.666   1.104  0.00  0.00    -0.078 C 
ATOM      7  C   UNL     1       1.457  -6.177   1.154  0.00  0.00    -0.018 C 
ATOM      8  C   UNL     1       2.007  -6.818  -0.123  0.00  0.00    +0.009 C 
ATOM      9  C   UNL     1       1.342  -6.165  -1.339  0.00  0.00    +0.058 C 
ATOM     10  C   UNL     1       1.587  -4.655  -1.296  0.00  0.00    -0.066 C 
ATOM     11  H   UNL     1       0.033  -4.321  -0.020  0.00  0.00    -0.081 HD
BRANCH   5  16
ATOM     12  C   UNL     1      -0.018   1.465   0.010  0.00  0.00    +0.104 C 
ATOM     13  N   UNL     1       0.002  -0.004   0.002  0.00  0.00    -0.305 NA
ATOM     14  C   UNL     1       0.594  -0.515  -1.241  0.00  0.00    +0.082 C 
ATOM     15  C   UNL     1       0.466  -2.040  -1.279  0.00  0.00    +0.000 C 
ATOM     16  C   UNL     1       1.184  -2.638  -0.066  0.00  0.00    -0.066 C 
ATOM     17  C   UNL     1       0.582  -2.052   1.214  0.00  0.00    +0.000 C 
ATOM     18  C   UNL     1       0.706  -0.527   1.180  0.00  0.00    +0.082 C 
ENDBRANCH   5  16
ENDBRANCH   1   9
BRANCH   3  19
ATOM     19  C   UNL     1       2.412  -8.612  -4.081  0.00  0.00    +0.137 C 
BRANCH  19  20
ATOM     20  C   UNL     1       2.170 -10.123  -4.119  0.00  0.00    +0.173 C 
ATOM     21  C   UNL     1       2.577 -10.697  -5.450  0.00  0.00    -0.019 C 
ATOM     22  C   UNL     1       1.466 -11.195  -5.973  0.00  0.00    +0.065 C 
ATOM     23  C   UNL     1       1.399 -11.868  -7.337  0.00  0.00    +0.057 C 
ATOM     24  C   UNL     1       1.744 -10.800  -8.384  0.00  0.00    +0.006 C 
ATOM     25  C   UNL     1       3.234 -10.590  -8.484  0.00  0.00    +0.001 C 
ATOM     26  C   UNL     1       3.892  -9.854  -7.342  0.00  0.00    +0.004 C 
ATOM     27  C   UNL     1       3.950 -10.741  -6.086  0.00  0.00    +0.035 C 
ATOM     28  N   UNL     1       0.429 -11.009  -5.124  0.00  0.00    -0.158 NA
ATOM     29  N   UNL     1       0.725 -10.425  -4.069  0.00  0.00    -0.178 NA
ENDBRANCH  19  20
ENDBRANCH   3  19
TORSDOF 4
