REMARK  Name = ZINC13577069
REMARK  9 active torsions:
REMARK  status: ('A' for Active; 'I' for Inactive)
REMARK    1  A    between atoms: C_1  and  C_2
REMARK    2  A    between atoms: C_2  and  C_4
REMARK    3  A    between atoms: C_6  and  C_21
REMARK    4  A    between atoms: C_12  and  O_13
REMARK    5  A    between atoms: C_12  and  O_15
REMARK    6  A    between atoms: O_13  and  C_14
REMARK    7  A    between atoms: O_15  and  C_16
REMARK    8  A    between atoms: N_23  and  C_24
REMARK    9  A    between atoms: C_27  and  N_30
REMARK                            x       y       z     vdW  Elec       q    Type
REMARK                         _______ _______ _______ _____ _____    ______ ____
ROOT
ATOM      1  C   UNL     1       1.459   2.581  -1.294  0.00  0.00    +0.100 C 
ATOM      2  C   UNL     1       1.363   1.716  -0.014  0.00  0.00    +0.119 C 
ATOM      3  C   UNL     1       2.649   0.830  -0.069  0.00  0.00    +0.149 C 
ATOM      4  C   UNL     1       2.425  -0.078  -1.284  0.00  0.00    +0.061 C 
ATOM      5  C   UNL     1       2.506   0.660  -2.376  0.00  0.00    +0.061 C 
ATOM      6  C   UNL     1       2.791   2.109  -1.961  0.00  0.00    +0.147 C 
ATOM      7  C   UNL     1       3.672   1.853  -0.684  0.00  0.00    +0.220 C 
ATOM      8 CL   UNL     1       3.494   3.181  -3.228  0.00  0.00    -0.106 Cl
ATOM      9 CL   UNL     1       2.325   0.088  -4.005  0.00  0.00    -0.085 Cl
ATOM     10 CL   UNL     1       2.117  -1.786  -1.233  0.00  0.00    -0.085 Cl
ATOM     11 CL   UNL     1       3.120   0.010   1.466  0.00  0.00    -0.106 Cl
ENDROOT
BRANCH   2  12
ATOM     12  C   UNL     1       0.126   0.856  -0.047  0.00  0.00    +0.223 C 
ATOM     13  O   UNL     1       0.228  -0.351  -0.108  0.00  0.00    -0.275 OA
ATOM     14  N   UNL     1      -1.093   1.429  -0.013  0.00  0.00    -0.285 N 
ATOM     15  H   UNL     1      -1.176   2.387   0.111  0.00  0.00    +0.155 HD
BRANCH  14  16
ATOM     16  C   UNL     1      -2.240   0.640  -0.159  0.00  0.00    +0.034 A 
ATOM     17  C   UNL     1      -3.443   1.052   0.401  0.00  0.00    +0.025 A 
ATOM     18  C   UNL     1      -4.575   0.275   0.251  0.00  0.00    +0.034 A 
ATOM     19  C   UNL     1      -4.509  -0.918  -0.447  0.00  0.00    +0.126 A 
ATOM     20  C   UNL     1      -3.312  -1.333  -1.000  0.00  0.00    +0.034 A 
ATOM     21  C   UNL     1      -2.178  -0.558  -0.858  0.00  0.00    +0.025 A 
BRANCH  19  22
ATOM     22  N   UNL     1      -5.722  -1.751  -0.600  0.00  0.00    +0.056 N 
ATOM     23  O   UNL     1      -5.665  -2.802  -1.214  0.00  0.00    -0.126 OA
ATOM     24  O   UNL     1      -6.777  -1.387  -0.114  0.00  0.00    -0.126 OA
ENDBRANCH  19  22
ENDBRANCH  14  16
ENDBRANCH   2  12
BRANCH   1  26
ATOM     25  C   UNL     1      -0.961   3.150  -2.089  0.00  0.00    +0.086 C 
ATOM     26  C   UNL     1       0.288   2.313  -2.203  0.00  0.00    +0.136 C 
ATOM     27  O   UNL     1       0.349   1.429  -3.023  0.00  0.00    -0.297 OA
ENDBRANCH   1  26
BRANCH   7  28
ATOM     28  O   UNL     1       3.825   3.025   0.120  0.00  0.00    -0.348 OA
ATOM     29  C   UNL     1       4.417   2.781   1.397  0.00  0.00    +0.197 C 
ENDBRANCH   7  28
BRANCH   7  30
ATOM     30  O   UNL     1       4.928   1.249  -0.999  0.00  0.00    -0.348 OA
ATOM     31  C   UNL     1       5.921   2.173  -1.449  0.00  0.00    +0.197 C 
ENDBRANCH   7  30
TORSDOF 6
