REMARK  Name = ZINC44811255
REMARK  4 active torsions:
REMARK  status: ('A' for Active; 'I' for Inactive)
REMARK    1  A    between atoms: C_4  and  C_7
REMARK    2  A    between atoms: C_7  and  C_8
REMARK    3  A    between atoms: C_8  and  C_10
REMARK    4  A    between atoms: C_8  and  C_12
REMARK                            x       y       z     vdW  Elec       q    Type
REMARK                         _______ _______ _______ _____ _____    ______ ____
ROOT
ATOM      1  C   UNL     1       5.422  -1.804   1.383  0.00  0.00    +0.237 C 
ATOM      2  O   UNL     1       5.846  -2.241   0.334  0.00  0.00    -0.274 OA
ATOM      3  N   UNL     1       6.067  -2.073   2.535  0.00  0.00    -0.270 N 
ATOM      4  C   UNL     1       5.594  -1.699   3.871  0.00  0.00    +0.118 C 
ATOM      5  C   UNL     1       6.666  -2.222   4.840  0.00  0.00    +0.056 C 
ATOM      6  C   UNL     1       7.699  -2.874   3.949  0.00  0.00    -0.024 A 
ATOM      7  C   UNL     1       7.284  -2.755   2.632  0.00  0.00    +0.040 A 
ATOM      8  C   UNL     1       8.081  -3.292   1.619  0.00  0.00    +0.024 A 
ATOM      9  C   UNL     1       9.261  -3.934   1.929  0.00  0.00    +0.002 A 
ATOM     10  C   UNL     1       9.664  -4.051   3.246  0.00  0.00    +0.000 A 
ATOM     11  C   UNL     1       8.885  -3.515   4.255  0.00  0.00    +0.005 A 
ENDROOT
BRANCH   1  12
ATOM     12  C   UNL     1       4.172  -0.962   1.399  0.00  0.00    +0.182 C 
BRANCH  12  13
ATOM     13  C   UNL     1       4.527   0.447   1.162  0.00  0.00    +0.076 C 
ATOM     14  N   UNL     1       4.801   1.534   0.980  0.00  0.00    -0.196 NA
ENDBRANCH  12  13
BRANCH  12  15
ATOM     15  C   UNL     1       3.221  -1.440   0.299  0.00  0.00    +0.063 C 
BRANCH  15  19
ATOM     16  C   UNL     1      -0.460   0.712   0.563  0.00  0.00    +0.000 A 
ATOM     17  C   UNL     1       0.572   1.199  -0.218  0.00  0.00    +0.000 A 
ATOM     18  C   UNL     1       1.763   0.503  -0.303  0.00  0.00    +0.004 A 
ATOM     19  C   UNL     1       1.923  -0.680   0.393  0.00  0.00    -0.046 A 
ATOM     20  C   UNL     1       0.892  -1.167   1.175  0.00  0.00    +0.004 A 
ATOM     21  C   UNL     1      -0.299  -0.472   1.258  0.00  0.00    +0.000 A 
ENDBRANCH  15  19
ENDBRANCH  12  15
ENDBRANCH   1  12
TORSDOF 4
