REMARK  Name = ZINC08337368
REMARK  6 active torsions:
REMARK  status: ('A' for Active; 'I' for Inactive)
REMARK    1  A    between atoms: C_1  and  C_2
REMARK    2  A    between atoms: C_2  and  C_4
REMARK    3  A    between atoms: C_2  and  N_55
REMARK    4  A    between atoms: N_6  and  C_7
REMARK    5  A    between atoms: C_8  and  C_17
REMARK    6  A    between atoms: N_21  and  C_24
REMARK                            x       y       z     vdW  Elec       q    Type
REMARK                         _______ _______ _______ _____ _____    ______ ____
ROOT
ATOM      1  C   UNL     1       2.137   8.931  -1.581  0.00  0.00    -0.004 C 
ATOM      2  C   UNL     1       0.746   9.225  -1.016  0.00  0.00    +0.017 C 
ENDROOT
BRANCH   2   8
ATOM      3  C   UNL     1      -1.248   8.180  -0.124  0.00  0.00    -0.059 C 
ATOM      4  C   UNL     1      -1.793   6.896   0.506  0.00  0.00    +0.088 C 
ATOM      5  N   UNL     1      -1.635   5.783  -0.441  0.00  0.00    -0.320 N 
ATOM      6  C   UNL     1      -0.221   5.591  -0.793  0.00  0.00    +0.088 C 
ATOM      7  C   UNL     1       0.323   6.875  -1.423  0.00  0.00    -0.059 C 
ATOM      8  N   UNL     1       0.179   7.981  -0.453  0.00  0.00    +0.389 N 
ATOM      9  H   UNL     1       0.689   7.741   0.405  0.00  0.00    -0.081 HD
BRANCH   5  10
ATOM     10  C   UNL     1      -2.184   4.613   0.070  0.00  0.00    +0.099 A 
ATOM     11  C   UNL     1      -2.135   3.443  -0.681  0.00  0.00    +0.042 A 
ATOM     12  C   UNL     1      -2.681   2.285  -0.159  0.00  0.00    +0.005 A 
ATOM     13  C   UNL     1      -3.270   2.338   1.098  0.00  0.00    +0.018 A 
ATOM     14  C   UNL     1      -3.284   3.533   1.788  0.00  0.00    +0.084 A 
ATOM     15  N   UNL     1      -2.752   4.689   1.308  0.00  0.00    -0.350 N 
ATOM     16  H   UNL     1      -2.777   5.564   1.844  0.00  0.00    +0.166 HD
ENDBRANCH   5  10
ENDBRANCH   2   8
BRANCH   2  17
ATOM     17  C   UNL     1      -0.139   9.759  -2.112  0.00  0.00    +0.204 C 
ATOM     18  O   UNL     1      -0.816   8.997  -2.771  0.00  0.00    -0.277 OA
ATOM     19  N   UNL     1      -0.179  11.083  -2.362  0.00  0.00    -0.280 N 
ATOM     20  H   UNL     1       0.362  11.692  -1.836  0.00  0.00    +0.155 HD
BRANCH  19  21
ATOM     21  C   UNL     1      -0.995  11.574  -3.372  0.00  0.00    +0.090 A 
ATOM     22  C   UNL     1      -1.169  12.888  -3.774  0.00  0.00    +0.084 A 
ATOM     23  C   UNL     1      -2.091  13.144  -4.872  0.00  0.00    -0.018 A 
ATOM     24  C   UNL     1      -2.691  12.045  -5.380  0.00  0.00    -0.004 A 
ATOM     25  S   UNL     1      -2.035  10.694  -4.440  0.00  0.00    -0.077 S 
ATOM     26  C   UNL     1      -3.690  11.979  -6.492  0.00  0.00    +0.043 C 
ATOM     27  C   UNL     1      -3.174  12.794  -7.685  0.00  0.00    +0.005 C 
ATOM     28  C   UNL     1      -3.656  14.233  -7.533  0.00  0.00    +0.001 C 
ATOM     29  C   UNL     1      -3.729  14.610  -6.054  0.00  0.00    +0.005 C 
ATOM     30  C   UNL     1      -2.345  14.544  -5.418  0.00  0.00    +0.037 C 
BRANCH  22  31
ATOM     31  C   UNL     1      -0.468  13.958  -3.132  0.00  0.00    +0.102 C 
ATOM     32  N   UNL     1       0.089  14.808  -2.623  0.00  0.00    -0.191 NA
ENDBRANCH  22  31
ENDBRANCH  19  21
ENDBRANCH   2  17
TORSDOF 5
