REMARK  Name = ZINC67577194
REMARK  9 active torsions:
REMARK  status: ('A' for Active; 'I' for Inactive)
REMARK    1  A    between atoms: C_1  and  C_2
REMARK    2  A    between atoms: C_2  and  C_3
REMARK    3  A    between atoms: C_3  and  N_4
REMARK    4  A    between atoms: C_11  and  N_13
REMARK    5  A    between atoms: N_16  and  C_17
REMARK    6  A    between atoms: N_16  and  C_18
REMARK    7  A    between atoms: C_18  and  C_20
REMARK    8  A    between atoms: C_18  and  C_21
REMARK    9  A    between atoms: C_25  and  O_27
REMARK                            x       y       z     vdW  Elec       q    Type
REMARK                         _______ _______ _______ _____ _____    ______ ____
ROOT
ATOM      1  N   UNL     1       3.750  -6.063  -1.460  0.00  0.00    -0.269 N 
ATOM      2  C   UNL     1       4.853  -5.671  -2.128  0.00  0.00    +0.307 C 
ATOM      3  O   UNL     1       5.044  -4.490  -2.348  0.00  0.00    -0.252 OA
ATOM      4  N   UNL     1       5.745  -6.588  -2.553  0.00  0.00    -0.282 N 
ATOM      5  C   UNL     1       5.515  -8.011  -2.288  0.00  0.00    +0.134 C 
ATOM      6  H   UNL     1       3.635  -6.995  -1.219  0.00  0.00    +0.156 HD
ENDROOT
BRANCH   1  14
ATOM      7  N   UNL     1      -0.063  -2.216  -0.318  0.00  0.00    -0.347 N 
ATOM      8  C   UNL     1       0.080  -1.405  -1.410  0.00  0.00    +0.087 A 
ATOM      9  C   UNL     1       1.031  -1.894  -2.221  0.00  0.00    +0.027 A 
ATOM     10  C   UNL     1       1.539  -3.119  -1.597  0.00  0.00    +0.002 A 
ATOM     11  C   UNL     1       0.820  -3.272  -0.398  0.00  0.00    +0.049 A 
ATOM     12  C   UNL     1       1.087  -4.358   0.428  0.00  0.00    +0.028 A 
ATOM     13  C   UNL     1       2.053  -5.273   0.072  0.00  0.00    +0.025 A 
ATOM     14  C   UNL     1       2.770  -5.122  -1.113  0.00  0.00    +0.035 A 
ATOM     15  C   UNL     1       2.514  -4.054  -1.951  0.00  0.00    +0.033 A 
BRANCH   7  16
ATOM     16  C   UNL     1      -1.009  -1.992   0.778  0.00  0.00    +0.121 C 
BRANCH  16  18
ATOM     17  C   UNL     1      -1.296  -1.009   3.058  0.00  0.00    +0.005 C 
ATOM     18  C   UNL     1      -0.307  -1.243   1.913  0.00  0.00    +0.018 C 
ENDBRANCH  16  18
ENDBRANCH   7  16
ENDBRANCH   1  14
BRANCH   4  19
ATOM     19  C   UNL     1       6.944  -6.162  -3.280  0.00  0.00    +0.104 C 
ATOM     20  C   UNL     1       6.996  -6.868  -4.636  0.00  0.00    +0.033 C 
BRANCH  19  21
ATOM     21  C   UNL     1       8.170  -6.521  -2.480  0.00  0.00    -0.024 A 
ATOM     22  C   UNL     1       9.340  -6.870  -3.128  0.00  0.00    +0.006 A 
ATOM     23  C   UNL     1      10.466  -7.200  -2.398  0.00  0.00    +0.004 A 
ATOM     24  C   UNL     1      10.425  -7.182  -1.017  0.00  0.00    +0.045 A 
ATOM     25  C   UNL     1       9.252  -6.832  -0.364  0.00  0.00    +0.117 A 
ATOM     26  C   UNL     1       8.125  -6.496  -1.099  0.00  0.00    +0.050 A 
BRANCH  25  27
ATOM     27  O   UNL     1       9.209  -6.814   0.995  0.00  0.00    -0.507 OA
ATOM     28  H   UNL     1       9.447  -5.962   1.384  0.00  0.00    +0.292 HD
ENDBRANCH  25  27
ENDBRANCH  19  21
ENDBRANCH   4  19
TORSDOF 6
