REMARK  Name = ZINC66392924
REMARK  9 active torsions:
REMARK  status: ('A' for Active; 'I' for Inactive)
REMARK    1  A    between atoms: C_1  and  C_2
REMARK    2  A    between atoms: C_2  and  C_4
REMARK    3  A    between atoms: C_2  and  N_14
REMARK    4  A    between atoms: N_6  and  C_7
REMARK    5  A    between atoms: N_14  and  C_15
REMARK    6  A    between atoms: C_15  and  C_16
REMARK    7  A    between atoms: C_16  and  C_22
REMARK    8  A    between atoms: C_25  and  O_28
REMARK    9  A    between atoms: O_28  and  C_29
REMARK                            x       y       z     vdW  Elec       q    Type
REMARK                         _______ _______ _______ _____ _____    ______ ____
ROOT
ATOM      1  N   UNL     1       0.878  -0.808  -1.214  0.00  0.00    +0.387 N 
ATOM      2  H   UNL     1       1.753  -0.308  -1.253  0.00  0.00    -0.085 HD
ATOM      3  H   UNL     1       1.052  -1.798  -1.311  0.00  0.00    -0.085 HD
ENDROOT
BRANCH   1   5
ATOM      4  C   UNL     1       0.072   0.959   0.276  0.00  0.00    -0.004 C 
ATOM      5  C   UNL     1       0.223  -0.550   0.074  0.00  0.00    +0.013 C 
BRANCH   5   6
ATOM      6  C   UNL     1       1.060  -1.124   1.188  0.00  0.00    +0.203 C 
ATOM      7  O   UNL     1       2.100  -1.693   0.933  0.00  0.00    -0.277 OA
ATOM      8  N   UNL     1       0.652  -1.006   2.467  0.00  0.00    -0.285 N 
ATOM      9  H   UNL     1      -0.144  -0.493   2.677  0.00  0.00    +0.155 HD
BRANCH   8  10
ATOM     10  C   UNL     1       1.378  -1.623   3.494  0.00  0.00    +0.069 A 
ATOM     11  C   UNL     1       2.759  -1.737   3.398  0.00  0.00    +0.026 A 
ATOM     12  C   UNL     1       3.472  -2.346   4.412  0.00  0.00    +0.002 A 
ATOM     13  C   UNL     1       2.814  -2.844   5.522  0.00  0.00    +0.003 A 
ATOM     14  C   UNL     1       1.439  -2.734   5.621  0.00  0.00    +0.040 A 
ATOM     15  C   UNL     1       0.719  -2.119   4.613  0.00  0.00    +0.144 A 
ATOM     16  F   UNL     1      -0.624  -2.007   4.712  0.00  0.00    -0.204 F 
ENDBRANCH   8  10
ENDBRANCH   5   6
ENDBRANCH   1   5
BRANCH   1  17
ATOM     17  C   UNL     1       0.007  -0.356  -2.307  0.00  0.00    -0.070 C 
BRANCH  17  18
ATOM     18  C   UNL     1       0.658  -0.688  -3.651  0.00  0.00    -0.015 C 
ATOM     19  C   UNL     1       2.074  -0.104  -3.692  0.00  0.00    +0.038 C 
ATOM     20  C   UNL     1       1.991   1.422  -3.594  0.00  0.00    +0.160 C 
ATOM     21  O   UNL     1       1.183   1.923  -4.661  0.00  0.00    -0.380 OA
ATOM     22  C   UNL     1      -0.164   1.448  -4.646  0.00  0.00    +0.160 C 
ATOM     23  C   UNL     1      -0.168  -0.076  -4.786  0.00  0.00    +0.038 C 
BRANCH  18  24
ATOM     24  C   UNL     1       0.723  -2.184  -3.823  0.00  0.00    -0.043 A 
ATOM     25  C   UNL     1       0.084  -3.011  -2.918  0.00  0.00    +0.008 A 
ATOM     26  C   UNL     1       0.143  -4.383  -3.074  0.00  0.00    +0.046 A 
ATOM     27  C   UNL     1       0.842  -4.929  -4.140  0.00  0.00    +0.120 A 
ATOM     28  C   UNL     1       1.482  -4.097  -5.047  0.00  0.00    +0.046 A 
ATOM     29  C   UNL     1       1.416  -2.726  -4.889  0.00  0.00    +0.008 A 
BRANCH  27  30
ATOM     30  O   UNL     1       0.901  -6.278  -4.295  0.00  0.00    -0.495 OA
ATOM     31  C   UNL     1       1.640  -6.771  -5.415  0.00  0.00    +0.277 C 
ENDBRANCH  27  30
ENDBRANCH  18  24
ENDBRANCH  17  18
ENDBRANCH   1  17
TORSDOF 7
