REMARK  Name = ZINC13134606
REMARK  10 active torsions:
REMARK  status: ('A' for Active; 'I' for Inactive)
REMARK    1  A    between atoms: C_1  and  C_2
REMARK    2  A    between atoms: C_2  and  C_3
REMARK    3  A    between atoms: C_4  and  C_38
REMARK    4  A    between atoms: C_9  and  S_21
REMARK    5  A    between atoms: N_10  and  C_13
REMARK    6  A    between atoms: C_13  and  C_14
REMARK    7  A    between atoms: C_17  and  C_20
REMARK    8  A    between atoms: S_21  and  C_22
REMARK    9  A    between atoms: C_22  and  C_23
REMARK   10  A    between atoms: N_25  and  C_26
REMARK                            x       y       z     vdW  Elec       q    Type
REMARK                         _______ _______ _______ _____ _____    ______ ____
ROOT
ATOM      1  C   UNL     1      -0.857  -2.257   0.049  0.00  0.00    -0.005 A 
ATOM      2  C   UNL     1      -1.109  -0.940   0.050  0.00  0.00    -0.026 A 
ATOM      3  C   UNL     1       0.003  -0.005   0.033  0.00  0.00    +0.075 A 
ATOM      4  C   UNL     1       1.278  -0.600   0.018  0.00  0.00    +0.117 A 
ATOM      5  S   UNL     1       0.923  -2.339   0.026  0.00  0.00    -0.073 S 
ATOM      6  N   UNL     1       2.392   0.122   0.001  0.00  0.00    -0.216 NA
ATOM      7  C   UNL     1       2.345   1.439  -0.001  0.00  0.00    +0.173 A 
ATOM      8  N   UNL     1       1.149   2.097   0.015  0.00  0.00    -0.283 N 
ATOM      9  C   UNL     1      -0.017   1.425   0.031  0.00  0.00    +0.264 A 
ATOM     10  O   UNL     1      -1.077   2.028   0.039  0.00  0.00    -0.267 OA
ATOM     11  C   UNL     1      -2.529  -0.436   0.068  0.00  0.00    +0.045 C 
ENDROOT
BRANCH   1  13
ATOM     12  C   UNL     1      -2.197  -3.785  -1.373  0.00  0.00    +0.009 C 
ATOM     13  C   UNL     1      -1.844  -3.397   0.064  0.00  0.00    +0.039 C 
ENDBRANCH   1  13
BRANCH   8  14
ATOM     14  C   UNL     1       1.135   3.562   0.013  0.00  0.00    +0.162 C 
BRANCH  14  15
ATOM     15  C   UNL     1       1.148   4.066   1.433  0.00  0.00    -0.028 A 
ATOM     16  C   UNL     1      -0.043   4.292   2.098  0.00  0.00    +0.005 A 
ATOM     17  C   UNL     1      -0.030   4.751   3.401  0.00  0.00    +0.004 A 
ATOM     18  C   UNL     1       1.173   4.992   4.037  0.00  0.00    -0.050 A 
ATOM     19  C   UNL     1       2.364   4.772   3.371  0.00  0.00    +0.004 A 
ATOM     20  C   UNL     1       2.352   4.309   2.068  0.00  0.00    +0.005 A 
ATOM     21  C   UNL     1       1.187   5.497   5.458  0.00  0.00    +0.044 C 
ENDBRANCH  14  15
ENDBRANCH   8  14
BRANCH   7  22
ATOM     22  S   UNL     1       3.845   2.363  -0.023  0.00  0.00    -0.078 S 
BRANCH  22  23
ATOM     23  C   UNL     1       5.047   1.010  -0.036  0.00  0.00    +0.173 C 
BRANCH  23  24
ATOM     24  C   UNL     1       6.443   1.578  -0.056  0.00  0.00    +0.227 C 
ATOM     25  O   UNL     1       6.608   2.779  -0.061  0.00  0.00    -0.275 OA
ATOM     26  N   UNL     1       7.507   0.751  -0.068  0.00  0.00    -0.285 N 
ATOM     27  H   UNL     1       7.377  -0.208   0.003  0.00  0.00    +0.155 HD
BRANCH  26  28
ATOM     28  C   UNL     1       8.800   1.276  -0.184  0.00  0.00    +0.035 A 
ATOM     29  C   UNL     1       9.772   0.576  -0.890  0.00  0.00    +0.025 A 
ATOM     30  C   UNL     1      11.047   1.090  -1.012  0.00  0.00    +0.029 A 
ATOM     31  C   UNL     1      11.364   2.303  -0.420  0.00  0.00    +0.067 A 
ATOM     32  C   UNL     1      10.392   3.006   0.294  0.00  0.00    +0.069 A 
ATOM     33  C   UNL     1       9.111   2.490   0.410  0.00  0.00    +0.051 A 
ATOM     34  N   UNL     1      10.998   4.169   0.764  0.00  0.00    -0.306 N 
ATOM     35  H   UNL     1      10.569   4.857   1.295  0.00  0.00    +0.170 HD
ATOM     36  C   UNL     1      12.281   4.173   0.355  0.00  0.00    +0.325 A 
ATOM     37  O   UNL     1      13.090   5.050   0.596  0.00  0.00    -0.247 OA
ATOM     38  N   UNL     1      12.533   3.062  -0.362  0.00  0.00    -0.306 N 
ATOM     39  H   UNL     1      13.382   2.828  -0.768  0.00  0.00    +0.170 HD
ENDBRANCH  26  28
ENDBRANCH  23  24
ENDBRANCH  22  23
ENDBRANCH   7  22
TORSDOF 7
