REMARK  Name = ZINC21079657
REMARK  8 active torsions:
REMARK  status: ('A' for Active; 'I' for Inactive)
REMARK    1  A    between atoms: C_4  and  C_7
REMARK    2  A    between atoms: C_7  and  C_8
REMARK    3  A    between atoms: C_8  and  C_9
REMARK    4  A    between atoms: C_9  and  S_10
REMARK    5  A    between atoms: S_10  and  C_11
REMARK    6  A    between atoms: N_17  and  N_18
REMARK    7  A    between atoms: C_19  and  C_20
REMARK    8  A    between atoms: C_25  and  O_26
REMARK                            x       y       z     vdW  Elec       q    Type
REMARK                         _______ _______ _______ _____ _____    ______ ____
ROOT
ATOM      1  C   UNL     1       7.581  -2.869   2.896  0.00  0.00    +0.190 A 
ATOM      2  N   UNL     1       8.379  -3.321   3.909  0.00  0.00    -0.303 N 
ATOM      3  H   UNL     1       8.202  -3.227   4.858  0.00  0.00    +0.171 HD
ATOM      4  C   UNL     1       9.468  -3.928   3.350  0.00  0.00    +0.235 A 
ATOM      5  N   UNL     1       9.349  -3.855   2.047  0.00  0.00    -0.111 NA
ATOM      6  N   UNL     1       8.150  -3.189   1.758  0.00  0.00    -0.121 NA
ATOM      7  N   UNL     1      10.517  -4.519   4.041  0.00  0.00    -0.205 N 
ATOM      8  H   UNL     1      10.517  -4.523   5.011  0.00  0.00    +0.177 HD
ENDROOT
BRANCH   7   9
ATOM      9  N   UNL     1      11.575  -5.108   3.338  0.00  0.00    -0.187 NA
ATOM     10  C   UNL     1      12.556  -5.661   3.985  0.00  0.00    +0.142 C 
BRANCH  10  11
ATOM     11  C   UNL     1      13.670  -6.281   3.245  0.00  0.00    +0.039 A 
ATOM     12  C   UNL     1      14.725  -6.882   3.937  0.00  0.00    +0.033 A 
ATOM     13  C   UNL     1      15.764  -7.461   3.239  0.00  0.00    +0.043 A 
ATOM     14  C   UNL     1      15.767  -7.449   1.853  0.00  0.00    +0.043 A 
ATOM     15  C   UNL     1      14.728  -6.858   1.157  0.00  0.00    +0.084 A 
ATOM     16  C   UNL     1      13.674  -6.277   1.844  0.00  0.00    +0.144 A 
ATOM     17 CL   UNL     1      14.742  -6.848  -0.579  0.00  0.00    -0.080 Cl
ATOM     18 CL   UNL     1      17.074  -8.207   4.099  0.00  0.00    -0.083 Cl
BRANCH  16  19
ATOM     19  O   UNL     1      12.650  -5.700   1.161  0.00  0.00    -0.505 OA
ATOM     20  H   UNL     1      12.786  -4.762   0.967  0.00  0.00    +0.292 HD
ENDBRANCH  16  19
ENDBRANCH  10  11
ENDBRANCH   7   9
BRANCH   1  21
ATOM     21  S   UNL     1       6.052  -2.014   3.084  0.00  0.00    -0.086 S 
BRANCH  21  22
ATOM     22  C   UNL     1       5.507  -1.710   1.381  0.00  0.00    +0.078 C 
BRANCH  22  23
ATOM     23  C   UNL     1       4.171  -0.963   1.399  0.00  0.00    +0.016 C 
BRANCH  23  24
ATOM     24  C   UNL     1       3.711  -0.707  -0.038  0.00  0.00    +0.036 C 
BRANCH  24  28
ATOM     25  C   UNL     1      -0.017   1.378   0.010  0.00  0.00    +0.000 A 
ATOM     26  C   UNL     1       1.171   2.086   0.002  0.00  0.00    +0.000 A 
ATOM     27  C   UNL     1       2.377   1.411  -0.013  0.00  0.00    +0.003 A 
ATOM     28  C   UNL     1       2.396   0.029  -0.020  0.00  0.00    -0.047 A 
ATOM     29  C   UNL     1       1.208  -0.679  -0.012  0.00  0.00    +0.003 A 
ATOM     30  C   UNL     1       0.002  -0.004   0.002  0.00  0.00    +0.000 A 
ENDBRANCH  24  28
ENDBRANCH  23  24
ENDBRANCH  22  23
ENDBRANCH  21  22
ENDBRANCH   1  21
TORSDOF 8
