REMARK  Name = ZINC32417400
REMARK  7 active torsions:
REMARK  status: ('A' for Active; 'I' for Inactive)
REMARK    1  A    between atoms: C_1  and  O_2
REMARK    2  A    between atoms: O_2  and  C_3
REMARK    3  A    between atoms: C_6  and  S_13
REMARK    4  A    between atoms: S_13  and  N_16
REMARK    5  A    between atoms: N_16  and  C_17
REMARK    6  A    between atoms: N_16  and  C_23
REMARK    7  A    between atoms: C_17  and  C_18
REMARK                            x       y       z     vdW  Elec       q    Type
REMARK                         _______ _______ _______ _____ _____    ______ ____
ROOT
ATOM      1  S   UNL     1       2.068  -2.178   4.801  0.00  0.00    +0.062 S 
ATOM      2  O   UNL     1       2.498  -2.791   3.593  0.00  0.00    -0.153 OA
ATOM      3  O   UNL     1       2.933  -1.389   5.605  0.00  0.00    -0.153 OA
ENDROOT
BRANCH   1   7
ATOM      4  C   UNL     1      -1.470   0.498   3.749  0.00  0.00    +0.128 A 
ATOM      5  C   UNL     1      -0.527   0.890   4.657  0.00  0.00    +0.048 A 
ATOM      6  C   UNL     1       0.550   0.066   4.971  0.00  0.00    +0.033 A 
ATOM      7  C   UNL     1       0.695  -1.155   4.385  0.00  0.00    +0.113 A 
ATOM      8  C   UNL     1      -0.254  -1.595   3.446  0.00  0.00    +0.012 A 
ATOM      9  C   UNL     1      -1.354  -0.762   3.127  0.00  0.00    +0.026 A 
ATOM     10  C   UNL     1      -2.305  -1.204   2.192  0.00  0.00    +0.012 A 
ATOM     11  C   UNL     1      -2.160  -2.426   1.611  0.00  0.00    +0.001 A 
ATOM     12  C   UNL     1      -1.081  -3.249   1.929  0.00  0.00    +0.001 A 
ATOM     13  C   UNL     1      -0.135  -2.849   2.822  0.00  0.00    +0.010 A 
BRANCH   4  15
ATOM     14  C   UNL     1      -2.564   2.574   4.124  0.00  0.00    +0.277 C 
ATOM     15  O   UNL     1      -2.515   1.313   3.453  0.00  0.00    -0.495 OA
ENDBRANCH   4  15
ENDBRANCH   1   7
BRANCH   1  16
ATOM     16  N   UNL     1       1.497  -3.393   5.770  0.00  0.00    -0.169 NA
BRANCH  16  17
ATOM     17  C   UNL     1       1.178  -3.121   7.174  0.00  0.00    +0.080 C 
ATOM     18  C   UNL     1       0.719  -4.300   8.035  0.00  0.00    +0.022 C 
ATOM     19  C   UNL     1      -0.288  -3.232   7.599  0.00  0.00    +0.022 C 
ENDBRANCH  16  17
BRANCH  16  20
ATOM     20  C   UNL     1       1.312  -4.740   5.224  0.00  0.00    +0.152 C 
BRANCH  20  21
ATOM     21  C   UNL     1       2.538  -5.569   5.506  0.00  0.00    +0.005 A 
ATOM     22  C   UNL     1       2.865  -6.254   6.629  0.00  0.00    +0.012 A 
ATOM     23  C   UNL     1       4.056  -6.955   6.664  0.00  0.00    +0.008 A 
ATOM     24  C   UNL     1       4.861  -6.937   5.574  0.00  0.00    +0.045 A 
ATOM     25  S   UNL     1       3.932  -5.912   4.445  0.00  0.00    -0.100 S 
ENDBRANCH  20  21
ENDBRANCH  16  20
ENDBRANCH   1  16
TORSDOF 6
