REMARK  Name = ZINC05164941
REMARK  12 active torsions:
REMARK  status: ('A' for Active; 'I' for Inactive)
REMARK    1  A    between atoms: C_1  and  C_2
REMARK    2  A    between atoms: C_2  and  N_60
REMARK    3  A    between atoms: C_3  and  C_4
REMARK    4  A    between atoms: C_3  and  N_60
REMARK    5  A    between atoms: C_5  and  C_6
REMARK    6  A    between atoms: C_5  and  N_60
REMARK    7  A    between atoms: C_6  and  C_7
REMARK    8  A    between atoms: C_7  and  N_8
REMARK    9  A    between atoms: C_12  and  N_25
REMARK   10  A    between atoms: C_13  and  N_15
REMARK   11  A    between atoms: C_17  and  C_24
REMARK   12  A    between atoms: C_20  and  C_23
REMARK                            x       y       z     vdW  Elec       q    Type
REMARK                         _______ _______ _______ _____ _____    ______ ____
ROOT
ATOM      1  N   UNL     1      -0.733   2.309   6.091  0.00  0.00    -0.313 N 
ATOM      2  C   UNL     1      -1.207   1.436   5.128  0.00  0.00    +0.219 A 
ATOM      3  N   UNL     1      -2.500   1.151   5.096  0.00  0.00    -0.197 NA
ATOM      4  C   UNL     1      -2.992   0.316   4.183  0.00  0.00    +0.154 A 
ATOM      5  C   UNL     1      -2.127  -0.260   3.256  0.00  0.00    +0.205 A 
ATOM      6  C   UNL     1      -0.775   0.063   3.322  0.00  0.00    +0.159 A 
ATOM      7  N   UNL     1      -0.355   0.903   4.265  0.00  0.00    -0.197 NA
ATOM      8  N   UNL     1      -4.346   0.022   4.157  0.00  0.00    -0.341 N 
ATOM      9  H   UNL     1       0.211   2.526   6.127  0.00  0.00    +0.149 HD
ATOM     10  H   UNL     1      -4.697  -0.588   3.489  0.00  0.00    +0.144 HD
ATOM     11  H   UNL     1      -4.943   0.427   4.806  0.00  0.00    +0.144 HD
ENDROOT
BRANCH   6  12
ATOM     12  N   UNL     1       0.122  -0.486   2.420  0.00  0.00    -0.313 N 
ATOM     13  C   UNL     1       0.801   0.563   1.648  0.00  0.00    +0.109 C 
ATOM     14  C   UNL     1       1.673  -0.081   0.567  0.00  0.00    +0.004 C 
ATOM     15  C   UNL     1       2.703  -1.001   1.229  0.00  0.00    +0.009 C 
ATOM     16  C   UNL     1       1.971  -2.054   2.066  0.00  0.00    +0.004 C 
ATOM     17  C   UNL     1       1.091  -1.353   3.103  0.00  0.00    +0.109 C 
ATOM     18  C   UNL     1       2.993  -2.941   2.779  0.00  0.00    +0.009 C 
ATOM     19  C   UNL     1       2.396   1.012  -0.224  0.00  0.00    +0.009 C 
ENDBRANCH   6  12
BRANCH   5  20
ATOM     20  N   UNL     1      -2.634  -1.194   2.225  0.00  0.00    +0.063 N 
ATOM     21  O   UNL     1      -2.673  -2.389   2.453  0.00  0.00    -0.126 OA
ATOM     22  O   UNL     1      -3.012  -0.766   1.149  0.00  0.00    -0.126 OA
ENDBRANCH   5  20
BRANCH   1  23
ATOM     23  C   UNL     1      -1.659   2.905   7.058  0.00  0.00    +0.102 C 
BRANCH  23  24
ATOM     24  C   UNL     1      -0.884   3.824   8.005  0.00  0.00    +0.000 C 
BRANCH  24  25
ATOM     25  C   UNL     1      -1.851   4.447   9.015  0.00  0.00    -0.077 C 
BRANCH  25  26
ATOM     26  N   UNL     1      -1.070   5.218  10.005  0.00  0.00    +0.379 N 
ATOM     27  H   UNL     1      -0.240   4.675  10.271  0.00  0.00    -0.082 HD
BRANCH  26  29
ATOM     28  C   UNL     1       0.351   7.175  10.372  0.00  0.00    -0.017 C 
ATOM     29  C   UNL     1      -0.635   6.502   9.415  0.00  0.00    -0.082 C 
ENDBRANCH  26  29
BRANCH  26  30
ATOM     30  C   UNL     1      -1.888   5.467  11.210  0.00  0.00    -0.082 C 
ATOM     31  C   UNL     1      -1.931   4.187  12.046  0.00  0.00    -0.017 C 
ENDBRANCH  26  30
ENDBRANCH  25  26
ENDBRANCH  24  25
ENDBRANCH  23  24
ENDBRANCH   1  23
TORSDOF 8
