REMARK  Name = ZINC04308667
REMARK  9 active torsions:
REMARK  status: ('A' for Active; 'I' for Inactive)
REMARK    1  A    between atoms: C_1  and  C_2
REMARK    2  A    between atoms: C_4  and  C_31
REMARK    3  A    between atoms: C_5  and  N_9
REMARK    4  A    between atoms: C_6  and  C_8
REMARK    5  A    between atoms: C_10  and  C_12
REMARK    6  A    between atoms: C_12  and  N_13
REMARK    7  A    between atoms: C_14  and  C_16
REMARK    8  A    between atoms: C_16  and  N_17
REMARK    9  A    between atoms: C_25  and  C_27
REMARK                            x       y       z     vdW  Elec       q    Type
REMARK                         _______ _______ _______ _____ _____    ______ ____
ROOT
ATOM      1  N   UNL     1       3.589  -0.707  -2.333  0.00  0.00    -0.305 N 
ATOM      2  C   UNL     1       2.304  -0.377  -2.099  0.00  0.00    +0.231 C 
ATOM      3  O   UNL     1       1.779   0.508  -2.742  0.00  0.00    -0.274 OA
ATOM      4  H   UNL     1       4.009  -1.415  -1.820  0.00  0.00    +0.149 HD
ENDROOT
BRANCH   1   5
ATOM      5  C   UNL     1       4.352   0.002  -3.364  0.00  0.00    +0.200 C 
BRANCH   5   7
ATOM      6  N   UNL     1       6.639  -0.052  -4.306  0.00  0.00    -0.284 N 
ATOM      7  C   UNL     1       5.752  -0.555  -3.425  0.00  0.00    +0.234 C 
ATOM      8  O   UNL     1       6.079  -1.455  -2.681  0.00  0.00    -0.274 OA
ATOM      9  H   UNL     1       6.362   0.631  -4.936  0.00  0.00    +0.155 HD
BRANCH   6  14
ATOM     10  C   UNL     1      11.992  -1.931  -4.328  0.00  0.00    +0.044 C 
ATOM     11  C   UNL     1      10.570  -1.432  -4.322  0.00  0.00    -0.050 A 
ATOM     12  C   UNL     1       9.839  -1.417  -5.496  0.00  0.00    +0.008 A 
ATOM     13  C   UNL     1       8.536  -0.960  -5.494  0.00  0.00    -0.029 A 
ATOM     14  C   UNL     1       7.959  -0.516  -4.311  0.00  0.00    +0.039 A 
ATOM     15  C   UNL     1       8.697  -0.527  -3.135  0.00  0.00    -0.029 A 
ATOM     16  C   UNL     1       9.999  -0.990  -3.143  0.00  0.00    +0.008 A 
ATOM     17  C   UNL     1       8.077  -0.041  -1.851  0.00  0.00    +0.045 C 
ATOM     18  C   UNL     1       7.740  -0.944  -6.774  0.00  0.00    +0.045 C 
ENDBRANCH   6  14
ENDBRANCH   5   7
ENDBRANCH   1   5
BRANCH   2  19
ATOM     19  C   UNL     1       1.519  -1.106  -1.040  0.00  0.00    +0.213 C 
BRANCH  19  20
ATOM     20  N   UNL     1       0.159  -0.565  -0.981  0.00  0.00    -0.215 N 
ATOM     21  C   UNL     1      -0.214   0.463  -0.190  0.00  0.00    +0.247 C 
ATOM     22  O   UNL     1       0.484   1.090   0.577  0.00  0.00    -0.273 OA
ATOM     23  C   UNL     1      -1.687   0.667  -0.463  0.00  0.00    +0.115 C 
ATOM     24  C   UNL     1      -1.934   2.063  -1.026  0.00  0.00    +0.035 C 
ATOM     25  C   UNL     1      -3.426   2.240  -1.321  0.00  0.00    +0.003 C 
ATOM     26  C   UNL     1      -4.226   2.043  -0.032  0.00  0.00    +0.000 C 
ATOM     27  C   UNL     1      -3.987   0.631   0.507  0.00  0.00    +0.006 C 
ATOM     28  C   UNL     1      -2.498   0.447   0.809  0.00  0.00    +0.018 C 
ATOM     29  C   UNL     1      -2.256  -0.971   1.329  0.00  0.00    +0.010 C 
ATOM     30  N   UNL     1      -2.009  -0.353  -1.468  0.00  0.00    -0.285 N 
ATOM     31  C   UNL     1      -0.868  -1.029  -1.704  0.00  0.00    +0.310 C 
ATOM     32  O   UNL     1      -0.778  -1.952  -2.489  0.00  0.00    -0.252 OA
ATOM     33  H   UNL     1      -2.873  -0.511  -1.880  0.00  0.00    +0.151 HD
ENDBRANCH  19  20
ENDBRANCH   2  19
TORSDOF 5
