REMARK  Name = ZINC11838598
REMARK  9 active torsions:
REMARK  status: ('A' for Active; 'I' for Inactive)
REMARK    1  A    between atoms: C_1  and  C_2
REMARK    2  A    between atoms: C_2  and  C_3
REMARK    3  A    between atoms: C_3  and  C_4
REMARK    4  A    between atoms: C_4  and  C_5
REMARK    5  A    between atoms: C_16  and  C_17
REMARK    6  A    between atoms: C_16  and  N_60
REMARK    7  A    between atoms: N_19  and  C_20
REMARK    8  A    between atoms: C_20  and  C_21
REMARK    9  A    between atoms: C_25  and  C_30
REMARK                            x       y       z     vdW  Elec       q    Type
REMARK                         _______ _______ _______ _____ _____    ______ ____
ROOT
ATOM      1  C   UNL     1      -0.013   1.086   0.008  0.00  0.00    +0.019 C 
ENDROOT
BRANCH   1  12
ATOM      2  C   UNL     1      -2.784   1.265  -2.543  0.00  0.00    +0.157 C 
ATOM      3  C   UNL     1      -2.100   1.087  -1.205  0.00  0.00    -0.033 C 
ATOM      4  C   UNL     1      -0.640   3.034  -1.283  0.00  0.00    -0.038 C 
ATOM      5  C   UNL     1      -0.695   3.426  -2.747  0.00  0.00    -0.022 A 
ATOM      6  C   UNL     1       0.415   3.966  -3.363  0.00  0.00    +0.005 A 
ATOM      7  C   UNL     1       0.348   4.336  -4.694  0.00  0.00    +0.000 A 
ATOM      8  C   UNL     1      -0.828   4.168  -5.402  0.00  0.00    +0.004 A 
ATOM      9  C   UNL     1      -1.938   3.622  -4.787  0.00  0.00    +0.046 A 
ATOM     10  C   UNL     1      -1.867   3.241  -3.454  0.00  0.00    +0.122 A 
ATOM     11  O   UNL     1      -2.939   2.656  -2.853  0.00  0.00    -0.490 OA
ATOM     12  N   UNL     1      -0.698   1.555  -1.208  0.00  0.00    +0.391 N 
ATOM     13  H   UNL     1      -0.221   1.164  -2.029  0.00  0.00    -0.081 HD
BRANCH   2  14
ATOM     14  C   UNL     1      -4.163   0.603  -2.495  0.00  0.00    +0.042 C 
BRANCH  14  15
ATOM     15  C   UNL     1      -4.796   0.643  -3.887  0.00  0.00    +0.003 C 
BRANCH  15  17
ATOM     16  C   UNL     1      -6.808   0.021  -5.232  0.00  0.00    +0.004 C 
ATOM     17  C   UNL     1      -6.175  -0.019  -3.839  0.00  0.00    -0.003 C 
ENDBRANCH  15  17
ENDBRANCH  14  15
ENDBRANCH   2  14
ENDBRANCH   1  12
BRANCH   1  18
ATOM     18  C   UNL     1      -0.718   1.572   1.248  0.00  0.00    +0.197 C 
ATOM     19  O   UNL     1      -1.714   2.256   1.150  0.00  0.00    -0.278 OA
ATOM     20  N   UNL     1      -0.242   1.246   2.466  0.00  0.00    -0.311 N 
ATOM     21  H   UNL     1       0.555   0.699   2.544  0.00  0.00    +0.149 HD
BRANCH  20  22
ATOM     22  C   UNL     1      -0.927   1.718   3.671  0.00  0.00    +0.161 C 
BRANCH  22  23
ATOM     23  C   UNL     1      -0.198   1.219   4.892  0.00  0.00    +0.077 A 
ATOM     24  C   UNL     1       0.738   1.903   5.585  0.00  0.00    +0.117 A 
ATOM     25  N   UNL     1       1.145   1.099   6.615  0.00  0.00    -0.306 N 
ATOM     26  C   UNL     1       2.057   1.272   7.616  0.00  0.00    +0.096 A 
ATOM     27  C   UNL     1       2.274   0.297   8.524  0.00  0.00    -0.034 A 
ATOM     28  C   UNL     1       1.561  -0.911   8.450  0.00  0.00    +0.008 A 
ATOM     29  C   UNL     1       0.649  -1.096   7.458  0.00  0.00    +0.047 A 
ATOM     30  C   UNL     1       0.434  -0.069   6.518  0.00  0.00    +0.138 A 
ATOM     31  N   UNL     1      -0.374   0.030   5.472  0.00  0.00    -0.231 NA
ATOM     32  C   UNL     1       3.285   0.506   9.622  0.00  0.00    +0.045 C 
ENDBRANCH  22  23
ENDBRANCH  20  22
ENDBRANCH   1  18
TORSDOF 7
