REMARK  Name = ZINC04322580
REMARK  5 active torsions:
REMARK  status: ('A' for Active; 'I' for Inactive)
REMARK    1  A    between atoms: C_4  and  N_7
REMARK    2  A    between atoms: N_7  and  N_8
REMARK    3  A    between atoms: C_9  and  N_21
REMARK    4  A    between atoms: N_21  and  S_22
REMARK    5  A    between atoms: S_22  and  C_25
REMARK                            x       y       z     vdW  Elec       q    Type
REMARK                         _______ _______ _______ _____ _____    ______ ____
ROOT
ATOM      1  N   UNL     1       3.849  -2.068  -0.130  0.00  0.00    -0.204 N 
ATOM      2  C   UNL     1       4.190  -2.937   1.008  0.00  0.00    +0.270 C 
ATOM      3  N   UNL     1       3.741  -4.279   0.590  0.00  0.00    -0.206 NA
ATOM      4  N   UNL     1       3.209  -4.134  -0.659  0.00  0.00    -0.264 N 
ATOM      5  C   UNL     1       3.271  -2.854  -1.063  0.00  0.00    +0.130 C 
ATOM      6  C   UNL     1       2.794  -2.389  -2.311  0.00  0.00    +0.060 C 
ATOM      7  C   UNL     1       1.800  -3.100  -3.001  0.00  0.00    +0.015 C 
ATOM      8  C   UNL     1       1.347  -2.645  -4.204  0.00  0.00    +0.001 C 
ATOM      9  C   UNL     1       1.858  -1.478  -4.761  0.00  0.00    +0.004 C 
ATOM     10  C   UNL     1       2.825  -0.761  -4.119  0.00  0.00    +0.051 C 
ATOM     11  C   UNL     1       3.311  -1.196  -2.878  0.00  0.00    +0.189 C 
ATOM     12  O   UNL     1       4.175  -0.555  -2.292  0.00  0.00    -0.287 OA
ATOM     13  H   UNL     1       4.511  -4.932   0.582  0.00  0.00    +0.148 HD
ATOM     14  H   UNL     1       2.833  -4.857  -1.184  0.00  0.00    +0.168 HD
ENDROOT
BRANCH   1  15
ATOM     15  N   UNL     1       4.076  -0.689  -0.225  0.00  0.00    -0.260 N 
ATOM     16  H   UNL     1       4.965  -0.356  -0.424  0.00  0.00    +0.170 HD
BRANCH  15  20
ATOM     17  C   UNL     1       0.933   1.982   0.347  0.00  0.00    +0.000 A 
ATOM     18  C   UNL     1       2.200   2.458   0.063  0.00  0.00    +0.002 A 
ATOM     19  C   UNL     1       3.244   1.575  -0.127  0.00  0.00    +0.024 A 
ATOM     20  C   UNL     1       3.021   0.207  -0.033  0.00  0.00    +0.045 A 
ATOM     21  C   UNL     1       1.747  -0.268   0.252  0.00  0.00    +0.024 A 
ATOM     22  C   UNL     1       0.707   0.620   0.441  0.00  0.00    +0.002 A 
ENDBRANCH  15  20
ENDBRANCH   1  15
BRANCH   2  23
ATOM     23  N   UNL     1       5.636  -2.928   1.244  0.00  0.00    -0.153 NA
ATOM     24  H   UNL     1       6.247  -2.790   0.503  0.00  0.00    +0.152 HD
BRANCH  23  25
ATOM     25  S   UNL     1       6.226  -3.152   2.775  0.00  0.00    +0.061 S 
ATOM     26  O   UNL     1       7.643  -3.118   2.673  0.00  0.00    -0.153 OA
ATOM     27  O   UNL     1       5.502  -2.271   3.623  0.00  0.00    -0.153 OA
BRANCH  25  28
ATOM     28  C   UNL     1       5.796  -4.789   3.264  0.00  0.00    +0.105 A 
ATOM     29  C   UNL     1       4.595  -5.025   3.908  0.00  0.00    +0.028 A 
ATOM     30  C   UNL     1       4.258  -6.310   4.291  0.00  0.00    +0.002 A 
ATOM     31  C   UNL     1       5.120  -7.358   4.032  0.00  0.00    +0.000 A 
ATOM     32  C   UNL     1       6.321  -7.122   3.387  0.00  0.00    +0.002 A 
ATOM     33  C   UNL     1       6.656  -5.838   2.999  0.00  0.00    +0.028 A 
ENDBRANCH  25  28
ENDBRANCH  23  25
ENDBRANCH   2  23
TORSDOF 5
