REMARK  Name = ZINC10510935
REMARK  10 active torsions:
REMARK  status: ('A' for Active; 'I' for Inactive)
REMARK    1  A    between atoms: C_4  and  C_7
REMARK    2  A    between atoms: C_7  and  C_8
REMARK    3  A    between atoms: C_8  and  O_9
REMARK    4  A    between atoms: O_9  and  C_10
REMARK    5  A    between atoms: C_15  and  C_16
REMARK    6  A    between atoms: N_18  and  C_19
REMARK    7  A    between atoms: C_19  and  N_21
REMARK    8  A    between atoms: N_21  and  N_22
REMARK    9  A    between atoms: C_23  and  C_25
REMARK   10  A    between atoms: C_25  and  C_26
REMARK                            x       y       z     vdW  Elec       q    Type
REMARK                         _______ _______ _______ _____ _____    ______ ____
ROOT
ATOM      1  C   UNL     1       4.664   3.941  -0.021  0.00  0.00    +0.253 C 
ATOM      2  O   UNL     1       5.724   3.348  -0.035  0.00  0.00    -0.270 OA
ATOM      3  N   UNL     1       3.506   3.252  -0.014  0.00  0.00    -0.263 N 
ATOM      4  H   UNL     1       2.659   3.725  -0.003  0.00  0.00    +0.157 HD
ENDROOT
BRANCH   1  10
ATOM      5  C   UNL     1       5.846   6.137  -0.021  0.00  0.00    +0.133 A 
ATOM      6  C   UNL     1       5.815   7.524  -0.013  0.00  0.00    +0.046 A 
ATOM      7  C   UNL     1       4.605   8.189   0.002  0.00  0.00    +0.004 A 
ATOM      8  C   UNL     1       3.415   7.480   0.009  0.00  0.00    +0.001 A 
ATOM      9  C   UNL     1       3.426   6.102  -0.004  0.00  0.00    +0.017 A 
ATOM     10  C   UNL     1       4.644   5.416  -0.013  0.00  0.00    +0.079 A 
BRANCH   5  11
ATOM     11  O   UNL     1       7.033   5.482  -0.035  0.00  0.00    -0.491 OA
BRANCH  11  12
ATOM     12  C   UNL     1       8.216   6.284  -0.042  0.00  0.00    +0.233 C 
BRANCH  12  13
ATOM     13  C   UNL     1       9.448   5.376  -0.058  0.00  0.00    +0.076 C 
BRANCH  13  17
ATOM     14  C   UNL     1      12.984   7.772  -0.079  0.00  0.00    +0.000 A 
ATOM     15  C   UNL     1      12.423   7.378   1.121  0.00  0.00    +0.000 A 
ATOM     16  C   UNL     1      11.278   6.603   1.128  0.00  0.00    +0.004 A 
ATOM     17  C   UNL     1      10.695   6.222  -0.066  0.00  0.00    -0.044 A 
ATOM     18  C   UNL     1      11.259   6.611  -1.266  0.00  0.00    +0.004 A 
ATOM     19  C   UNL     1      12.400   7.391  -1.273  0.00  0.00    +0.000 A 
ENDBRANCH  13  17
ENDBRANCH  12  13
ENDBRANCH  11  12
ENDBRANCH   5  11
ENDBRANCH   1  10
BRANCH   3  20
ATOM     20  C   UNL     1       3.524   1.904  -0.021  0.00  0.00    +0.153 C 
ATOM     21  S   UNL     1       5.018   1.068  -0.040  0.00  0.00    -0.017 S 
BRANCH  20  22
ATOM     22  N   UNL     1       2.366   1.214  -0.014  0.00  0.00    -0.246 N 
ATOM     23  H   UNL     1       2.379   0.244  -0.019  0.00  0.00    +0.172 HD
BRANCH  22  24
ATOM     24  N   UNL     1       1.143   1.898   0.001  0.00  0.00    -0.235 N 
ATOM     25  C   UNL     1      -0.014   1.209   0.009  0.00  0.00    +0.233 C 
ATOM     26  O   UNL     1       0.002  -0.004   0.002  0.00  0.00    -0.274 OA
ATOM     27  H   UNL     1       1.130   2.868   0.007  0.00  0.00    +0.173 HD
BRANCH  25  28
ATOM     28  C   UNL     1      -1.330   1.944   0.019  0.00  0.00    +0.132 C 
BRANCH  28  29
ATOM     29  C   UNL     1      -2.462   0.950   0.019  0.00  0.00    -0.038 A 
ATOM     30  C   UNL     1      -2.990   0.504  -1.178  0.00  0.00    +0.005 A 
ATOM     31  C   UNL     1      -4.024  -0.412  -1.179  0.00  0.00    +0.020 A 
ATOM     32  C   UNL     1      -4.539  -0.876   0.019  0.00  0.00    +0.041 A 
ATOM     33  C   UNL     1      -4.013  -0.425   1.217  0.00  0.00    +0.020 A 
ATOM     34  C   UNL     1      -2.975   0.487   1.216  0.00  0.00    +0.005 A 
ATOM     35 CL   UNL     1      -5.842  -2.022   0.019  0.00  0.00    -0.084 Cl
ENDBRANCH  28  29
ENDBRANCH  25  28
ENDBRANCH  22  24
ENDBRANCH  20  22
ENDBRANCH   3  20
TORSDOF 10
