REMARK  Name = ZINC11666707
REMARK  3 active torsions:
REMARK  status: ('A' for Active; 'I' for Inactive)
REMARK    1  A    between atoms: C_4  and  C_7
REMARK    2  A    between atoms: C_10  and  C_12
REMARK    3  A    between atoms: C_20  and  C_22
REMARK                            x       y       z     vdW  Elec       q    Type
REMARK                         _______ _______ _______ _____ _____    ______ ____
ROOT
ATOM      1  C   UNL     1       7.044   7.531  -0.021  0.00  0.00    +0.067 C 
ATOM      2  C   UNL     1       6.082   6.548  -0.061  0.00  0.00    +0.085 A 
ATOM      3  C   UNL     1       4.695   6.653  -0.353  0.00  0.00    +0.288 A 
ATOM      4  O   UNL     1       4.201   7.735  -0.618  0.00  0.00    -0.265 OA
ATOM      5  N   UNL     1       3.940   5.548  -0.333  0.00  0.00    -0.169 N 
ATOM      6  C   UNL     1       4.539   4.356  -0.031  0.00  0.00    +0.200 A 
ATOM      7  S   UNL     1       6.240   4.793   0.240  0.00  0.00    -0.044 S 
ATOM      8  N   UNL     1       3.655   3.401  -0.059  0.00  0.00    -0.200 NA
ATOM      9  C   UNL     1       2.457   3.915  -0.376  0.00  0.00    +0.183 A 
ATOM     10  N   UNL     1       2.578   5.207  -0.557  0.00  0.00    -0.141 NA
ENDROOT
BRANCH   9  11
ATOM     11  C   UNL     1       1.197   3.143  -0.508  0.00  0.00    +0.021 A 
ATOM     12  C   UNL     1       1.195   1.766  -0.296  0.00  0.00    +0.011 A 
ATOM     13  C   UNL     1       0.020   1.053  -0.419  0.00  0.00    +0.001 A 
ATOM     14  C   UNL     1      -1.154   1.702  -0.757  0.00  0.00    +0.000 A 
ATOM     15  C   UNL     1      -1.159   3.070  -0.963  0.00  0.00    +0.001 A 
ATOM     16  C   UNL     1       0.010   3.793  -0.843  0.00  0.00    +0.011 A 
ENDBRANCH   9  11
BRANCH   1  20
ATOM     17  C   UNL     1       5.432  10.703  -0.219  0.00  0.00    +0.136 A 
ATOM     18  C   UNL     1       6.745  11.112  -0.292  0.00  0.00    +0.050 A 
ATOM     19  C   UNL     1       7.535   9.962  -0.226  0.00  0.00    +0.050 A 
ATOM     20  C   UNL     1       6.670   8.887  -0.115  0.00  0.00    +0.130 A 
ATOM     21  O   UNL     1       5.406   9.361  -0.119  0.00  0.00    -0.455 OA
BRANCH  17  25
ATOM     22  C   UNL     1       2.035  13.247  -0.309  0.00  0.00    +0.000 A 
ATOM     23  C   UNL     1       1.867  11.878  -0.198  0.00  0.00    +0.001 A 
ATOM     24  C   UNL     1       2.966  11.045  -0.168  0.00  0.00    +0.011 A 
ATOM     25  C   UNL     1       4.251  11.587  -0.251  0.00  0.00    +0.017 A 
ATOM     26  C   UNL     1       4.413  12.971  -0.357  0.00  0.00    +0.011 A 
ATOM     27  C   UNL     1       3.305  13.791  -0.391  0.00  0.00    +0.001 A 
ENDBRANCH  17  25
ENDBRANCH   1  20
TORSDOF 3
