REMARK  Name = ZINC01270229
REMARK  4 active torsions:
REMARK  status: ('A' for Active; 'I' for Inactive)
REMARK    1  A    between atoms: C_1  and  C_2
REMARK    2  A    between atoms: C_5  and  N_8
REMARK    3  A    between atoms: C_12  and  C_17
REMARK    4  A    between atoms: C_17  and  N_47
REMARK                            x       y       z     vdW  Elec       q    Type
REMARK                         _______ _______ _______ _____ _____    ______ ____
ROOT
ATOM      1  N   UNL     1      -2.404   4.945   0.040  0.00  0.00    -0.213 NA
ATOM      2  C   UNL     1      -2.385   3.622   0.037  0.00  0.00    +0.233 A 
ATOM      3  N   UNL     1      -3.564   2.906   0.050  0.00  0.00    -0.314 N 
ATOM      4  H   UNL     1      -4.418   3.366   0.061  0.00  0.00    +0.170 HD
ATOM      5  C   UNL     1      -3.514   1.554   0.045  0.00  0.00    +0.097 A 
ATOM      6  N   UNL     1      -2.358   0.942   0.029  0.00  0.00    -0.204 NA
ATOM      7  C   UNL     1      -1.211   1.636   0.017  0.00  0.00    +0.217 A 
ATOM      8  N   UNL     1      -1.219   2.959   0.026  0.00  0.00    -0.179 NA
ATOM      9  N   UNL     1      -0.012   0.965  -0.000  0.00  0.00    -0.327 N 
ATOM     10  H   UNL     1       0.001  -0.005  -0.003  0.00  0.00    +0.145 HD
ATOM     11  H   UNL     1       0.821   1.462  -0.013  0.00  0.00    +0.145 HD
ENDROOT
BRANCH   1  16
ATOM     12  C   UNL     1      -7.315   7.698  -0.347  0.00  0.00    +0.044 C 
ATOM     13  C   UNL     1      -6.004   6.963  -0.244  0.00  0.00    -0.050 A 
ATOM     14  C   UNL     1      -5.453   6.710   1.000  0.00  0.00    +0.005 A 
ATOM     15  C   UNL     1      -4.253   6.038   1.103  0.00  0.00    +0.028 A 
ATOM     16  C   UNL     1      -3.593   5.612  -0.053  0.00  0.00    +0.068 A 
ATOM     17  C   UNL     1      -4.154   5.875  -1.306  0.00  0.00    +0.028 A 
ATOM     18  C   UNL     1      -5.357   6.544  -1.393  0.00  0.00    +0.005 A 
ENDBRANCH   1  16
BRANCH   5  19
ATOM     19  C   UNL     1      -4.791   0.753   0.060  0.00  0.00    -0.003 C 
BRANCH  19  26
ATOM     20  C   UNL     1      -4.155  -0.299   2.156  0.00  0.00    -0.078 C 
ATOM     21  C   UNL     1      -4.628  -0.824   3.484  0.00  0.00    -0.019 C 
ATOM     22  C   UNL     1      -5.179  -2.251   3.279  0.00  0.00    -0.002 C 
ATOM     23  C   UNL     1      -6.524  -2.245   2.712  0.00  0.00    -0.002 C 
ATOM     24  C   UNL     1      -6.567  -1.575   1.323  0.00  0.00    -0.019 C 
ATOM     25  C   UNL     1      -6.551  -0.083   1.512  0.00  0.00    -0.078 C 
ATOM     26  N   UNL     1      -5.186   0.544   1.462  0.00  0.00    +0.384 N 
ATOM     27  H   UNL     1      -5.231   1.455   1.933  0.00  0.00    -0.081 HD
ENDBRANCH  19  26
ENDBRANCH   5  19
TORSDOF 3
