REMARK  Name = ZINC40729524
REMARK  6 active torsions:
REMARK  status: ('A' for Active; 'I' for Inactive)
REMARK    1  A    between atoms: C_4  and  C_7
REMARK    2  A    between atoms: C_7  and  C_8
REMARK    3  A    between atoms: C_15  and  N_31
REMARK    4  A    between atoms: C_16  and  N_20
REMARK    5  A    between atoms: N_20  and  C_21
REMARK    6  A    between atoms: C_24  and  C_27
REMARK                            x       y       z     vdW  Elec       q    Type
REMARK                         _______ _______ _______ _____ _____    ______ ____
ROOT
ATOM      1  C   UNL     1       3.829  -1.014   1.514  0.00  0.00    -0.004 C 
ATOM      2  C   UNL     1       2.855  -1.845   2.353  0.00  0.00    +0.023 C 
ATOM      3  C   UNL     1       3.442  -2.053   3.753  0.00  0.00    +0.107 C 
ATOM      4  N   UNL     1       4.780  -2.643   3.621  0.00  0.00    -0.314 N 
ATOM      5  C   UNL     1       5.767  -1.973   2.764  0.00  0.00    +0.107 C 
ATOM      6  C   UNL     1       5.154  -1.766   1.375  0.00  0.00    +0.023 C 
ATOM      7  C   UNL     1       5.107  -3.814   4.295  0.00  0.00    +0.147 A 
ATOM      8  C   UNL     1       5.721  -3.763   5.549  0.00  0.00    +0.106 A 
ATOM      9  C   UNL     1       6.027  -4.968   6.182  0.00  0.00    +0.149 A 
ATOM     10  N   UNL     1       5.726  -6.112   5.571  0.00  0.00    -0.219 NA
ATOM     11  C   UNL     1       5.147  -6.116   4.388  0.00  0.00    +0.225 A 
ATOM     12  N   UNL     1       4.836  -5.001   3.759  0.00  0.00    -0.219 NA
ENDROOT
BRANCH   8  13
ATOM     13  N   UNL     1       6.021  -2.533   6.155  0.00  0.00    -0.353 N 
ATOM     14  H   UNL     1       5.721  -1.705   5.748  0.00  0.00    +0.143 HD
ATOM     15  H   UNL     1       6.528  -2.510   6.981  0.00  0.00    +0.143 HD
ENDBRANCH   8  13
BRANCH   9  16
ATOM     16  N   UNL     1       6.639  -4.974   7.431  0.00  0.00    -0.298 N 
ATOM     17  H   UNL     1       6.786  -4.139   7.903  0.00  0.00    +0.154 HD
BRANCH  16  18
ATOM     18  C   UNL     1       7.042  -6.182   8.006  0.00  0.00    +0.032 A 
ATOM     19  C   UNL     1       7.007  -6.342   9.385  0.00  0.00    +0.024 A 
ATOM     20  C   UNL     1       7.406  -7.538   9.950  0.00  0.00    +0.014 A 
ATOM     21  C   UNL     1       7.840  -8.575   9.145  0.00  0.00    +0.055 A 
ATOM     22  C   UNL     1       7.875  -8.418   7.771  0.00  0.00    +0.014 A 
ATOM     23  C   UNL     1       7.472  -7.228   7.199  0.00  0.00    +0.024 A 
BRANCH  21  24
ATOM     24  C   UNL     1       8.274  -9.877   9.765  0.00  0.00    +0.417 C 
ATOM     25  F   UNL     1       7.173 -10.733   9.874  0.00  0.00    -0.166 F 
ATOM     26  F   UNL     1       9.251 -10.474   8.960  0.00  0.00    -0.166 F 
ATOM     27  F   UNL     1       8.804  -9.634  11.037  0.00  0.00    -0.166 F 
ENDBRANCH  21  24
ENDBRANCH  16  18
ENDBRANCH   9  16
BRANCH   1  28
ATOM     28  C   UNL     1       3.230  -0.775   0.127  0.00  0.00    +0.038 C 
BRANCH  28  32
ATOM     29  C   UNL     1      -0.288   1.622   0.484  0.00  0.00    +0.000 A 
ATOM     30  C   UNL     1       0.945   2.224   0.312  0.00  0.00    +0.000 A 
ATOM     31  C   UNL     1       2.083   1.449   0.196  0.00  0.00    +0.003 A 
ATOM     32  C   UNL     1       1.989   0.071   0.253  0.00  0.00    -0.047 A 
ATOM     33  C   UNL     1       0.757  -0.532   0.426  0.00  0.00    +0.003 A 
ATOM     34  C   UNL     1      -0.381   0.244   0.540  0.00  0.00    +0.000 A 
ENDBRANCH  28  32
ENDBRANCH   1  28
TORSDOF 6
