REMARK  Name = ZINC16091349
REMARK  7 active torsions:
REMARK  status: ('A' for Active; 'I' for Inactive)
REMARK    1  A    between atoms: C_1  and  C_2
REMARK    2  A    between atoms: C_10  and  C_12
REMARK    3  A    between atoms: C_12  and  O_13
REMARK    4  A    between atoms: O_13  and  C_14
REMARK    5  A    between atoms: C_14  and  C_16
REMARK    6  A    between atoms: C_16  and  N_17
REMARK    7  A    between atoms: C_18  and  C_20
REMARK                            x       y       z     vdW  Elec       q    Type
REMARK                         _______ _______ _______ _____ _____    ______ ____
ROOT
ATOM      1  C   UNL     1       7.197   2.204  -0.053  0.00  0.00    +0.325 C 
ATOM      2  O   UNL     1       7.375   1.009  -0.061  0.00  0.00    -0.249 OA
ENDROOT
BRANCH   1   3
ATOM      3  O   UNL     1       5.949   2.697  -0.039  0.00  0.00    -0.454 OA
BRANCH   3   4
ATOM      4  C   UNL     1       4.861   1.736  -0.034  0.00  0.00    +0.328 C 
BRANCH   4  14
ATOM      5  C   UNL     1      -2.535   1.674   0.024  0.00  0.00    +0.047 C 
ATOM      6  C   UNL     1      -1.224   2.417   0.021  0.00  0.00    -0.009 A 
ATOM      7  C   UNL     1      -1.195   3.806   0.033  0.00  0.00    +0.063 A 
ATOM      8  C   UNL     1       0.024   4.457   0.024  0.00  0.00    +0.133 A 
ATOM      9  N   UNL     1       1.154   3.776   0.010  0.00  0.00    -0.237 NA
ATOM     10  C   UNL     1       1.168   2.453   0.004  0.00  0.00    +0.144 A 
ATOM     11  C   UNL     1      -0.021   1.732   0.012  0.00  0.00    +0.085 A 
ATOM     12 CL   UNL     1       0.002  -0.004   0.002  0.00  0.00    -0.080 Cl
ATOM     13  N   UNL     1       2.387   1.775  -0.011  0.00  0.00    -0.266 N 
ATOM     14  C   UNL     1       3.543   2.468  -0.018  0.00  0.00    +0.256 C 
ATOM     15  O   UNL     1       3.524   3.680  -0.012  0.00  0.00    -0.272 OA
ATOM     16 CL   UNL     1      -2.674   4.715   0.050  0.00  0.00    -0.082 Cl
ATOM     17  H   UNL     1       2.405   0.675  -0.016  0.00  0.00    +0.156 HD
ENDBRANCH   4  14
ENDBRANCH   3   4
ENDBRANCH   1   3
BRANCH   1  18
ATOM     18  C   UNL     1       8.377   3.141  -0.060  0.00  0.00    +0.224 C 
BRANCH  18  19
ATOM     19  N   UNL     1       9.619   2.363  -0.075  0.00  0.00    -0.304 N 
ATOM     20  C   UNL     1      10.809   2.994  -0.083  0.00  0.00    +0.220 C 
ATOM     21  O   UNL     1      10.853   4.206  -0.078  0.00  0.00    -0.275 OA
ATOM     22  H   UNL     1       9.579   1.264  -0.080  0.00  0.00    +0.149 HD
BRANCH  20  23
ATOM     23  C   UNL     1      12.086   2.194  -0.099  0.00  0.00    +0.048 C 
ATOM     24  C   UNL     1      12.147   1.305   1.145  0.00  0.00    +0.019 C 
ATOM     25  C   UNL     1      13.443   0.493   1.129  0.00  0.00    -0.009 C 
ATOM     26  C   UNL     1      14.642   1.444   1.123  0.00  0.00    +0.007 C 
ATOM     27  C   UNL     1      14.581   2.333  -0.122  0.00  0.00    -0.009 C 
ATOM     28  C   UNL     1      13.284   3.145  -0.106  0.00  0.00    +0.019 C 
ATOM     29  C   UNL     1      14.618   1.457  -1.376  0.00  0.00    +0.007 C 
ATOM     30  C   UNL     1      13.420   0.505  -1.369  0.00  0.00    -0.009 C 
ATOM     31  C   UNL     1      13.481  -0.383  -0.125  0.00  0.00    +0.007 C 
ATOM     32  C   UNL     1      12.124   1.318  -1.353  0.00  0.00    +0.019 C 
ENDBRANCH  20  23
ENDBRANCH  18  19
ENDBRANCH   1  18
TORSDOF 6
