REMARK  Name = ZINC52531755
REMARK  10 active torsions:
REMARK  status: ('A' for Active; 'I' for Inactive)
REMARK    1  A    between atoms: C_1  and  C_2
REMARK    2  A    between atoms: C_2  and  C_4
REMARK    3  A    between atoms: C_2  and  S_23
REMARK    4  A    between atoms: N_6  and  C_7
REMARK    5  A    between atoms: C_7  and  C_8
REMARK    6  A    between atoms: C_8  and  C_10
REMARK    7  A    between atoms: C_8  and  N_13
REMARK    8  A    between atoms: C_10  and  C_11
REMARK    9  A    between atoms: C_10  and  C_12
REMARK   10  A    between atoms: S_23  and  C_24
REMARK                            x       y       z     vdW  Elec       q    Type
REMARK                         _______ _______ _______ _____ _____    ______ ____
ROOT
ATOM      1  C   UNL     1       0.268  -0.286   5.213  0.00  0.00    -0.048 C 
ENDROOT
BRANCH   1   2
ATOM      2  N   UNL     1      -0.937  -0.754   4.514  0.00  0.00    +0.386 N 
ATOM      3  C   UNL     1      -1.447   0.315   3.642  0.00  0.00    -0.073 C 
ATOM      4  C   UNL     1      -2.499  -0.280   2.705  0.00  0.00    +0.017 C 
ATOM      5  C   UNL     1      -3.515  -1.053   3.505  0.00  0.00    -0.048 A 
ATOM      6  C   UNL     1      -4.724  -1.377   2.910  0.00  0.00    +0.004 A 
ATOM      7  C   UNL     1      -5.678  -2.087   3.611  0.00  0.00    +0.000 A 
ATOM      8  C   UNL     1      -5.426  -2.478   4.913  0.00  0.00    +0.000 A 
ATOM      9  C   UNL     1      -4.223  -2.155   5.507  0.00  0.00    +0.002 A 
ATOM     10  C   UNL     1      -3.264  -1.440   4.805  0.00  0.00    -0.061 A 
ATOM     11  C   UNL     1      -1.969  -1.102   5.495  0.00  0.00    -0.042 C 
ATOM     12  H   UNL     1      -0.712  -1.565   3.959  0.00  0.00    -0.081 HD
ENDBRANCH   1   2
BRANCH   1  13
ATOM     13  C   UNL     1       0.902  -1.452   5.973  0.00  0.00    -0.029 C 
ATOM     14  C   UNL     1       0.222  -1.602   7.336  0.00  0.00    +0.005 C 
ATOM     15  C   UNL     1       0.723  -2.742   5.170  0.00  0.00    +0.005 C 
ENDBRANCH   1  13
BRANCH   1  16
ATOM     16  C   UNL     1       1.268   0.262   4.193  0.00  0.00    +0.089 C 
BRANCH  16  19
ATOM     17  C   UNL     1       1.577   2.277   2.859  0.00  0.00    +0.226 C 
ATOM     18  O   UNL     1       2.561   1.766   2.368  0.00  0.00    -0.275 OA
ATOM     19  N   UNL     1       0.859   1.608   3.782  0.00  0.00    -0.316 N 
ATOM     20  H   UNL     1       0.072   2.016   4.175  0.00  0.00    +0.149 HD
BRANCH  17  22
ATOM     21  C   UNL     1       1.730   4.689   3.414  0.00  0.00    +0.029 C 
ATOM     22  C   UNL     1       1.157   3.662   2.436  0.00  0.00    +0.136 C 
BRANCH  22  23
ATOM     23  S   UNL     1       1.782   4.000   0.768  0.00  0.00    -0.085 S 
BRANCH  23  24
ATOM     24  C   UNL     1       1.092   5.571   0.365  0.00  0.00    +0.159 A 
ATOM     25  N   UNL     1       0.302   6.365   1.077  0.00  0.00    -0.135 NA
ATOM     26  N   UNL     1      -0.105   7.472   0.629  0.00  0.00    -0.149 NA
ATOM     27  C   UNL     1       0.225   7.909  -0.569  0.00  0.00    +0.182 A 
ATOM     28  S   UNL     1       1.262   6.557  -1.120  0.00  0.00    -0.048 S 
ENDBRANCH  23  24
ENDBRANCH  22  23
ENDBRANCH  17  22
ENDBRANCH  16  19
ENDBRANCH   1  16
TORSDOF 7
