REMARK  Name = ZINC36206407
REMARK  11 active torsions:
REMARK  status: ('A' for Active; 'I' for Inactive)
REMARK    1  A    between atoms: C_1  and  C_2
REMARK    2  A    between atoms: C_2  and  C_3
REMARK    3  A    between atoms: C_3  and  C_4
REMARK    4  A    between atoms: C_4  and  C_6
REMARK    5  A    between atoms: C_4  and  O_34
REMARK    6  A    between atoms: C_6  and  N_7
REMARK    7  A    between atoms: N_7  and  C_8
REMARK    8  A    between atoms: N_7  and  C_15
REMARK    9  A    between atoms: C_8  and  C_9
REMARK   10  A    between atoms: C_15  and  C_16
REMARK   11  A    between atoms: C_22  and  C_27
REMARK                            x       y       z     vdW  Elec       q    Type
REMARK                         _______ _______ _______ _____ _____    ______ ____
ROOT
ATOM      1  C   UNL     1       2.239  -5.976   1.098  0.00  0.00    +0.094 A 
ATOM      2  N   UNL     1       2.805  -6.610   0.039  0.00  0.00    -0.312 N 
ATOM      3  H   UNL     1       3.318  -6.096  -0.604  0.00  0.00    +0.170 HD
ATOM      4  C   UNL     1       2.669  -7.938  -0.135  0.00  0.00    +0.260 A 
ATOM      5  O   UNL     1       3.184  -8.493  -1.090  0.00  0.00    -0.267 OA
ATOM      6  C   UNL     1       1.911  -8.688   0.820  0.00  0.00    +0.080 A 
ATOM      7  C   UNL     1       1.624 -10.117   0.851  0.00  0.00    +0.004 A 
ATOM      8  C   UNL     1       0.874 -10.609   1.868  0.00  0.00    +0.056 A 
ATOM      9  S   UNL     1       0.510  -9.165   2.847  0.00  0.00    -0.076 S 
ATOM     10  C   UNL     1       1.364  -7.947   1.880  0.00  0.00    +0.116 A 
ATOM     11  N   UNL     1       1.546  -6.634   1.988  0.00  0.00    -0.229 NA
ENDROOT
BRANCH   7  12
ATOM     12  C   UNL     1       2.141 -11.015  -0.208  0.00  0.00    -0.015 A 
ATOM     13  C   UNL     1       1.962 -10.688  -1.552  0.00  0.00    +0.008 A 
ATOM     14  C   UNL     1       2.445 -11.528  -2.535  0.00  0.00    +0.002 A 
ATOM     15  C   UNL     1       3.107 -12.693  -2.190  0.00  0.00    +0.020 A 
ATOM     16  C   UNL     1       3.288 -13.023  -0.858  0.00  0.00    +0.042 A 
ATOM     17  C   UNL     1       2.814 -12.187   0.134  0.00  0.00    +0.028 A 
ATOM     18 CL   UNL     1       4.119 -14.487  -0.434  0.00  0.00    -0.084 Cl
ENDBRANCH   7  12
BRANCH   1  19
ATOM     19  C   UNL     1       2.418  -4.487   1.251  0.00  0.00    -0.003 C 
BRANCH  19  20
ATOM     20  N   UNL     1       1.845  -4.055   2.533  0.00  0.00    +0.389 N 
ATOM     21  H   UNL     1       0.891  -4.377   2.600  0.00  0.00    -0.081 HD
BRANCH  20  22
ATOM     22  C   UNL     1       1.872  -2.588   2.611  0.00  0.00    -0.046 C 
BRANCH  22  23
ATOM     23  C   UNL     1       0.940  -2.003   1.549  0.00  0.00    +0.098 C 
BRANCH  23  24
ATOM     24  O   UNL     1      -0.397  -2.445   1.792  0.00  0.00    -0.394 OA
ATOM     25  H   UNL     1      -0.747  -2.183   2.655  0.00  0.00    +0.210 HD
ENDBRANCH  23  24
BRANCH  23  26
ATOM     26  C   UNL     1       0.991  -0.475   1.611  0.00  0.00    +0.029 C 
BRANCH  26  28
ATOM     27  C   UNL     1       0.208   1.639   0.533  0.00  0.00    +0.004 C 
ATOM     28  C   UNL     1       0.157   0.111   0.470  0.00  0.00    -0.001 C 
ENDBRANCH  26  28
ENDBRANCH  23  26
ENDBRANCH  22  23
ENDBRANCH  20  22
BRANCH  20  29
ATOM     29  C   UNL     1       2.632  -4.619   3.637  0.00  0.00    -0.042 C 
BRANCH  29  30
ATOM     30  C   UNL     1       1.973  -4.278   4.949  0.00  0.00    -0.064 A 
ATOM     31  C   UNL     1       2.308  -3.109   5.607  0.00  0.00    +0.002 A 
ATOM     32  C   UNL     1       1.704  -2.796   6.810  0.00  0.00    +0.000 A 
ATOM     33  C   UNL     1       0.765  -3.652   7.355  0.00  0.00    +0.000 A 
ATOM     34  C   UNL     1       0.429  -4.820   6.697  0.00  0.00    +0.000 A 
ATOM     35  C   UNL     1       1.030  -5.131   5.492  0.00  0.00    +0.002 A 
ENDBRANCH  29  30
ENDBRANCH  20  29
ENDBRANCH  19  20
ENDBRANCH   1  19
TORSDOF 10
