REMARK  Name = ZINC26779424
REMARK  7 active torsions:
REMARK  status: ('A' for Active; 'I' for Inactive)
REMARK    1  A    between atoms: C_1  and  C_2
REMARK    2  A    between atoms: C_9  and  O_23
REMARK    3  A    between atoms: C_10  and  C_13
REMARK    4  A    between atoms: C_14  and  C_15
REMARK    5  A    between atoms: C_14  and  N_17
REMARK    6  A    between atoms: N_17  and  C_18
REMARK    7  A    between atoms: O_23  and  C_24
REMARK                            x       y       z     vdW  Elec       q    Type
REMARK                         _______ _______ _______ _____ _____    ______ ____
ROOT
ATOM      1  C   UNL     1      -9.761   1.558   0.674  0.00  0.00    +0.047 C 
ATOM      2  C   UNL     1      -8.548   0.670   0.576  0.00  0.00    -0.007 A 
ATOM      3  C   UNL     1      -8.678  -0.683   0.671  0.00  0.00    +0.008 A 
ATOM      4  C   UNL     1      -7.540  -1.496   0.579  0.00  0.00    +0.019 A 
ATOM      5  C   UNL     1      -6.322  -0.939   0.398  0.00  0.00    +0.096 A 
ATOM      6  N   UNL     1      -6.180   0.413   0.301  0.00  0.00    -0.267 N 
ATOM      7  C   UNL     1      -7.272   1.232   0.387  0.00  0.00    +0.147 A 
ATOM      8  N   UNL     1      -7.153   2.557   0.296  0.00  0.00    -0.194 NA
ATOM      9  C   UNL     1      -5.976   3.137   0.118  0.00  0.00    +0.235 A 
ATOM     10  C   UNL     1      -4.815   2.343   0.022  0.00  0.00    +0.104 A 
ATOM     11  C   UNL     1      -4.950   0.939   0.115  0.00  0.00    +0.269 A 
ATOM     12  O   UNL     1      -3.973   0.215   0.032  0.00  0.00    -0.266 OA
ENDROOT
BRANCH  10  13
ATOM     13  C   UNL     1      -3.502   2.958  -0.176  0.00  0.00    +0.053 C 
ATOM     14  C   UNL     1      -3.058   3.907   0.691  0.00  0.00    +0.111 C 
BRANCH  14  15
ATOM     15  C   UNL     1      -3.815   4.212   1.868  0.00  0.00    +0.115 C 
ATOM     16  N   UNL     1      -4.415   4.454   2.801  0.00  0.00    -0.190 NA
ENDBRANCH  14  15
BRANCH  14  17
ATOM     17  N   UNL     1      -1.861   4.588   0.432  0.00  0.00    -0.301 N 
ATOM     18  H   UNL     1      -1.280   4.353  -0.472  0.00  0.00    +0.153 HD
BRANCH  17  19
ATOM     19  C   UNL     1      -1.406   5.562   1.321  0.00  0.00    +0.070 A 
ATOM     20  C   UNL     1      -0.278   6.324   1.255  0.00  0.00    +0.031 A 
ATOM     21  C   UNL     1      -0.029   7.233   2.268  0.00  0.00    +0.009 A 
ATOM     22  C   UNL     1      -0.911   7.337   3.290  0.00  0.00    +0.047 A 
ATOM     23  S   UNL     1      -2.146   6.128   2.843  0.00  0.00    -0.082 S 
ENDBRANCH  17  19
ENDBRANCH  14  17
ENDBRANCH  10  13
BRANCH   9  24
ATOM     24  O   UNL     1      -5.888   4.484   0.028  0.00  0.00    -0.434 OA
BRANCH  24  25
ATOM     25  C   UNL     1      -7.035   5.207   0.129  0.00  0.00    +0.165 A 
ATOM     26  C   UNL     1      -7.427   5.721   1.356  0.00  0.00    +0.049 A 
ATOM     27  C   UNL     1      -8.591   6.459   1.455  0.00  0.00    +0.004 A 
ATOM     28  C   UNL     1      -9.371   6.677   0.335  0.00  0.00    +0.003 A 
ATOM     29  C   UNL     1      -8.987   6.162  -0.889  0.00  0.00    +0.042 A 
ATOM     30  C   UNL     1      -7.821   5.427  -0.996  0.00  0.00    +0.165 A 
ATOM     31  F   UNL     1      -7.445   4.923  -2.192  0.00  0.00    -0.202 F 
ENDBRANCH  24  25
ENDBRANCH   9  24
TORSDOF 6
