REMARK  Name = ZINC36540904
REMARK  10 active torsions:
REMARK  status: ('A' for Active; 'I' for Inactive)
REMARK    1  A    between atoms: C_1  and  C_2
REMARK    2  A    between atoms: C_2  and  C_3
REMARK    3  A    between atoms: C_2  and  C_4
REMARK    4  A    between atoms: C_2  and  N_5
REMARK    5  A    between atoms: C_6  and  C_8
REMARK    6  A    between atoms: C_8  and  C_10
REMARK    7  A    between atoms: C_8  and  N_20
REMARK    8  A    between atoms: C_12  and  N_17
REMARK    9  A    between atoms: N_20  and  C_21
REMARK   10  A    between atoms: C_28  and  C_30
REMARK                            x       y       z     vdW  Elec       q    Type
REMARK                         _______ _______ _______ _____ _____    ______ ____
ROOT
ATOM      1  C   UNL     1       2.467   0.231  -3.396  0.00  0.00    +0.199 C 
ENDROOT
BRANCH   1   2
ATOM      2  C   UNL     1       2.123  -0.801  -2.354  0.00  0.00    +0.003 A 
ATOM      3  C   UNL     1       2.819  -0.837  -1.160  0.00  0.00    +0.040 A 
ATOM      4  C   UNL     1       2.504  -1.784  -0.204  0.00  0.00    +0.127 A 
ATOM      5  C   UNL     1       1.492  -2.696  -0.441  0.00  0.00    +0.034 A 
ATOM      6  C   UNL     1       0.795  -2.661  -1.633  0.00  0.00    +0.022 A 
ATOM      7  C   UNL     1       1.106  -1.709  -2.588  0.00  0.00    +0.047 A 
ATOM      8 CL   UNL     1       0.226  -1.660  -4.084  0.00  0.00    -0.083 Cl
BRANCH   4   9
ATOM      9  N   UNL     1       3.250  -1.822   1.074  0.00  0.00    +0.056 N 
ATOM     10  O   UNL     1       4.135  -1.025   1.281  0.00  0.00    -0.126 OA
ATOM     11  O   UNL     1       2.974  -2.650   1.911  0.00  0.00    -0.126 OA
ENDBRANCH   4   9
ENDBRANCH   1   2
BRANCH   1  13
ATOM     12  N   UNL     1       0.538   1.673  -3.959  0.00  0.00    -0.309 N 
ATOM     13  C   UNL     1       1.621   1.460  -3.185  0.00  0.00    +0.239 C 
ATOM     14  O   UNL     1       1.914   2.257  -2.319  0.00  0.00    -0.273 OA
ATOM     15  H   UNL     1       0.304   1.036  -4.652  0.00  0.00    +0.149 HD
BRANCH  12  17
ATOM     16  C   UNL     1       0.571   4.119  -3.963  0.00  0.00    +0.031 C 
ATOM     17  C   UNL     1      -0.285   2.868  -3.754  0.00  0.00    +0.026 C 
ATOM     18  C   UNL     1      -0.843   2.864  -2.330  0.00  0.00    +0.031 C 
ATOM     19  C   UNL     1      -1.441   2.869  -4.756  0.00  0.00    +0.031 C 
ENDBRANCH  12  17
ENDBRANCH   1  13
BRANCH   1  20
ATOM     20  N   UNL     1       3.884   0.588  -3.281  0.00  0.00    -0.254 N 
ATOM     21  C   UNL     1       4.834  -0.314  -3.598  0.00  0.00    +0.224 C 
ATOM     22  O   UNL     1       4.519  -1.383  -4.079  0.00  0.00    -0.275 OA
BRANCH  20  23
ATOM     23  C   UNL     1       4.250   1.865  -2.842  0.00  0.00    +0.056 A 
ATOM     24  C   UNL     1       4.602   2.071  -1.515  0.00  0.00    +0.025 A 
ATOM     25  C   UNL     1       4.963   3.333  -1.085  0.00  0.00    +0.002 A 
ATOM     26  C   UNL     1       4.974   4.392  -1.974  0.00  0.00    +0.002 A 
ATOM     27  C   UNL     1       4.624   4.192  -3.297  0.00  0.00    +0.022 A 
ATOM     28  C   UNL     1       4.268   2.930  -3.735  0.00  0.00    +0.062 A 
ATOM     29 CL   UNL     1       3.836   2.677  -5.397  0.00  0.00    -0.082 Cl
ENDBRANCH  20  23
BRANCH  21  30
ATOM     30  C   UNL     1       6.286   0.005  -3.354  0.00  0.00    +0.076 C 
ATOM     31  C   UNL     1       6.802  -0.829  -2.180  0.00  0.00    +0.013 C 
ATOM     32  C   UNL     1       8.276  -0.506  -1.933  0.00  0.00    +0.001 C 
ATOM     33  C   UNL     1       9.088  -0.835  -3.187  0.00  0.00    +0.000 C 
ATOM     34  C   UNL     1       8.573  -0.001  -4.362  0.00  0.00    +0.001 C 
ATOM     35  C   UNL     1       7.098  -0.325  -4.609  0.00  0.00    +0.013 C 
ENDBRANCH  21  30
ENDBRANCH   1  20
TORSDOF 7
