REMARK  Name = ZINC39480829
REMARK  11 active torsions:
REMARK  status: ('A' for Active; 'I' for Inactive)
REMARK    1  A    between atoms: C_1  and  C_2
REMARK    2  A    between atoms: C_2  and  C_3
REMARK    3  A    between atoms: C_2  and  S_4
REMARK    4  A    between atoms: S_4  and  C_7
REMARK    5  A    between atoms: N_10  and  C_14
REMARK    6  A    between atoms: C_16  and  C_31
REMARK    7  A    between atoms: C_19  and  N_20
REMARK    8  A    between atoms: N_20  and  S_21
REMARK    9  A    between atoms: S_21  and  C_24
REMARK   10  A    between atoms: C_29  and  O_30
REMARK   11  A    between atoms: C_31  and  C_32
REMARK                            x       y       z     vdW  Elec       q    Type
REMARK                         _______ _______ _______ _____ _____    ______ ____
ROOT
ATOM      1  C   UNL     1      -1.187   0.426   6.303  0.00  0.00    +0.053 A 
ATOM      2  C   UNL     1      -0.473   0.571   7.482  0.00  0.00    +0.029 A 
ATOM      3  C   UNL     1      -0.905  -0.060   8.634  0.00  0.00    -0.041 A 
ATOM      4  C   UNL     1      -2.049  -0.837   8.614  0.00  0.00    +0.006 A 
ATOM      5  C   UNL     1      -2.768  -0.987   7.442  0.00  0.00    +0.026 A 
ATOM      6  C   UNL     1      -2.344  -0.353   6.284  0.00  0.00    +0.069 A 
ENDROOT
BRANCH   1   9
ATOM      7  C   UNL     1      -0.416   0.471   2.794  0.00  0.00    +0.215 C 
ATOM      8  C   UNL     1       0.172   0.393   4.207  0.00  0.00    +0.147 C 
ATOM      9  N   UNL     1      -0.752   1.064   5.135  0.00  0.00    -0.324 N 
ATOM     10  C   UNL     1      -1.206   2.423   4.803  0.00  0.00    +0.120 C 
ATOM     11  C   UNL     1      -1.739   2.421   3.367  0.00  0.00    +0.101 C 
ATOM     12  N   UNL     1      -0.715   1.871   2.468  0.00  0.00    -0.293 NA
ATOM     13  H   UNL     1       0.122   2.434   2.487  0.00  0.00    +0.124 HD
BRANCH   7  14
ATOM     14  S   UNL     1       0.784  -0.185   1.603  0.00  0.00    -0.012 S 
ATOM     15  O   UNL     1       0.964  -1.571   1.863  0.00  0.00    -0.173 OA
ATOM     16  O   UNL     1       1.919   0.669   1.592  0.00  0.00    -0.173 OA
BRANCH  14  18
ATOM     17  C   UNL     1      -0.408   1.469  -0.220  0.00  0.00    +0.031 C 
ATOM     18  C   UNL     1      -0.084  -0.007   0.020  0.00  0.00    +0.126 C 
ATOM     19  C   UNL     1       0.807  -0.523  -1.111  0.00  0.00    +0.031 C 
ENDBRANCH  14  18
ENDBRANCH   7  14
ENDBRANCH   1   9
BRANCH   6  20
ATOM     20  N   UNL     1      -3.073  -0.500   5.097  0.00  0.00    -0.214 N 
ATOM     21  H   UNL     1      -2.611  -0.536   4.245  0.00  0.00    +0.174 HD
BRANCH  20  22
ATOM     22  S   UNL     1      -4.724  -0.611   5.148  0.00  0.00    +0.076 S 
ATOM     23  O   UNL     1      -5.174   0.415   6.022  0.00  0.00    -0.150 OA
ATOM     24  O   UNL     1      -5.166  -0.714   3.802  0.00  0.00    -0.150 OA
BRANCH  22  25
ATOM     25  C   UNL     1      -5.119  -2.143   5.926  0.00  0.00    +0.150 A 
ATOM     26  C   UNL     1      -5.800  -2.152   7.128  0.00  0.00    +0.032 A 
ATOM     27  C   UNL     1      -6.109  -3.353   7.739  0.00  0.00    +0.002 A 
ATOM     28  C   UNL     1      -5.739  -4.548   7.148  0.00  0.00    +0.004 A 
ATOM     29  C   UNL     1      -5.059  -4.543   5.946  0.00  0.00    +0.047 A 
ATOM     30  C   UNL     1      -4.752  -3.339   5.328  0.00  0.00    +0.143 A 
BRANCH  30  31
ATOM     31  O   UNL     1      -4.088  -3.333   4.142  0.00  0.00    -0.505 OA
ATOM     32  H   UNL     1      -3.125  -3.332   4.231  0.00  0.00    +0.292 HD
ENDBRANCH  30  31
ENDBRANCH  22  25
ENDBRANCH  20  22
ENDBRANCH   6  20
BRANCH   3  33
ATOM     33  C   UNL     1      -0.127   0.099   9.915  0.00  0.00    +0.070 C 
BRANCH  33  34
ATOM     34  C   UNL     1      -0.647   1.292  10.674  0.00  0.00    -0.043 A 
ATOM     35  C   UNL     1      -0.102   2.543  10.453  0.00  0.00    +0.004 A 
ATOM     36  C   UNL     1      -0.580   3.638  11.149  0.00  0.00    +0.000 A 
ATOM     37  C   UNL     1      -1.602   3.482  12.066  0.00  0.00    +0.000 A 
ATOM     38  C   UNL     1      -2.147   2.231  12.287  0.00  0.00    +0.000 A 
ATOM     39  C   UNL     1      -1.673   1.137  11.588  0.00  0.00    +0.004 A 
ENDBRANCH  33  34
ENDBRANCH   3  33
TORSDOF 9
