REMARK  Name = ZINC13646390
REMARK  10 active torsions:
REMARK  status: ('A' for Active; 'I' for Inactive)
REMARK    1  A    between atoms: C_1  and  C_2
REMARK    2  A    between atoms: C_2  and  C_4
REMARK    3  A    between atoms: C_2  and  N_14
REMARK    4  A    between atoms: C_7  and  C_10
REMARK    5  A    between atoms: C_10  and  C_11
REMARK    6  A    between atoms: C_10  and  C_12
REMARK    7  A    between atoms: C_10  and  C_13
REMARK    8  A    between atoms: N_14  and  S_15
REMARK    9  A    between atoms: S_15  and  C_18
REMARK   10  A    between atoms: C_18  and  C_19
REMARK                            x       y       z     vdW  Elec       q    Type
REMARK                         _______ _______ _______ _____ _____    ______ ____
ROOT
ATOM      1  N   UNL     1      -0.028   1.093  -2.745  0.00  0.00    -0.187 NA
ATOM      2  H   UNL     1       0.429   1.702  -3.345  0.00  0.00    +0.148 HD
ENDROOT
BRANCH   1   3
ATOM      3  S   UNL     1      -0.890   1.687  -1.462  0.00  0.00    +0.034 S 
ATOM      4  O   UNL     1      -2.163   1.063  -1.561  0.00  0.00    -0.158 OA
ATOM      5  O   UNL     1      -0.765   3.099  -1.563  0.00  0.00    -0.158 OA
BRANCH   3   6
ATOM      6  C   UNL     1      -0.013   1.086   0.008  0.00  0.00    +0.220 C 
BRANCH   6   7
ATOM      7  C   UNL     1      -0.718   1.572   1.248  0.00  0.00    -0.024 A 
ATOM      8  C   UNL     1      -0.359   2.779   1.818  0.00  0.00    +0.007 A 
ATOM      9  C   UNL     1      -1.010   3.229   2.952  0.00  0.00    +0.022 A 
ATOM     10  C   UNL     1      -2.012   2.465   3.523  0.00  0.00    +0.059 A 
ATOM     11  C   UNL     1      -2.367   1.254   2.955  0.00  0.00    +0.060 A 
ATOM     12  C   UNL     1      -1.719   0.808   1.817  0.00  0.00    +0.026 A 
ATOM     13 CL   UNL     1      -3.625   0.295   3.671  0.00  0.00    -0.082 Cl
ATOM     14 CL   UNL     1      -2.824   3.026   4.952  0.00  0.00    -0.082 Cl
ENDBRANCH   6   7
ENDBRANCH   3   6
ENDBRANCH   1   3
BRANCH   1  16
ATOM     15  C   UNL     1      -1.033  -0.766  -3.975  0.00  0.00    +0.031 C 
ATOM     16  C   UNL     1       0.045  -0.353  -2.972  0.00  0.00    +0.103 C 
BRANCH  16  17
ATOM     17  C   UNL     1       1.404  -0.707  -3.520  0.00  0.00    -0.029 A 
ATOM     18  C   UNL     1       2.005   0.110  -4.459  0.00  0.00    +0.005 A 
ATOM     19  C   UNL     1       3.253  -0.212  -4.958  0.00  0.00    +0.004 A 
ATOM     20  C   UNL     1       3.895  -1.357  -4.526  0.00  0.00    -0.042 A 
ATOM     21  C   UNL     1       3.292  -2.178  -3.591  0.00  0.00    +0.004 A 
ATOM     22  C   UNL     1       2.046  -1.852  -3.088  0.00  0.00    +0.005 A 
BRANCH  20  23
ATOM     23  C   UNL     1       5.254  -1.711  -5.074  0.00  0.00    -0.013 C 
ATOM     24  C   UNL     1       5.184  -3.073  -5.768  0.00  0.00    +0.015 C 
ATOM     25  C   UNL     1       5.690  -0.647  -6.083  0.00  0.00    +0.015 C 
ATOM     26  C   UNL     1       6.266  -1.774  -3.928  0.00  0.00    +0.015 C 
ENDBRANCH  20  23
ENDBRANCH  16  17
ENDBRANCH   1  16
TORSDOF 6
