REMARK  Name = ZINC12490999
REMARK  6 active torsions:
REMARK  status: ('A' for Active; 'I' for Inactive)
REMARK    1  A    between atoms: C_1  and  C_2
REMARK    2  A    between atoms: C_5  and  C_8
REMARK    3  A    between atoms: N_10  and  N_11
REMARK    4  A    between atoms: C_12  and  C_14
REMARK    5  A    between atoms: C_14  and  S_15
REMARK    6  A    between atoms: S_15  and  C_16
REMARK                            x       y       z     vdW  Elec       q    Type
REMARK                         _______ _______ _______ _____ _____    ______ ____
ROOT
ATOM      1  S   UNL     1      -1.448   2.335   0.022  0.00  0.00    -0.076 S 
ENDROOT
BRANCH   1   2
ATOM      2  C   UNL     1      -0.016   1.309   0.009  0.00  0.00    +0.198 A 
ATOM      3  N   UNL     1       0.002  -0.004   0.002  0.00  0.00    -0.122 NA
ATOM      4  N   UNL     1       1.216  -0.434  -0.012  0.00  0.00    -0.128 NA
ATOM      5  C   UNL     1       2.043   0.582  -0.015  0.00  0.00    +0.173 A 
ATOM      6  N   UNL     1       1.284   1.732  -0.001  0.00  0.00    -0.260 N 
ATOM      7  C   UNL     1       1.884   2.958  -0.000  0.00  0.00    +0.208 A 
ATOM      8  N   UNL     1       3.181   3.079  -0.013  0.00  0.00    -0.230 NA
ATOM      9  C   UNL     1       3.994   2.027  -0.027  0.00  0.00    +0.114 A 
ATOM     10  C   UNL     1       3.517   0.708  -0.029  0.00  0.00    +0.056 A 
ATOM     11  C   UNL     1       4.490  -0.323  -0.044  0.00  0.00    -0.024 A 
ATOM     12  C   UNL     1       5.792   0.043  -0.056  0.00  0.00    -0.004 A 
ATOM     13  S   UNL     1       5.758   1.816  -0.048  0.00  0.00    -0.073 S 
ATOM     14  C   UNL     1       6.990  -0.855  -0.073  0.00  0.00    +0.043 C 
ATOM     15  C   UNL     1       6.537  -2.274   0.295  0.00  0.00    +0.005 C 
ATOM     16  C   UNL     1       5.294  -2.623  -0.530  0.00  0.00    +0.005 C 
ATOM     17  C   UNL     1       4.100  -1.800  -0.047  0.00  0.00    +0.037 C 
ENDBRANCH   1   2
BRANCH   1  18
ATOM     18  C   UNL     1      -2.830   1.159   0.023  0.00  0.00    +0.174 C 
BRANCH  18  20
ATOM     19  N   UNL     1      -5.302   1.245   0.036  0.00  0.00    -0.233 N 
ATOM     20  C   UNL     1      -4.133   1.916   0.034  0.00  0.00    +0.239 C 
ATOM     21  O   UNL     1      -4.130   3.129   0.040  0.00  0.00    -0.273 OA
ATOM     22  H   UNL     1      -5.304   0.275   0.032  0.00  0.00    +0.173 HD
BRANCH  19  25
ATOM     23  C   UNL     1      -7.682   1.277   0.049  0.00  0.00    +0.260 C 
ATOM     24  O   UNL     1      -7.685   0.062   0.043  0.00  0.00    -0.269 OA
ATOM     25  N   UNL     1      -6.513   1.948   0.046  0.00  0.00    -0.230 N 
ATOM     26  H   UNL     1      -6.511   2.918   0.051  0.00  0.00    +0.173 HD
BRANCH  23  31
ATOM     27  C   UNL     1     -12.659   4.166   0.091  0.00  0.00    +0.044 C 
ATOM     28  C   UNL     1     -11.356   3.410   0.080  0.00  0.00    -0.050 A 
ATOM     29  C   UNL     1     -11.363   2.026   0.072  0.00  0.00    +0.004 A 
ATOM     30  C   UNL     1     -10.173   1.327   0.062  0.00  0.00    +0.013 A 
ATOM     31  C   UNL     1      -8.961   2.019   0.059  0.00  0.00    +0.038 A 
ATOM     32  C   UNL     1      -8.961   3.415   0.072  0.00  0.00    +0.013 A 
ATOM     33  C   UNL     1     -10.158   4.102   0.078  0.00  0.00    +0.004 A 
ENDBRANCH  23  31
ENDBRANCH  19  25
ENDBRANCH  18  20
ENDBRANCH   1  18
TORSDOF 5
