REMARK  Name = ZINC06260462
REMARK  9 active torsions:
REMARK  status: ('A' for Active; 'I' for Inactive)
REMARK    1  A    between atoms: C_1  and  C_2
REMARK    2  A    between atoms: C_2  and  C_4
REMARK    3  A    between atoms: C_2  and  O_16
REMARK    4  A    between atoms: N_6  and  C_7
REMARK    5  A    between atoms: O_16  and  C_17
REMARK    6  A    between atoms: C_17  and  C_19
REMARK    7  A    between atoms: C_24  and  N_25
REMARK    8  A    between atoms: N_25  and  S_26
REMARK    9  A    between atoms: S_26  and  C_29
REMARK                            x       y       z     vdW  Elec       q    Type
REMARK                         _______ _______ _______ _____ _____    ______ ____
ROOT
ATOM      1  C   UNL     1       4.335  -3.038   1.249  0.00  0.00    +0.342 C 
ATOM      2  O   UNL     1       5.319  -2.464   1.670  0.00  0.00    -0.245 OA
ENDROOT
BRANCH   1   3
ATOM      3  C   UNL     1       4.200  -4.495   1.422  0.00  0.00    +0.081 A 
ATOM      4  C   UNL     1       3.067  -5.159   0.945  0.00  0.00    +0.017 A 
ATOM      5  C   UNL     1       2.950  -6.521   1.105  0.00  0.00    +0.001 A 
ATOM      6  C   UNL     1       3.946  -7.239   1.749  0.00  0.00    +0.002 A 
ATOM      7  C   UNL     1       5.069  -6.598   2.231  0.00  0.00    +0.025 A 
ATOM      8  C   UNL     1       5.208  -5.224   2.074  0.00  0.00    +0.062 A 
BRANCH   8   9
ATOM      9  N   UNL     1       6.336  -4.577   2.558  0.00  0.00    -0.215 N 
ATOM     10  H   UNL     1       6.261  -3.684   2.929  0.00  0.00    +0.174 HD
BRANCH   9  11
ATOM     11  S   UNL     1       7.810  -5.330   2.504  0.00  0.00    +0.079 S 
ATOM     12  O   UNL     1       8.770  -4.375   2.935  0.00  0.00    -0.149 OA
ATOM     13  O   UNL     1       7.647  -6.588   3.144  0.00  0.00    -0.149 OA
BRANCH  11  14
ATOM     14  C   UNL     1       8.160  -5.667   0.811  0.00  0.00    +0.146 A 
ATOM     15  C   UNL     1       8.805  -4.895  -0.098  0.00  0.00    +0.036 A 
ATOM     16  C   UNL     1       8.968  -5.370  -1.386  0.00  0.00    +0.010 A 
ATOM     17  C   UNL     1       8.478  -6.594  -1.702  0.00  0.00    +0.047 A 
ATOM     18  S   UNL     1       7.766  -7.119  -0.151  0.00  0.00    -0.077 S 
ENDBRANCH  11  14
ENDBRANCH   9  11
ENDBRANCH   8   9
ENDBRANCH   1   3
BRANCH   1  19
ATOM     19  O   UNL     1       3.365  -2.342   0.623  0.00  0.00    -0.449 OA
BRANCH  19  21
ATOM     20  C   UNL     1       4.298  -0.619  -0.823  0.00  0.00    +0.062 C 
ATOM     21  C   UNL     1       3.564  -0.910   0.487  0.00  0.00    +0.259 C 
BRANCH  21  22
ATOM     22  C   UNL     1       2.227  -0.215   0.480  0.00  0.00    +0.258 C 
ATOM     23  O   UNL     1       1.205  -0.868   0.487  0.00  0.00    -0.271 OA
ATOM     24  N   UNL     1       2.167   1.131   0.465  0.00  0.00    -0.280 N 
ATOM     25  H   UNL     1       2.981   1.652   0.377  0.00  0.00    +0.155 HD
BRANCH  24  26
ATOM     26  C   UNL     1       0.929   1.779   0.576  0.00  0.00    +0.072 A 
ATOM     27  C   UNL     1      -0.136   1.140   1.194  0.00  0.00    +0.029 A 
ATOM     28  C   UNL     1      -1.358   1.776   1.298  0.00  0.00    +0.043 A 
ATOM     29  C   UNL     1      -1.519   3.057   0.797  0.00  0.00    +0.161 A 
ATOM     30  C   UNL     1      -0.457   3.699   0.178  0.00  0.00    +0.195 A 
ATOM     31  C   UNL     1       0.767   3.062   0.067  0.00  0.00    +0.182 A 
ATOM     32  F   UNL     1       1.803   3.686  -0.536  0.00  0.00    -0.200 F 
ATOM     33  F   UNL     1      -0.617   4.946  -0.316  0.00  0.00    -0.199 F 
ATOM     34  F   UNL     1      -2.713   3.679   0.905  0.00  0.00    -0.202 F 
ENDBRANCH  24  26
ENDBRANCH  21  22
ENDBRANCH  19  21
ENDBRANCH   1  19
TORSDOF 8
