REMARK  Name = ZINC14002286
REMARK  8 active torsions:
REMARK  status: ('A' for Active; 'I' for Inactive)
REMARK    1  A    between atoms: C_6  and  C_7
REMARK    2  A    between atoms: C_7  and  C_8
REMARK    3  A    between atoms: N_10  and  C_11
REMARK    4  A    between atoms: C_11  and  N_13
REMARK    5  A    between atoms: N_13  and  N_14
REMARK    6  A    between atoms: C_15  and  C_17
REMARK    7  A    between atoms: C_17  and  O_18
REMARK    8  A    between atoms: O_18  and  C_19
REMARK                            x       y       z     vdW  Elec       q    Type
REMARK                         _______ _______ _______ _____ _____    ______ ____
ROOT
ATOM      1  N   UNL     1       5.211  -2.709  -0.065  0.00  0.00    -0.245 N 
ATOM      2  H   UNL     1       5.972  -2.107  -0.069  0.00  0.00    +0.172 HD
ENDROOT
BRANCH   1   3
ATOM      3  N   UNL     1       3.909  -2.193  -0.049  0.00  0.00    -0.232 N 
ATOM      4  C   UNL     1       3.713  -0.860  -0.040  0.00  0.00    +0.267 C 
ATOM      5  O   UNL     1       4.664  -0.107  -0.044  0.00  0.00    -0.271 OA
ATOM      6  H   UNL     1       3.148  -2.795  -0.045  0.00  0.00    +0.173 HD
BRANCH   4   7
ATOM      7  C   UNL     1       2.312  -0.304  -0.023  0.00  0.00    +0.326 C 
BRANCH   7   8
ATOM      8  O   UNL     1       2.366   1.124  -0.015  0.00  0.00    -0.482 OA
BRANCH   8   9
ATOM      9  C   UNL     1       1.179   1.786   0.000  0.00  0.00    +0.135 A 
ATOM     10  C   UNL     1      -0.013   1.076   0.008  0.00  0.00    +0.048 A 
ATOM     11  C   UNL     1      -1.218   1.751   0.017  0.00  0.00    +0.023 A 
ATOM     12  C   UNL     1      -1.238   3.134   0.031  0.00  0.00    +0.042 A 
ATOM     13  C   UNL     1      -0.051   3.845   0.023  0.00  0.00    +0.039 A 
ATOM     14  C   UNL     1       1.157   3.174   0.008  0.00  0.00    +0.061 A 
ATOM     15 BR   UNL     1       2.780   4.145  -0.003  0.00  0.00    -0.046 Br
ATOM     16 CL   UNL     1      -2.754   3.979   0.050  0.00  0.00    -0.084 Cl
ENDBRANCH   8   9
ENDBRANCH   7   8
ENDBRANCH   4   7
ENDBRANCH   1   3
BRANCH   1  17
ATOM     17  C   UNL     1       5.407  -4.043  -0.074  0.00  0.00    +0.153 C 
ATOM     18  S   UNL     1       6.999  -4.674  -0.093  0.00  0.00    -0.017 S 
BRANCH  17  21
ATOM     19  C   UNL     1       4.547  -6.213  -0.078  0.00  0.00    +0.223 C 
ATOM     20  O   UNL     1       5.674  -6.660  -0.092  0.00  0.00    -0.275 OA
ATOM     21  N   UNL     1       4.351  -4.880  -0.069  0.00  0.00    -0.266 N 
ATOM     22  H   UNL     1       3.449  -4.522  -0.058  0.00  0.00    +0.157 HD
BRANCH  19  23
ATOM     23  C   UNL     1       3.365  -7.148  -0.072  0.00  0.00    +0.131 C 
BRANCH  23  29
ATOM     24  C   UNL     1       4.060  -9.223  -1.288  0.00  0.00    +0.005 A 
ATOM     25  C   UNL     1       4.513 -10.528  -1.301  0.00  0.00    +0.020 A 
ATOM     26  C   UNL     1       4.749 -11.190  -0.109  0.00  0.00    +0.041 A 
ATOM     27  C   UNL     1       4.536 -10.542   1.095  0.00  0.00    +0.020 A 
ATOM     28  C   UNL     1       4.089  -9.235   1.106  0.00  0.00    +0.005 A 
ATOM     29  C   UNL     1       3.853  -8.574  -0.085  0.00  0.00    -0.039 A 
ATOM     30 CL   UNL     1       5.312 -12.832  -0.124  0.00  0.00    -0.084 Cl
ENDBRANCH  23  29
ENDBRANCH  19  23
ENDBRANCH  17  21
ENDBRANCH   1  17
TORSDOF 8
