REMARK  Name = ZINC33021006
REMARK  6 active torsions:
REMARK  status: ('A' for Active; 'I' for Inactive)
REMARK    1  A    between atoms: C_1  and  N_2
REMARK    2  A    between atoms: N_2  and  C_3
REMARK    3  A    between atoms: C_3  and  C_4
REMARK    4  A    between atoms: C_10  and  C_12
REMARK    5  A    between atoms: N_17  and  S_19
REMARK    6  A    between atoms: S_19  and  C_22
REMARK                            x       y       z     vdW  Elec       q    Type
REMARK                         _______ _______ _______ _____ _____    ______ ____
ROOT
ATOM      1  C   UNL     1      -1.604   5.399  -3.371  0.00  0.00    +0.091 C 
ATOM      2  C   UNL     1      -0.275   6.060  -3.743  0.00  0.00    +0.015 C 
ATOM      3  C   UNL     1       0.839   5.506  -2.851  0.00  0.00    +0.018 C 
ATOM      4  C   UNL     1       0.526   5.841  -1.385  0.00  0.00    +0.109 C 
ATOM      5  N   UNL     1      -0.813   5.330  -1.064  0.00  0.00    -0.176 NA
ATOM      6  C   UNL     1      -1.943   5.727  -1.914  0.00  0.00    +0.122 C 
ENDROOT
BRANCH   1   9
ATOM      7  C   UNL     1      -1.742   4.609  -6.091  0.00  0.00    +0.132 C 
ATOM      8  N   UNL     1      -2.718   5.572  -5.573  0.00  0.00    -0.300 N 
ATOM      9  C   UNL     1      -2.695   5.920  -4.271  0.00  0.00    +0.220 C 
ATOM     10  O   UNL     1      -3.551   6.653  -3.824  0.00  0.00    -0.275 OA
BRANCH   8  11
ATOM     11  C   UNL     1      -3.718   6.156  -6.470  0.00  0.00    +0.142 C 
BRANCH  11  12
ATOM     12  C   UNL     1      -3.170   7.421  -7.078  0.00  0.00    -0.030 A 
ATOM     13  C   UNL     1      -3.372   8.635  -6.447  0.00  0.00    +0.005 A 
ATOM     14  C   UNL     1      -2.865   9.795  -7.003  0.00  0.00    +0.000 A 
ATOM     15  C   UNL     1      -2.165   9.742  -8.194  0.00  0.00    +0.000 A 
ATOM     16  C   UNL     1      -1.967   8.530  -8.827  0.00  0.00    +0.000 A 
ATOM     17  C   UNL     1      -2.470   7.369  -8.269  0.00  0.00    +0.005 A 
ENDBRANCH  11  12
ENDBRANCH   8  11
ENDBRANCH   1   9
BRANCH   5  18
ATOM     18  S   UNL     1      -1.045   4.329   0.235  0.00  0.00    +0.061 S 
ATOM     19  O   UNL     1      -2.407   4.469   0.617  0.00  0.00    -0.153 OA
ATOM     20  O   UNL     1       0.027   4.576   1.135  0.00  0.00    -0.153 OA
BRANCH  18  21
ATOM     21  C   UNL     1      -0.850   2.675  -0.340  0.00  0.00    +0.107 A 
ATOM     22  C   UNL     1      -1.945   1.976  -0.813  0.00  0.00    +0.032 A 
ATOM     23  C   UNL     1      -1.799   0.680  -1.273  0.00  0.00    +0.049 A 
ATOM     24  C   UNL     1      -0.555   0.075  -1.246  0.00  0.00    +0.142 A 
ATOM     25  C   UNL     1       0.549   0.779  -0.767  0.00  0.00    +0.078 A 
ATOM     26  C   UNL     1       0.398   2.079  -0.315  0.00  0.00    +0.055 A 
ATOM     27  N   UNL     1       1.805   0.156  -0.750  0.00  0.00    -0.280 N 
ATOM     28  C   UNL     1       1.987  -0.971  -1.472  0.00  0.00    +0.255 C 
ATOM     29  O   UNL     1       3.055  -1.544  -1.448  0.00  0.00    -0.272 OA
ATOM     30  C   UNL     1       0.856  -1.513  -2.309  0.00  0.00    +0.325 C 
ATOM     31  O   UNL     1      -0.394  -1.201  -1.688  0.00  0.00    -0.481 OA
ATOM     32  H   UNL     1       2.624   0.585  -0.154  0.00  0.00    +0.155 HD
ENDBRANCH  18  21
ENDBRANCH   5  18
TORSDOF 5
