REMARK  Name = ZINC63959808
REMARK  7 active torsions:
REMARK  status: ('A' for Active; 'I' for Inactive)
REMARK    1  A    between atoms: C_4  and  C_7
REMARK    2  A    between atoms: C_7  and  C_9
REMARK    3  A    between atoms: C_7  and  C_27
REMARK    4  A    between atoms: C_9  and  N_10
REMARK    5  A    between atoms: C_11  and  C_13
REMARK    6  A    between atoms: C_13  and  N_14
REMARK    7  A    between atoms: C_16  and  C_24
REMARK                            x       y       z     vdW  Elec       q    Type
REMARK                         _______ _______ _______ _____ _____    ______ ____
ROOT
ATOM      1  N   UNL     1       3.861  -0.748   2.403  0.00  0.00    -0.313 N 
ATOM      2  C   UNL     1       3.954  -1.314   3.623  0.00  0.00    +0.230 C 
ATOM      3  O   UNL     1       4.003  -2.521   3.730  0.00  0.00    -0.274 OA
ATOM      4  H   UNL     1       3.822   0.217   2.318  0.00  0.00    +0.149 HD
ENDROOT
BRANCH   1   5
ATOM      5  C   UNL     1       3.817  -1.592   1.206  0.00  0.00    +0.116 C 
BRANCH   5   6
ATOM      6  C   UNL     1       3.711  -0.707  -0.038  0.00  0.00    +0.064 C 
BRANCH   6   7
ATOM      7  C   UNL     1       3.790  -1.566  -1.273  0.00  0.00    -0.033 C 
ATOM      8  C   UNL     1       4.716  -1.494  -2.256  0.00  0.00    -0.000 A 
ATOM      9  C   UNL     1       5.883  -0.628  -2.461  0.00  0.00    +0.010 A 
ATOM     10  C   UNL     1       6.640  -0.798  -3.569  0.00  0.00    +0.001 A 
ATOM     11  C   UNL     1       6.338  -1.778  -4.524  0.00  0.00    +0.002 A 
ATOM     12  C   UNL     1       5.284  -2.612  -4.405  0.00  0.00    +0.026 A 
ATOM     13  C   UNL     1       4.420  -2.522  -3.279  0.00  0.00    +0.043 A 
ATOM     14  N   UNL     1       3.352  -3.203  -2.942  0.00  0.00    -0.380 N 
ATOM     15  C   UNL     1       2.853  -2.687  -1.662  0.00  0.00    +0.145 C 
ATOM     16  H   UNL     1       2.959  -3.929  -3.451  0.00  0.00    +0.160 HD
ENDBRANCH   6   7
BRANCH   6  20
ATOM     17  C   UNL     1      -0.017   1.378   0.010  0.00  0.00    +0.000 A 
ATOM     18  C   UNL     1       1.171   2.086   0.002  0.00  0.00    +0.000 A 
ATOM     19  C   UNL     1       2.377   1.411  -0.013  0.00  0.00    +0.004 A 
ATOM     20  C   UNL     1       2.396   0.029  -0.020  0.00  0.00    -0.039 A 
ATOM     21  C   UNL     1       1.208  -0.679  -0.012  0.00  0.00    +0.004 A 
ATOM     22  C   UNL     1       0.002  -0.004   0.002  0.00  0.00    +0.000 A 
ENDBRANCH   6  20
ENDBRANCH   5   6
ENDBRANCH   1   5
BRANCH   2  23
ATOM     23  C   UNL     1       3.999  -0.446   4.854  0.00  0.00    +0.200 C 
BRANCH  23  24
ATOM     24  N   UNL     1       4.101  -1.293   6.045  0.00  0.00    -0.320 N 
ATOM     25  C   UNL     1       2.961  -1.824   6.797  0.00  0.00    +0.123 C 
ATOM     26  C   UNL     1       3.580  -2.641   7.943  0.00  0.00    +0.124 C 
ATOM     27  C   UNL     1       5.073  -2.504   7.745  0.00  0.00    -0.013 A 
ATOM     28  C   UNL     1       5.298  -1.716   6.626  0.00  0.00    +0.034 A 
ATOM     29  C   UNL     1       6.612  -1.452   6.237  0.00  0.00    +0.023 A 
ATOM     30  C   UNL     1       7.668  -1.972   6.955  0.00  0.00    +0.002 A 
ATOM     31  C   UNL     1       7.433  -2.759   8.067  0.00  0.00    +0.000 A 
ATOM     32  C   UNL     1       6.134  -3.019   8.464  0.00  0.00    +0.006 A 
BRANCH  26  33
ATOM     33  C   UNL     1       3.170  -2.071   9.277  0.00  0.00    +0.219 C 
ATOM     34  O   UNL     1       2.447  -1.098   9.323  0.00  0.00    -0.275 OA
ATOM     35  N   UNL     1       3.606  -2.642  10.417  0.00  0.00    -0.329 N 
ATOM     36  H   UNL     1       4.184  -3.420  10.379  0.00  0.00    +0.145 HD
ATOM     37  H   UNL     1       3.342  -2.274  11.275  0.00  0.00    +0.145 HD
ENDBRANCH  26  33
ENDBRANCH  23  24
ENDBRANCH   2  23
TORSDOF 7
