REMARK  Name = ZINC39681062
REMARK  7 active torsions:
REMARK  status: ('A' for Active; 'I' for Inactive)
REMARK    1  A    between atoms: C_1  and  C_2
REMARK    2  A    between atoms: C_2  and  C_4
REMARK    3  A    between atoms: C_2  and  N_10
REMARK    4  A    between atoms: C_11  and  C_13
REMARK    5  A    between atoms: C_24  and  C_26
REMARK    6  A    between atoms: C_30  and  O_31
REMARK    7  A    between atoms: O_31  and  C_32
REMARK                            x       y       z     vdW  Elec       q    Type
REMARK                         _______ _______ _______ _____ _____    ______ ____
ROOT
ATOM      1  C   UNL     1       2.780  -1.103   2.413  0.00  0.00    +0.100 C 
ATOM      2  C   UNL     1       2.275  -2.511   2.801  0.00  0.00    +0.121 C 
ATOM      3  N   UNL     1       3.225  -3.443   2.149  0.00  0.00    -0.296 N 
ATOM      4  C   UNL     1       4.548  -2.795   2.313  0.00  0.00    +0.115 C 
ATOM      5  C   UNL     1       4.273  -1.293   2.097  0.00  0.00    -0.004 C 
ATOM      6  C   UNL     1       5.125  -0.458   3.048  0.00  0.00    -0.010 C 
ATOM      7  C   UNL     1       6.602  -0.617   2.677  0.00  0.00    -0.082 C 
ATOM      8  N   UNL     1       6.810  -0.181   1.291  0.00  0.00    +0.379 N 
ATOM      9  C   UNL     1       6.060  -1.049   0.375  0.00  0.00    -0.082 C 
ATOM     10  C   UNL     1       4.560  -0.908   0.648  0.00  0.00    -0.010 C 
ATOM     11  C   UNL     1       2.949  -4.615   1.544  0.00  0.00    +0.251 C 
ATOM     12  O   UNL     1       1.793  -4.970   1.404  0.00  0.00    -0.270 OA
ATOM     13  H   UNL     1       6.491   0.770   1.187  0.00  0.00    -0.086 HD
ATOM     14  H   UNL     1       7.793  -0.230   1.068  0.00  0.00    -0.086 HD
ENDROOT
BRANCH  11  15
ATOM     15  C   UNL     1       4.043  -5.466   1.054  0.00  0.00    +0.087 A 
ATOM     16  C   UNL     1       5.247  -5.547   1.719  0.00  0.00    +0.063 A 
ATOM     17  S   UNL     1       6.157  -6.616   0.800  0.00  0.00    -0.081 S 
ATOM     18  C   UNL     1       4.989  -6.993  -0.489  0.00  0.00    +0.120 A 
ATOM     19  C   UNL     1       3.906  -6.261  -0.145  0.00  0.00    +0.158 A 
ATOM     20 CL   UNL     1       5.189  -8.050  -1.851  0.00  0.00    -0.072 Cl
BRANCH  19  21
ATOM     21  O   UNL     1       2.761  -6.267  -0.884  0.00  0.00    -0.492 OA
ATOM     22  C   UNL     1       2.659  -5.299  -1.930  0.00  0.00    +0.277 C 
ENDBRANCH  19  21
ENDBRANCH  11  15
BRANCH   1  24
ATOM     23  N   UNL     1       1.842   0.723   1.033  0.00  0.00    -0.308 N 
ATOM     24  C   UNL     1       2.046  -0.599   1.196  0.00  0.00    +0.219 C 
ATOM     25  O   UNL     1       1.640  -1.383   0.365  0.00  0.00    -0.275 OA
ATOM     26  H   UNL     1       2.167   1.350   1.698  0.00  0.00    +0.149 HD
BRANCH  23  28
ATOM     27  C   UNL     1       2.113   1.371  -1.310  0.00  0.00    +0.033 C 
ATOM     28  C   UNL     1       1.129   1.213  -0.149  0.00  0.00    +0.100 C 
BRANCH  28  29
ATOM     29  C   UNL     1       0.499   2.547   0.161  0.00  0.00    -0.025 A 
ATOM     30  C   UNL     1       1.178   3.494   0.913  0.00  0.00    +0.025 A 
ATOM     31  C   UNL     1       0.569   4.706   1.177  0.00  0.00    +0.111 A 
ATOM     32  N   UNL     1      -0.642   4.966   0.724  0.00  0.00    -0.263 NA
ATOM     33  C   UNL     1      -1.316   4.089   0.006  0.00  0.00    +0.111 A 
ATOM     34  C   UNL     1      -0.769   2.858  -0.304  0.00  0.00    +0.025 A 
ENDBRANCH  28  29
ENDBRANCH  23  28
ENDBRANCH   1  24
TORSDOF 5
