REMARK  Name = ZINC13135649
REMARK  3 active torsions:
REMARK  status: ('A' for Active; 'I' for Inactive)
REMARK    1  A    between atoms: C_1  and  C_2
REMARK    2  A    between atoms: C_22  and  C_30
REMARK    3  A    between atoms: C_30  and  C_32
REMARK                            x       y       z     vdW  Elec       q    Type
REMARK                         _______ _______ _______ _____ _____    ______ ____
ROOT
ATOM      1  C   UNL     1       0.189   1.627   0.150  0.00  0.00    +0.044 C 
ATOM      2  C   UNL     1       0.173   0.122   0.095  0.00  0.00    -0.050 A 
ATOM      3  C   UNL     1       0.189  -0.528  -1.126  0.00  0.00    +0.005 A 
ATOM      4  C   UNL     1       0.175  -1.905  -1.183  0.00  0.00    +0.024 A 
ATOM      5  C   UNL     1       0.144  -2.655  -0.009  0.00  0.00    +0.036 A 
ATOM      6  C   UNL     1       0.128  -1.991   1.213  0.00  0.00    -0.026 A 
ATOM      7  C   UNL     1       0.148  -0.615   1.266  0.00  0.00    +0.008 A 
ATOM      8  C   UNL     1       0.096  -3.063   2.269  0.00  0.00    +0.060 C 
ATOM      9  C   UNL     1       0.099  -4.359   1.499  0.00  0.00    +0.212 C 
ATOM     10  O   UNL     1       0.080  -5.478   1.966  0.00  0.00    -0.277 OA
ATOM     11  N   UNL     1       0.126  -4.036   0.193  0.00  0.00    -0.286 N 
ATOM     12  C   UNL     1      -1.144  -2.944   3.147  0.00  0.00    +0.085 C 
ATOM     13  C   UNL     1      -2.031  -4.152   3.038  0.00  0.00    -0.011 A 
ATOM     14  C   UNL     1      -1.835  -5.495   3.269  0.00  0.00    +0.006 A 
ATOM     15  C   UNL     1      -2.872  -6.390   3.073  0.00  0.00    +0.000 A 
ATOM     16  C   UNL     1      -4.105  -5.931   2.646  0.00  0.00    +0.002 A 
ATOM     17  C   UNL     1      -4.306  -4.586   2.414  0.00  0.00    +0.023 A 
ATOM     18  C   UNL     1      -3.267  -3.679   2.607  0.00  0.00    +0.038 A 
ATOM     19  N   UNL     1      -3.223  -2.293   2.441  0.00  0.00    -0.285 N 
ATOM     20  C   UNL     1      -2.012  -1.784   2.737  0.00  0.00    +0.228 C 
ATOM     21  O   UNL     1      -1.684  -0.618   2.683  0.00  0.00    -0.275 OA
ATOM     22  C   UNL     1      -0.625  -2.763   4.584  0.00  0.00    +0.066 C 
ATOM     23  C   UNL     1       0.819  -2.248   4.371  0.00  0.00    -0.055 C 
ATOM     24  N   UNL     1       1.277  -2.973   3.146  0.00  0.00    +0.395 N 
ATOM     25  C   UNL     1       1.627  -4.332   3.623  0.00  0.00    -0.076 C 
ATOM     26  C   UNL     1       2.260  -4.124   5.013  0.00  0.00    -0.020 C 
ATOM     27  C   UNL     1       1.710  -2.758   5.516  0.00  0.00    -0.016 C 
ATOM     28  H   UNL     1       0.131  -4.688  -0.526  0.00  0.00    +0.155 HD
ATOM     29  H   UNL     1      -3.977  -1.759   2.147  0.00  0.00    +0.155 HD
ATOM     30  H   UNL     1       2.049  -2.505   2.694  0.00  0.00    -0.079 HD
ENDROOT
BRANCH  22  31
ATOM     31  C   UNL     1      -1.454  -1.746   5.326  0.00  0.00    +0.166 C 
ATOM     32  O   UNL     1      -1.117  -0.581   5.337  0.00  0.00    -0.292 OA
BRANCH  31  33
ATOM     33  C   UNL     1      -2.671  -2.166   6.037  0.00  0.00    +0.018 A 
ATOM     34  C   UNL     1      -2.991  -3.535   6.126  0.00  0.00    +0.012 A 
ATOM     35  C   UNL     1      -4.108  -3.946   6.777  0.00  0.00    +0.009 A 
ATOM     36  C   UNL     1      -4.965  -3.002   7.373  0.00  0.00    -0.018 A 
ATOM     37  C   UNL     1      -6.127  -3.405   8.051  0.00  0.00    +0.008 A 
ATOM     38  C   UNL     1      -6.937  -2.470   8.618  0.00  0.00    +0.001 A 
ATOM     39  C   UNL     1      -6.633  -1.112   8.537  0.00  0.00    +0.001 A 
ATOM     40  C   UNL     1      -5.516  -0.683   7.888  0.00  0.00    +0.008 A 
ATOM     41  C   UNL     1      -4.655  -1.621   7.290  0.00  0.00    -0.017 A 
ATOM     42  C   UNL     1      -3.493  -1.212   6.619  0.00  0.00    +0.020 A 
ENDBRANCH  31  33
ENDBRANCH  22  31
TORSDOF 2
