REMARK  Name = ZINC35894735
REMARK  9 active torsions:
REMARK  status: ('A' for Active; 'I' for Inactive)
REMARK    1  A    between atoms: C_1  and  C_2
REMARK    2  A    between atoms: C_2  and  C_3
REMARK    3  A    between atoms: C_2  and  C_4
REMARK    4  A    between atoms: C_4  and  C_5
REMARK    5  A    between atoms: C_5  and  N_6
REMARK    6  A    between atoms: C_7  and  C_9
REMARK    7  A    between atoms: C_14  and  N_33
REMARK    8  A    between atoms: N_22  and  C_25
REMARK    9  A    between atoms: C_25  and  C_26
REMARK                            x       y       z     vdW  Elec       q    Type
REMARK                         _______ _______ _______ _____ _____    ______ ____
ROOT
ATOM      1  C   UNL     1      -5.737  -0.925  -2.313  0.00  0.00    +0.098 C 
ATOM      2  C   UNL     1      -6.442  -0.372  -1.093  0.00  0.00    +0.051 C 
ATOM      3  C   UNL     1      -6.845   1.062  -1.276  0.00  0.00    -0.023 A 
ATOM      4  C   UNL     1      -6.925   1.899  -0.177  0.00  0.00    +0.038 A 
ATOM      5  C   UNL     1      -7.298   3.220  -0.335  0.00  0.00    +0.127 A 
ATOM      6  C   UNL     1      -7.593   3.712  -1.594  0.00  0.00    +0.034 A 
ATOM      7  C   UNL     1      -7.513   2.883  -2.695  0.00  0.00    +0.025 A 
ATOM      8  C   UNL     1      -7.137   1.554  -2.539  0.00  0.00    +0.033 A 
ATOM      9  N   UNL     1      -7.047   0.725  -3.650  0.00  0.00    -0.329 N 
ATOM     10  C   UNL     1      -6.385  -0.569  -3.623  0.00  0.00    +0.069 C 
ATOM     11  C   UNL     1      -7.373  -1.639  -4.090  0.00  0.00    -0.055 C 
ATOM     12  N   UNL     1      -7.897  -1.260  -5.411  0.00  0.00    +0.385 N 
ATOM     13  C   UNL     1      -8.636   0.004  -5.329  0.00  0.00    -0.059 C 
ATOM     14  C   UNL     1      -7.683   1.129  -4.920  0.00  0.00    +0.087 C 
ATOM     15  H   UNL     1      -7.129  -1.156  -6.056  0.00  0.00    -0.081 HD
ENDROOT
BRANCH   1  17
ATOM     16  N   UNL     1      -3.510  -0.638  -1.275  0.00  0.00    -0.315 N 
ATOM     17  C   UNL     1      -4.323  -0.403  -2.324  0.00  0.00    +0.218 C 
ATOM     18  O   UNL     1      -3.916   0.228  -3.277  0.00  0.00    -0.275 OA
ATOM     19  H   UNL     1      -3.834  -1.143  -0.513  0.00  0.00    +0.149 HD
BRANCH  16  20
ATOM     20  C   UNL     1      -2.135  -0.131  -1.286  0.00  0.00    +0.104 C 
BRANCH  20  21
ATOM     21  C   UNL     1      -1.433  -0.534   0.013  0.00  0.00    +0.022 C 
BRANCH  21  23
ATOM     22  C   UNL     1      -0.019   1.526   0.010  0.00  0.00    +0.007 C 
ATOM     23  C   UNL     1       0.002  -0.004   0.002  0.00  0.00    -0.016 C 
ATOM     24  C   UNL     1       0.742  -0.511   1.242  0.00  0.00    +0.007 C 
ENDBRANCH  21  23
ENDBRANCH  20  21
ENDBRANCH  16  20
ENDBRANCH   1  17
BRANCH   5  25
ATOM     25  N   UNL     1      -7.382   4.110   0.844  0.00  0.00    +0.056 N 
ATOM     26  O   UNL     1      -7.124   3.682   1.945  0.00  0.00    -0.126 OA
ATOM     27  O   UNL     1      -7.708   5.266   0.707  0.00  0.00    -0.126 OA
ENDBRANCH   5  25
BRANCH  12  28
ATOM     28  C   UNL     1      -8.796  -2.316  -5.896  0.00  0.00    -0.043 C 
BRANCH  28  29
ATOM     29  C   UNL     1      -9.239  -1.993  -7.300  0.00  0.00    -0.064 A 
ATOM     30  C   UNL     1     -10.379  -1.239  -7.508  0.00  0.00    +0.003 A 
ATOM     31  C   UNL     1     -10.786  -0.942  -8.795  0.00  0.00    +0.020 A 
ATOM     32  C   UNL     1     -10.052  -1.399  -9.875  0.00  0.00    +0.041 A 
ATOM     33  C   UNL     1      -8.911  -2.153  -9.666  0.00  0.00    +0.020 A 
ATOM     34  C   UNL     1      -8.502  -2.445  -8.378  0.00  0.00    +0.003 A 
ATOM     35 CL   UNL     1     -10.562  -1.027 -11.492  0.00  0.00    -0.084 Cl
ENDBRANCH  28  29
ENDBRANCH  12  28
TORSDOF 7
