REMARK  Name = ZINC09307043
REMARK  4 active torsions:
REMARK  status: ('A' for Active; 'I' for Inactive)
REMARK    1  A    between atoms: C_1  and  C_2
REMARK    2  A    between atoms: C_4  and  C_37
REMARK    3  A    between atoms: N_20  and  C_23
REMARK    4  A    between atoms: C_25  and  C_30
REMARK                            x       y       z     vdW  Elec       q    Type
REMARK                         _______ _______ _______ _____ _____    ______ ____
ROOT
ATOM      1  C   UNL     1      -1.331   2.116   0.020  0.00  0.00    +0.044 C 
ATOM      2  C   UNL     1      -0.017   1.379   0.010  0.00  0.00    -0.050 A 
ATOM      3  C   UNL     1       0.002  -0.004   0.002  0.00  0.00    +0.008 A 
ATOM      4  C   UNL     1       1.202  -0.684  -0.013  0.00  0.00    -0.029 A 
ATOM      5  C   UNL     1       2.405   0.017  -0.020  0.00  0.00    +0.039 A 
ATOM      6  C   UNL     1       2.374   1.408  -0.013  0.00  0.00    -0.027 A 
ATOM      7  C   UNL     1       1.174   2.084   0.002  0.00  0.00    +0.008 A 
ATOM      8  C   UNL     1       3.810   1.853  -0.024  0.00  0.00    +0.053 C 
ATOM      9  C   UNL     1       4.139   2.709   1.205  0.00  0.00    +0.089 C 
ATOM     10  C   UNL     1       5.142   3.775   0.685  0.00  0.00    +0.074 C 
ATOM     11  C   UNL     1       5.323   3.462  -0.812  0.00  0.00    -0.054 C 
ATOM     12  C   UNL     1       3.046   3.711  -1.369  0.00  0.00    -0.076 C 
ATOM     13  C   UNL     1       3.754   4.926  -2.000  0.00  0.00    -0.020 C 
ATOM     14  C   UNL     1       5.239   4.771  -1.619  0.00  0.00    -0.016 C 
ATOM     15  C   UNL     1       4.382   5.073   0.838  0.00  0.00    +0.228 C 
ATOM     16  O   UNL     1       4.805   6.170   0.544  0.00  0.00    -0.275 OA
ATOM     17  N   UNL     1       3.171   4.822   1.348  0.00  0.00    -0.209 N 
ATOM     18  C   UNL     1       2.929   3.529   1.593  0.00  0.00    +0.229 C 
ATOM     19  O   UNL     1       1.900   3.084   2.056  0.00  0.00    -0.275 OA
ATOM     20  C   UNL     1       4.612   0.580  -0.037  0.00  0.00    +0.212 C 
ATOM     21  O   UNL     1       5.821   0.486  -0.048  0.00  0.00    -0.277 OA
ATOM     22  N   UNL     1       3.726  -0.435  -0.034  0.00  0.00    -0.286 N 
ATOM     23  C   UNL     1       1.211  -2.191  -0.020  0.00  0.00    +0.045 C 
ATOM     24  H   UNL     1       3.977  -1.372  -0.041  0.00  0.00    +0.155 HD
ATOM     25  N   UNL     1       4.128   2.726  -1.157  0.00  0.00    +0.395 N 
ATOM     26  H   UNL     1       4.272   2.169  -2.007  0.00  0.00    -0.079 HD
ENDROOT
BRANCH  17  27
ATOM     27  C   UNL     1       2.232   5.831   1.606  0.00  0.00    +0.063 A 
ATOM     28  C   UNL     1       1.325   6.204   0.624  0.00  0.00    +0.037 A 
ATOM     29  C   UNL     1       0.402   7.199   0.880  0.00  0.00    +0.057 A 
ATOM     30  C   UNL     1       0.379   7.823   2.114  0.00  0.00    +0.014 A 
ATOM     31  C   UNL     1       1.281   7.454   3.095  0.00  0.00    +0.022 A 
ATOM     32  C   UNL     1       2.205   6.456   2.846  0.00  0.00    +0.063 A 
ATOM     33 CL   UNL     1       3.333   5.989   4.080  0.00  0.00    -0.082 Cl
BRANCH  29  34
ATOM     34  C   UNL     1      -0.583   7.604  -0.186  0.00  0.00    +0.417 C 
ATOM     35  F   UNL     1      -1.739   6.825  -0.074  0.00  0.00    -0.166 F 
ATOM     36  F   UNL     1      -0.914   8.954  -0.027  0.00  0.00    -0.166 F 
ATOM     37  F   UNL     1      -0.010   7.410  -1.448  0.00  0.00    -0.166 F 
ENDBRANCH  29  34
ENDBRANCH  17  27
TORSDOF 2
