REMARK  Name = ZINC39661404
REMARK  5 active torsions:
REMARK  status: ('A' for Active; 'I' for Inactive)
REMARK    1  A    between atoms: C_1  and  C_2
REMARK    2  A    between atoms: C_5  and  C_12
REMARK    3  A    between atoms: N_9  and  C_11
REMARK    4  A    between atoms: C_16  and  C_25
REMARK    5  A    between atoms: N_27  and  C_28
REMARK                            x       y       z     vdW  Elec       q    Type
REMARK                         _______ _______ _______ _____ _____    ______ ____
ROOT
ATOM      1  C   UNL     1      -0.074  -1.609  -4.692  0.00  0.00    +0.250 C 
ATOM      2  O   UNL     1      -0.116  -0.471  -5.119  0.00  0.00    -0.270 OA
ATOM      3  N   UNL     1       0.089  -2.641  -5.543  0.00  0.00    -0.296 N 
ATOM      4  C   UNL     1       0.059  -4.089  -5.230  0.00  0.00    +0.121 C 
ATOM      5  C   UNL     1      -0.686  -4.731  -6.421  0.00  0.00    +0.100 C 
ATOM      6  C   UNL     1      -0.497  -3.740  -7.582  0.00  0.00    -0.004 C 
ATOM      7  C   UNL     1       0.333  -2.585  -7.004  0.00  0.00    +0.115 C 
ATOM      8  C   UNL     1      -1.850  -3.221  -8.060  0.00  0.00    -0.010 C 
ATOM      9  C   UNL     1      -1.639  -2.282  -9.251  0.00  0.00    -0.082 C 
ATOM     10  N   UNL     1      -0.960  -3.006 -10.333  0.00  0.00    +0.379 N 
ATOM     11  C   UNL     1       0.378  -3.421  -9.895  0.00  0.00    -0.082 C 
ATOM     12  C   UNL     1       0.253  -4.408  -8.731  0.00  0.00    -0.010 C 
ATOM     13  H   UNL     1      -1.500  -3.822 -10.581  0.00  0.00    -0.086 HD
ATOM     14  H   UNL     1      -0.877  -2.404 -11.138  0.00  0.00    -0.086 HD
ENDROOT
BRANCH   1  19
ATOM     15  C   UNL     1      -2.809   0.405  -0.050  0.00  0.00    +0.068 C 
ATOM     16  C   UNL     1      -1.861  -0.764   0.023  0.00  0.00    +0.071 A 
ATOM     17  C   UNL     1      -1.123  -1.347  -1.092  0.00  0.00    +0.060 A 
ATOM     18  C   UNL     1      -1.040  -1.063  -2.459  0.00  0.00    +0.067 A 
ATOM     19  C   UNL     1      -0.202  -1.859  -3.244  0.00  0.00    +0.074 A 
ATOM     20  C   UNL     1       0.515  -2.899  -2.637  0.00  0.00    +0.127 A 
ATOM     21  N   UNL     1       0.415  -3.139  -1.351  0.00  0.00    -0.235 NA
ATOM     22  C   UNL     1      -0.368  -2.411  -0.559  0.00  0.00    +0.160 A 
ATOM     23  N   UNL     1      -0.643  -2.452   0.778  0.00  0.00    -0.249 N 
ATOM     24  N   UNL     1      -1.549  -1.435   1.095  0.00  0.00    -0.174 NA
ATOM     25  C   UNL     1      -0.075  -3.408   1.732  0.00  0.00    +0.174 C 
ATOM     26 CL   UNL     1      -1.952   0.238  -3.160  0.00  0.00    -0.082 Cl
ENDBRANCH   1  19
BRANCH   5  27
ATOM     27  C   UNL     1      -0.078  -6.066  -6.764  0.00  0.00    +0.219 C 
ATOM     28  O   UNL     1       1.105  -6.260  -6.576  0.00  0.00    -0.275 OA
ATOM     29  N   UNL     1      -0.847  -7.046  -7.278  0.00  0.00    -0.304 N 
ATOM     30  H   UNL     1      -1.793  -6.891  -7.428  0.00  0.00    +0.149 HD
BRANCH  29  31
ATOM     31  C   UNL     1      -0.256  -8.344  -7.611  0.00  0.00    +0.151 C 
ATOM     32  C   UNL     1      -1.075  -8.993  -8.727  0.00  0.00    +0.042 C 
ATOM     33  C   UNL     1      -0.831 -10.519  -8.665  0.00  0.00    +0.079 C 
ATOM     34  S   UNL     1      -0.505 -10.771  -6.877  0.00  0.00    -0.086 S 
ATOM     35  C   UNL     1      -0.219  -9.200  -6.367  0.00  0.00    +0.209 C 
ATOM     36  O   UNL     1      -0.021  -8.828  -5.229  0.00  0.00    -0.283 OA
ENDBRANCH  29  31
ENDBRANCH   5  27
TORSDOF 3
