REMARK  Name = ZINC10150942
REMARK  9 active torsions:
REMARK  status: ('A' for Active; 'I' for Inactive)
REMARK    1  A    between atoms: C_1  and  C_2
REMARK    2  A    between atoms: C_5  and  O_9
REMARK    3  A    between atoms: C_7  and  C_8
REMARK    4  A    between atoms: O_9  and  C_10
REMARK    5  A    between atoms: C_10  and  C_12
REMARK    6  A    between atoms: C_10  and  C_13
REMARK    7  A    between atoms: N_15  and  N_16
REMARK    8  A    between atoms: C_17  and  C_18
REMARK    9  A    between atoms: C_23  and  O_24
REMARK                            x       y       z     vdW  Elec       q    Type
REMARK                         _______ _______ _______ _____ _____    ______ ____
ROOT
ATOM      1  C   UNL     1      -1.180   1.788   0.181  0.00  0.00    +0.273 C 
ATOM      2  O   UNL     1      -1.277   2.983  -0.004  0.00  0.00    -0.270 OA
ATOM      3  N   UNL     1       0.035   1.228   0.346  0.00  0.00    -0.204 N 
ATOM      4  H   UNL     1       0.112   0.273   0.494  0.00  0.00    +0.177 HD
ENDROOT
BRANCH   1   5
ATOM      5  C   UNL     1      -2.418   0.930   0.228  0.00  0.00    +0.257 C 
ATOM      6  C   UNL     1      -2.406  -0.047  -0.950  0.00  0.00    +0.062 C 
BRANCH   5   7
ATOM      7  O   UNL     1      -3.578   1.761   0.146  0.00  0.00    -0.480 OA
BRANCH   7  12
ATOM      8  C   UNL     1      -8.345  -0.274   2.349  0.00  0.00    +0.044 C 
ATOM      9  C   UNL     1      -7.069   0.271   1.760  0.00  0.00    -0.047 A 
ATOM     10  C   UNL     1      -5.940  -0.526   1.703  0.00  0.00    +0.007 A 
ATOM     11  C   UNL     1      -4.770  -0.029   1.163  0.00  0.00    +0.046 A 
ATOM     12  C   UNL     1      -4.728   1.270   0.677  0.00  0.00    +0.122 A 
ATOM     13  C   UNL     1      -5.861   2.068   0.740  0.00  0.00    +0.049 A 
ATOM     14  C   UNL     1      -7.030   1.565   1.276  0.00  0.00    -0.044 A 
ATOM     15  C   UNL     1      -8.262   2.430   1.340  0.00  0.00    +0.044 C 
ENDBRANCH   7  12
ENDBRANCH   5   7
ENDBRANCH   1   5
BRANCH   3  16
ATOM     16  N   UNL     1       1.186   2.025   0.296  0.00  0.00    -0.188 NA
ATOM     17  C   UNL     1       2.356   1.485   0.449  0.00  0.00    +0.142 C 
BRANCH  17  18
ATOM     18  C   UNL     1       3.567   2.323   0.397  0.00  0.00    +0.037 A 
ATOM     19  C   UNL     1       4.828   1.747   0.567  0.00  0.00    +0.028 A 
ATOM     20  C   UNL     1       5.958   2.537   0.512  0.00  0.00    +0.019 A 
ATOM     21  C   UNL     1       5.846   3.901   0.301  0.00  0.00    +0.019 A 
ATOM     22  C   UNL     1       4.604   4.483   0.137  0.00  0.00    +0.047 A 
ATOM     23  C   UNL     1       3.459   3.704   0.183  0.00  0.00    +0.126 A 
ATOM     24 BR   UNL     1       7.665   1.754   0.735  0.00  0.00    -0.050 Br
BRANCH  23  25
ATOM     25  O   UNL     1       2.238   4.276   0.023  0.00  0.00    -0.506 OA
ATOM     26  H   UNL     1       1.831   4.572   0.848  0.00  0.00    +0.292 HD
ENDBRANCH  23  25
ENDBRANCH  17  18
ENDBRANCH   3  16
TORSDOF 6
