REMARK  Name = ZINC56788799
REMARK  9 active torsions:
REMARK  status: ('A' for Active; 'I' for Inactive)
REMARK    1  A    between atoms: C_1  and  C_2
REMARK    2  A    between atoms: N_7  and  C_9
REMARK    3  A    between atoms: C_9  and  C_10
REMARK    4  A    between atoms: C_10  and  C_12
REMARK    5  A    between atoms: C_10  and  N_13
REMARK    6  A    between atoms: N_16  and  C_17
REMARK    7  A    between atoms: C_17  and  C_18
REMARK    8  A    between atoms: C_18  and  C_19
REMARK    9  A    between atoms: N_21  and  C_22
REMARK                            x       y       z     vdW  Elec       q    Type
REMARK                         _______ _______ _______ _____ _____    ______ ____
ROOT
ATOM      1  N   UNL     1      -0.082  -4.397   2.396  0.00  0.00    -0.299 N 
ATOM      2  C   UNL     1      -0.388  -5.622   1.923  0.00  0.00    +0.300 C 
ATOM      3  O   UNL     1       0.499  -6.388   1.599  0.00  0.00    -0.253 OA
ATOM      4  N   UNL     1      -1.677  -5.997   1.810  0.00  0.00    -0.299 N 
ATOM      5  H   UNL     1      -0.789  -3.786   2.655  0.00  0.00    +0.150 HD
ATOM      6  H   UNL     1      -2.385  -5.386   2.069  0.00  0.00    +0.150 HD
ENDROOT
BRANCH   1   7
ATOM      7  C   UNL     1       1.320  -3.989   2.519  0.00  0.00    +0.055 C 
ATOM      8  C   UNL     1       1.879  -4.484   3.854  0.00  0.00    +0.026 C 
BRANCH   7   9
ATOM      9  C   UNL     1       1.413  -2.463   2.461  0.00  0.00    -0.057 C 
BRANCH   9  15
ATOM     10  C   UNL     1      -0.019   1.526   0.010  0.00  0.00    +0.005 C 
ATOM     11  C   UNL     1       0.002  -0.004   0.002  0.00  0.00    -0.031 C 
ATOM     12  C   UNL     1       0.721  -0.499  -1.257  0.00  0.00    -0.001 C 
ATOM     13  C   UNL     1       0.805  -2.027  -1.217  0.00  0.00    -0.018 C 
ATOM     14  C   UNL     1       1.518  -2.460   0.066  0.00  0.00    -0.079 C 
ATOM     15  N   UNL     1       0.768  -1.979   1.233  0.00  0.00    +0.381 N 
ATOM     16  C   UNL     1       0.744  -0.512   1.240  0.00  0.00    -0.076 C 
ATOM     17  H   UNL     1      -0.177  -2.330   1.192  0.00  0.00    -0.082 HD
ENDBRANCH   9  15
ENDBRANCH   7   9
ENDBRANCH   1   7
BRANCH   4  18
ATOM     18  C   UNL     1      -2.010  -7.328   1.296  0.00  0.00    +0.115 C 
BRANCH  18  19
ATOM     19  C   UNL     1      -3.531  -7.499   1.269  0.00  0.00    +0.114 C 
BRANCH  19  20
ATOM     20  C   UNL     1      -3.873  -8.868   0.741  0.00  0.00    +0.215 C 
ATOM     21  O   UNL     1      -2.988  -9.632   0.417  0.00  0.00    -0.276 OA
ATOM     22  N   UNL     1      -5.162  -9.243   0.627  0.00  0.00    -0.312 N 
ATOM     23  H   UNL     1      -5.870  -8.633   0.886  0.00  0.00    +0.149 HD
BRANCH  22  24
ATOM     24  C   UNL     1      -5.495 -10.575   0.114  0.00  0.00    +0.073 C 
ATOM     25  C   UNL     1      -5.524 -10.538  -1.416  0.00  0.00    +0.022 C 
ATOM     26  C   UNL     1      -5.872 -11.928  -1.952  0.00  0.00    +0.002 C 
ATOM     27  C   UNL     1      -7.245 -12.349  -1.426  0.00  0.00    +0.000 C 
ATOM     28  C   UNL     1      -7.217 -12.385   0.103  0.00  0.00    +0.002 C 
ATOM     29  C   UNL     1      -6.869 -10.995   0.640  0.00  0.00    +0.022 C 
ENDBRANCH  22  24
ENDBRANCH  19  20
ENDBRANCH  18  19
ENDBRANCH   4  18
TORSDOF 7
