REMARK  Name = ZINC33666341
REMARK  14 active torsions:
REMARK  status: ('A' for Active; 'I' for Inactive)
REMARK    1  A    between atoms: C_1  and  C_2
REMARK    2  A    between atoms: C_2  and  N_3
REMARK    3  A    between atoms: N_3  and  C_4
REMARK    4  A    between atoms: N_3  and  C_6
REMARK    5  A    between atoms: C_4  and  C_5
REMARK    6  A    between atoms: C_6  and  C_7
REMARK    7  A    between atoms: C_7  and  C_8
REMARK    8  A    between atoms: C_8  and  C_9
REMARK    9  A    between atoms: C_9  and  C_11
REMARK   10  A    between atoms: C_9  and  N_12
REMARK   11  A    between atoms: C_13  and  C_15
REMARK   12  A    between atoms: C_15  and  S_16
REMARK   13  A    between atoms: S_16  and  C_17
REMARK   14  A    between atoms: N_27  and  C_28
REMARK                            x       y       z     vdW  Elec       q    Type
REMARK                         _______ _______ _______ _____ _____    ______ ____
ROOT
ATOM      1  C   UNL     1       0.770  -1.804  -0.396  0.00  0.00    +0.177 A 
ATOM      2  N   UNL     1       0.970  -0.515  -0.268  0.00  0.00    -0.223 NA
ATOM      3  C   UNL     1       2.167  -0.020   0.125  0.00  0.00    +0.079 A 
ATOM      4  C   UNL     1       2.382   1.354   0.263  0.00  0.00    +0.028 A 
ATOM      5  C   UNL     1       3.607   1.810   0.662  0.00  0.00    +0.002 A 
ATOM      6  C   UNL     1       4.644   0.927   0.934  0.00  0.00    +0.001 A 
ATOM      7  C   UNL     1       4.464  -0.422   0.809  0.00  0.00    +0.015 A 
ATOM      8  C   UNL     1       3.225  -0.916   0.404  0.00  0.00    +0.065 A 
ATOM      9  C   UNL     1       2.974  -2.355   0.252  0.00  0.00    +0.267 A 
ATOM     10  O   UNL     1       3.846  -3.174   0.476  0.00  0.00    -0.267 OA
ATOM     11  N   UNL     1       1.739  -2.737  -0.147  0.00  0.00    -0.255 N 
ENDROOT
BRANCH  11  12
ATOM     12  C   UNL     1       1.450  -4.098  -0.307  0.00  0.00    +0.055 A 
ATOM     13  C   UNL     1       0.951  -4.833   0.760  0.00  0.00    +0.026 A 
ATOM     14  C   UNL     1       0.661  -6.174   0.599  0.00  0.00    +0.005 A 
ATOM     15  C   UNL     1       0.877  -6.788  -0.621  0.00  0.00    +0.038 A 
ATOM     16  C   UNL     1       1.380  -6.060  -1.686  0.00  0.00    +0.125 A 
ATOM     17  C   UNL     1       1.667  -4.715  -1.531  0.00  0.00    +0.064 A 
ATOM     18  F   UNL     1       1.591  -6.663  -2.877  0.00  0.00    -0.205 F 
ENDBRANCH  11  12
BRANCH   1  19
ATOM     19  S   UNL     1      -0.820  -2.360  -0.913  0.00  0.00    -0.078 S 
BRANCH  19  20
ATOM     20  C   UNL     1      -1.667  -0.770  -1.090  0.00  0.00    +0.173 C 
BRANCH  20  22
ATOM     21  N   UNL     1      -3.912   0.042  -1.737  0.00  0.00    -0.312 N 
ATOM     22  C   UNL     1      -3.087  -1.005  -1.538  0.00  0.00    +0.224 C 
ATOM     23  O   UNL     1      -3.487  -2.135  -1.719  0.00  0.00    -0.275 OA
ATOM     24  H   UNL     1      -3.550   1.067  -1.572  0.00  0.00    +0.149 HD
BRANCH  21  25
ATOM     25  C   UNL     1      -5.293  -0.186  -2.172  0.00  0.00    +0.070 C 
ATOM     26  C   UNL     1      -6.173  -0.461  -0.951  0.00  0.00    +0.028 C 
BRANCH  25  27
ATOM     27  C   UNL     1      -5.808   1.054  -2.904  0.00  0.00    +0.020 C 
BRANCH  27  28
ATOM     28  C   UNL     1      -5.006   1.257  -4.191  0.00  0.00    -0.017 C 
BRANCH  28  29
ATOM     29  C   UNL     1      -5.521   2.497  -4.923  0.00  0.00    -0.079 C 
BRANCH  29  30
ATOM     30  N   UNL     1      -4.751   2.692  -6.159  0.00  0.00    +0.379 N 
ATOM     31  H   UNL     1      -3.683   2.679  -5.897  0.00  0.00    -0.082 HD
BRANCH  30  33
ATOM     32  C   UNL     1      -6.494   1.504  -7.404  0.00  0.00    -0.017 C 
ATOM     33  C   UNL     1      -4.996   1.598  -7.109  0.00  0.00    -0.082 C 
ENDBRANCH  30  33
BRANCH  30  34
ATOM     34  C   UNL     1      -5.052   3.994  -6.768  0.00  0.00    -0.082 C 
ATOM     35  C   UNL     1      -3.973   4.338  -7.796  0.00  0.00    -0.017 C 
ENDBRANCH  30  34
ENDBRANCH  29  30
ENDBRANCH  28  29
ENDBRANCH  27  28
ENDBRANCH  25  27
ENDBRANCH  21  25
ENDBRANCH  20  22
ENDBRANCH  19  20
ENDBRANCH   1  19
TORSDOF 11
