REMARK  Name = ZINC36061447
REMARK  14 active torsions:
REMARK  status: ('A' for Active; 'I' for Inactive)
REMARK    1  A    between atoms: C_1  and  C_2
REMARK    2  A    between atoms: C_3  and  C_31
REMARK    3  A    between atoms: C_4  and  C_23
REMARK    4  A    between atoms: C_7  and  C_12
REMARK    5  A    between atoms: C_13  and  N_15
REMARK    6  A    between atoms: N_15  and  C_16
REMARK    7  A    between atoms: C_16  and  C_17
REMARK    8  A    between atoms: C_28  and  O_29
REMARK    9  A    between atoms: O_29  and  C_30
REMARK   10  A    between atoms: C_31  and  O_33
REMARK   11  A    between atoms: O_33  and  C_34
REMARK   12  A    between atoms: C_34  and  C_35
REMARK   13  A    between atoms: C_34  and  C_36
REMARK   14  A    between atoms: C_34  and  C_37
REMARK                            x       y       z     vdW  Elec       q    Type
REMARK                         _______ _______ _______ _____ _____    ______ ____
ROOT
ATOM      1  C   UNL     1       0.577   1.370  -0.271  0.00  0.00    +0.066 C 
ATOM      2  C   UNL     1       0.334  -0.101  -0.051  0.00  0.00    +0.053 C 
ATOM      3  C   UNL     1      -0.952  -0.601  -0.113  0.00  0.00    +0.083 C 
ATOM      4  C   UNL     1      -1.144  -2.084   0.114  0.00  0.00    +0.153 C 
ATOM      5  N   UNL     1       0.075  -2.890   0.388  0.00  0.00    -0.267 N 
ATOM      6  C   UNL     1       0.138  -4.249   0.623  0.00  0.00    +0.048 C 
ATOM      7  C   UNL     1       1.355  -4.790   0.851  0.00  0.00    +0.072 C 
ATOM      8  S   UNL     1       2.420  -3.367   0.733  0.00  0.00    -0.060 S 
ATOM      9  C   UNL     1       1.256  -2.202   0.406  0.00  0.00    +0.166 C 
ATOM     10  N   UNL     1       1.355  -0.906   0.195  0.00  0.00    -0.230 NA
ENDROOT
BRANCH   4  11
ATOM     11  C   UNL     1      -1.814  -2.658  -1.108  0.00  0.00    +0.020 A 
ATOM     12  C   UNL     1      -3.146  -3.021  -1.060  0.00  0.00    +0.009 A 
ATOM     13  C   UNL     1      -3.761  -3.548  -2.180  0.00  0.00    +0.001 A 
ATOM     14  C   UNL     1      -3.045  -3.712  -3.352  0.00  0.00    +0.004 A 
ATOM     15  C   UNL     1      -1.713  -3.350  -3.405  0.00  0.00    +0.046 A 
ATOM     16  C   UNL     1      -1.095  -2.816  -2.284  0.00  0.00    +0.125 A 
BRANCH  16  17
ATOM     17  O   UNL     1       0.214  -2.454  -2.335  0.00  0.00    -0.495 OA
ATOM     18  C   UNL     1       0.863  -2.546  -3.605  0.00  0.00    +0.277 C 
ENDBRANCH  16  17
ENDBRANCH   4  11
BRANCH   6  19
ATOM     19  C   UNL     1      -1.076  -5.078   0.624  0.00  0.00    +0.091 C 
ATOM     20  C   UNL     1      -1.006  -6.374   0.982  0.00  0.00    +0.239 C 
ATOM     21  O   UNL     1       0.198  -6.944   1.230  0.00  0.00    -0.271 OA
BRANCH  20  22
ATOM     22  N   UNL     1      -2.164  -7.125   1.095  0.00  0.00    -0.309 N 
ATOM     23  H   UNL     1      -3.026  -6.717   0.917  0.00  0.00    +0.149 HD
BRANCH  22  24
ATOM     24  C   UNL     1      -2.088  -8.535   1.484  0.00  0.00    +0.136 C 
BRANCH  24  25
ATOM     25  C   UNL     1      -3.498  -9.127   1.534  0.00  0.00    +0.135 C 
ATOM     26  C   UNL     1      -3.443 -10.611   1.978  0.00  0.00    +0.035 C 
ATOM     27  C   UNL     1      -4.866 -10.794   2.572  0.00  0.00    +0.031 C 
ATOM     28  C   UNL     1      -5.146  -9.406   3.185  0.00  0.00    +0.160 C 
ATOM     29  O   UNL     1      -4.282  -8.463   2.538  0.00  0.00    -0.375 OA
ENDBRANCH  24  25
ENDBRANCH  22  24
ENDBRANCH  20  22
ENDBRANCH   6  19
BRANCH   3  30
ATOM     30  C   UNL     1      -2.042   0.237  -0.377  0.00  0.00    +0.340 C 
ATOM     31  O   UNL     1      -1.875   1.440  -0.482  0.00  0.00    -0.245 OA
BRANCH  30  32
ATOM     32  O   UNL     1      -3.280  -0.287  -0.515  0.00  0.00    -0.456 OA
BRANCH  32  33
ATOM     33  C   UNL     1      -4.335   0.619  -0.843  0.00  0.00    +0.106 C 
ATOM     34  C   UNL     1      -4.011   1.326  -2.160  0.00  0.00    +0.055 C 
ATOM     35  C   UNL     1      -5.646  -0.157  -0.990  0.00  0.00    +0.055 C 
ATOM     36  C   UNL     1      -4.480   1.658   0.272  0.00  0.00    +0.055 C 
ENDBRANCH  32  33
ENDBRANCH  30  32
ENDBRANCH   3  30
TORSDOF 9
