REMARK  Name = ZINC12445657
REMARK  5 active torsions:
REMARK  status: ('A' for Active; 'I' for Inactive)
REMARK    1  A    between atoms: C_1  and  C_2
REMARK    2  A    between atoms: C_4  and  C_29
REMARK    3  A    between atoms: C_20  and  C_23
REMARK    4  A    between atoms: C_29  and  O_30
REMARK    5  A    between atoms: O_30  and  C_31
REMARK                            x       y       z     vdW  Elec       q    Type
REMARK                         _______ _______ _______ _____ _____    ______ ____
ROOT
ATOM      1  C   UNL     1      -0.018   1.503   0.010  0.00  0.00    +0.065 C 
ATOM      2  C   UNL     1       0.002  -0.004   0.002  0.00  0.00    +0.040 A 
ATOM      3  C   UNL     1       0.005  -0.666  -1.213  0.00  0.00    +0.029 A 
ATOM      4  C   UNL     1       0.024  -2.046  -1.298  0.00  0.00    -0.009 A 
ATOM      5  C   UNL     1       0.041  -2.744  -0.062  0.00  0.00    +0.035 A 
ATOM      6  C   UNL     1       0.070  -4.179   0.120  0.00  0.00    +0.057 A 
ATOM      7  C   UNL     1       0.068  -4.626   1.432  0.00  0.00    +0.078 A 
ATOM      8  S   UNL     1       0.057  -3.171   2.424  0.00  0.00    -0.064 S 
ATOM      9  C   UNL     1       0.035  -1.965   1.130  0.00  0.00    +0.111 A 
ATOM     10  N   UNL     1       0.022  -0.652   1.160  0.00  0.00    -0.245 NA
ATOM     11  C   UNL     1       0.059  -6.041   1.752  0.00  0.00    +0.152 A 
ATOM     12  N   UNL     1       0.204  -6.694   2.871  0.00  0.00    -0.227 NA
ATOM     13  C   UNL     1       0.162  -8.017   2.627  0.00  0.00    +0.090 A 
ATOM     14  C   UNL     1       0.282  -9.123   3.478  0.00  0.00    +0.030 A 
ATOM     15  C   UNL     1       0.201 -10.375   2.897  0.00  0.00    +0.002 A 
ATOM     16  C   UNL     1       0.010 -10.540   1.536  0.00  0.00    +0.002 A 
ATOM     17  C   UNL     1      -0.115  -9.462   0.674  0.00  0.00    +0.028 A 
ATOM     18  C   UNL     1      -0.042  -8.191   1.233  0.00  0.00    +0.071 A 
ATOM     19  N   UNL     1      -0.134  -6.942   0.701  0.00  0.00    -0.297 N 
ATOM     20  C   UNL     1      -0.412  -6.497  -0.666  0.00  0.00    +0.242 C 
ATOM     21  N   UNL     1       0.121  -5.151  -0.907  0.00  0.00    -0.316 N 
ATOM     22  H   UNL     1       0.508  -4.928  -1.768  0.00  0.00    +0.148 HD
ENDROOT
BRANCH  20  23
ATOM     23  C   UNL     1      -1.903  -6.483  -0.886  0.00  0.00    +0.147 A 
ATOM     24  C   UNL     1      -2.614  -7.436  -1.514  0.00  0.00    +0.050 A 
ATOM     25  C   UNL     1      -3.965  -7.020  -1.495  0.00  0.00    +0.057 A 
ATOM     26  C   UNL     1      -3.999  -5.835  -0.856  0.00  0.00    +0.170 A 
ATOM     27  O   UNL     1      -2.748  -5.518  -0.484  0.00  0.00    -0.449 OA
ATOM     28 BR   UNL     1      -5.546  -4.798  -0.529  0.00  0.00    -0.008 Br
ENDBRANCH  20  23
BRANCH   4  29
ATOM     29  C   UNL     1       0.027  -2.765  -2.622  0.00  0.00    +0.195 C 
BRANCH  29  30
ATOM     30  O   UNL     1       0.007  -1.809  -3.684  0.00  0.00    -0.378 OA
ATOM     31  C   UNL     1       0.008  -2.389  -4.990  0.00  0.00    +0.194 C 
ENDBRANCH  29  30
ENDBRANCH   4  29
TORSDOF 3
