REMARK  Name = ZINC13388262
REMARK  8 active torsions:
REMARK  status: ('A' for Active; 'I' for Inactive)
REMARK    1  A    between atoms: C_1  and  C_2
REMARK    2  A    between atoms: C_8  and  N_10
REMARK    3  A    between atoms: N_10  and  C_11
REMARK    4  A    between atoms: N_16  and  C_19
REMARK    5  A    between atoms: C_22  and  N_25
REMARK    6  A    between atoms: C_29  and  N_33
REMARK    7  A    between atoms: N_33  and  C_34
REMARK    8  A    between atoms: C_40  and  C_42
REMARK                            x       y       z     vdW  Elec       q    Type
REMARK                         _______ _______ _______ _____ _____    ______ ____
ROOT
ATOM      1  C   UNL     1       3.351   0.829   5.701  0.00  0.00    +0.044 A 
ATOM      2  C   UNL     1       4.564   0.577   5.073  0.00  0.00    +0.026 A 
ATOM      3  C   UNL     1       5.731   1.100   5.592  0.00  0.00    +0.026 A 
ATOM      4  C   UNL     1       5.693   1.878   6.741  0.00  0.00    +0.044 A 
ATOM      5  C   UNL     1       4.481   2.130   7.369  0.00  0.00    +0.026 A 
ATOM      6  C   UNL     1       3.313   1.611   6.848  0.00  0.00    +0.026 A 
ENDROOT
BRANCH   1  11
ATOM      7  C   UNL     1       0.077   0.176   4.155  0.00  0.00    +0.026 C 
ATOM      8  C   UNL     1       0.539  -1.243   4.545  0.00  0.00    +0.090 C 
ATOM      9  C   UNL     1       1.889  -1.012   5.187  0.00  0.00    +0.225 C 
ATOM     10  O   UNL     1       2.608  -1.877   5.640  0.00  0.00    -0.275 OA
ATOM     11  N   UNL     1       2.165   0.298   5.174  0.00  0.00    -0.212 N 
ATOM     12  C   UNL     1       1.214   1.062   4.614  0.00  0.00    +0.213 C 
ATOM     13  O   UNL     1       1.256   2.268   4.496  0.00  0.00    -0.277 OA
BRANCH   7  14
ATOM     14  N   UNL     1      -1.167   0.525   4.854  0.00  0.00    +0.389 N 
ATOM     15  H   UNL     1      -1.362   1.506   4.723  0.00  0.00    -0.084 HD
ATOM     16  H   UNL     1      -1.064   0.331   5.839  0.00  0.00    -0.084 HD
BRANCH  14  23
ATOM     17  C   UNL     1      -3.899   1.465   5.079  0.00  0.00    +0.006 C 
ATOM     18  C   UNL     1      -3.537  -0.021   5.139  0.00  0.00    -0.028 C 
ATOM     19  C   UNL     1      -4.691  -0.850   4.573  0.00  0.00    +0.002 C 
ATOM     20  C   UNL     1      -4.946  -0.445   3.120  0.00  0.00    +0.000 C 
ATOM     21  C   UNL     1      -3.684  -0.696   2.292  0.00  0.00    -0.002 C 
ATOM     22  C   UNL     1      -2.530   0.134   2.858  0.00  0.00    -0.015 C 
ATOM     23  C   UNL     1      -2.275  -0.271   4.311  0.00  0.00    -0.068 C 
ENDBRANCH  14  23
ENDBRANCH   7  14
ENDBRANCH   1  11
BRANCH   4  24
ATOM     24  N   UNL     1       6.880   2.408   7.269  0.00  0.00    -0.212 N 
ATOM     25  C   UNL     1       7.401   2.001   8.433  0.00  0.00    +0.225 C 
ATOM     26  O   UNL     1       6.928   1.149   9.154  0.00  0.00    -0.275 OA
ATOM     27  C   UNL     1       8.674   2.772   8.705  0.00  0.00    +0.090 C 
ATOM     28  C   UNL     1       8.800   3.705   7.483  0.00  0.00    +0.026 C 
ATOM     29  C   UNL     1       7.588   3.359   6.646  0.00  0.00    +0.213 C 
ATOM     30  O   UNL     1       7.301   3.865   5.583  0.00  0.00    -0.277 OA
BRANCH  28  31
ATOM     31  N   UNL     1      10.036   3.422   6.742  0.00  0.00    +0.389 N 
ATOM     32  H   UNL     1      10.826   3.485   7.367  0.00  0.00    -0.084 HD
ATOM     33  H   UNL     1       9.989   2.492   6.352  0.00  0.00    -0.084 HD
BRANCH  31  34
ATOM     34  C   UNL     1      10.191   4.400   5.657  0.00  0.00    -0.068 C 
ATOM     35  C   UNL     1      10.387   5.796   6.252  0.00  0.00    -0.015 C 
ATOM     36  C   UNL     1      10.548   6.814   5.122  0.00  0.00    -0.002 C 
ATOM     37  C   UNL     1      11.767   6.446   4.274  0.00  0.00    +0.000 C 
ATOM     38  C   UNL     1      11.571   5.050   3.678  0.00  0.00    +0.002 C 
ATOM     39  C   UNL     1      11.410   4.032   4.808  0.00  0.00    -0.028 C 
ATOM     40  C   UNL     1      11.214   2.636   4.213  0.00  0.00    +0.006 C 
ENDBRANCH  31  34
ENDBRANCH  28  31
ENDBRANCH   4  24
TORSDOF 6
