REMARK  Name = ZINC40220534
REMARK  15 active torsions:
REMARK  status: ('A' for Active; 'I' for Inactive)
REMARK    1  A    between atoms: C_1  and  C_2
REMARK    2  A    between atoms: C_6  and  O_9
REMARK    3  A    between atoms: C_7  and  C_8
REMARK    4  A    between atoms: O_9  and  C_10
REMARK    5  A    between atoms: C_10  and  C_11
REMARK    6  A    between atoms: C_11  and  N_12
REMARK    7  A    between atoms: C_20  and  C_21
REMARK    8  A    between atoms: C_21  and  C_22
REMARK    9  A    between atoms: C_22  and  C_23
REMARK   10  A    between atoms: C_23  and  C_24
REMARK   11  A    between atoms: C_24  and  C_25
REMARK   12  A    between atoms: C_25  and  N_26
REMARK   13  A    between atoms: C_27  and  C_29
REMARK   14  A    between atoms: C_29  and  O_30
REMARK   15  A    between atoms: O_30  and  C_31
REMARK                            x       y       z     vdW  Elec       q    Type
REMARK                         _______ _______ _______ _____ _____    ______ ____
ROOT
ATOM      1  N   UNL     1       0.102  -6.259   3.597  0.00  0.00    -0.324 N 
ATOM      2  C   UNL     1      -0.999  -7.090   3.547  0.00  0.00    +0.069 A 
ATOM      3  C   UNL     1      -2.371  -6.879   3.560  0.00  0.00    +0.028 A 
ATOM      4  C   UNL     1      -3.229  -7.956   3.495  0.00  0.00    +0.002 A 
ATOM      5  C   UNL     1      -2.729  -9.249   3.419  0.00  0.00    +0.002 A 
ATOM      6  C   UNL     1      -1.382  -9.476   3.406  0.00  0.00    +0.030 A 
ATOM      7  C   UNL     1      -0.494  -8.399   3.470  0.00  0.00    +0.089 A 
ATOM      8  N   UNL     1       0.860  -8.301   3.475  0.00  0.00    -0.232 NA
ATOM      9  C   UNL     1       1.208  -7.049   3.544  0.00  0.00    +0.111 A 
ENDROOT
BRANCH   1  10
ATOM     10  C   UNL     1       0.083  -4.796   3.683  0.00  0.00    +0.164 C 
BRANCH  10  11
ATOM     11  C   UNL     1       0.069  -4.202   2.274  0.00  0.00    +0.250 C 
BRANCH  11  12
ATOM     12  O   UNL     1       0.050  -2.776   2.358  0.00  0.00    -0.490 OA
BRANCH  12  18
ATOM     13  C   UNL     1      -0.018   1.503   0.010  0.00  0.00    +0.044 C 
ATOM     14  C   UNL     1       0.002  -0.004   0.002  0.00  0.00    -0.044 A 
ATOM     15  C   UNL     1       0.006  -0.688  -1.200  0.00  0.00    +0.004 A 
ATOM     16  C   UNL     1       0.024  -2.071  -1.211  0.00  0.00    +0.004 A 
ATOM     17  C   UNL     1       0.039  -2.772  -0.020  0.00  0.00    +0.046 A 
ATOM     18  C   UNL     1       0.035  -2.088   1.186  0.00  0.00    +0.124 A 
ATOM     19  C   UNL     1       0.023  -0.700   1.195  0.00  0.00    -0.006 A 
ATOM     20  C   UNL     1       0.026   0.046   2.504  0.00  0.00    +0.048 C 
ENDBRANCH  12  18
ENDBRANCH  11  12
ENDBRANCH  10  11
ENDBRANCH   1  10
BRANCH   9  21
ATOM     21  C   UNL     1       2.629  -6.548   3.565  0.00  0.00    +0.074 C 
BRANCH  21  22
ATOM     22  C   UNL     1       3.118  -6.463   5.012  0.00  0.00    +0.008 C 
BRANCH  22  23
ATOM     23  C   UNL     1       4.561  -5.954   5.034  0.00  0.00    +0.002 C 
BRANCH  23  24
ATOM     24  C   UNL     1       5.050  -5.869   6.481  0.00  0.00    +0.019 C 
BRANCH  24  25
ATOM     25  C   UNL     1       6.493  -5.360   6.503  0.00  0.00    +0.104 C 
BRANCH  25  26
ATOM     26  N   UNL     1       6.961  -5.278   7.889  0.00  0.00    -0.313 N 
ATOM     27  C   UNL     1       8.212  -4.852   8.153  0.00  0.00    +0.251 C 
ATOM     28  O   UNL     1       8.950  -4.536   7.244  0.00  0.00    -0.272 OA
ATOM     29  H   UNL     1       6.371  -5.531   8.616  0.00  0.00    +0.149 HD
BRANCH  27  30
ATOM     30  C   UNL     1       8.694  -4.768   9.579  0.00  0.00    +0.324 C 
BRANCH  30  31
ATOM     31  O   UNL     1      10.041  -4.293   9.599  0.00  0.00    -0.483 OA
BRANCH  31  32
ATOM     32  C   UNL     1      10.630  -4.159  10.817  0.00  0.00    +0.121 A 
ATOM     33  C   UNL     1       9.927  -4.483  11.968  0.00  0.00    +0.047 A 
ATOM     34  C   UNL     1      10.527  -4.346  13.204  0.00  0.00    +0.023 A 
ATOM     35  C   UNL     1      11.828  -3.885  13.296  0.00  0.00    +0.041 A 
ATOM     36  C   UNL     1      12.531  -3.560  12.149  0.00  0.00    +0.023 A 
ATOM     37  C   UNL     1      11.937  -3.702  10.910  0.00  0.00    +0.047 A 
ATOM     38 CL   UNL     1      12.580  -3.713  14.851  0.00  0.00    -0.084 Cl
ENDBRANCH  31  32
ENDBRANCH  30  31
ENDBRANCH  27  30
ENDBRANCH  25  26
ENDBRANCH  24  25
ENDBRANCH  23  24
ENDBRANCH  22  23
ENDBRANCH  21  22
ENDBRANCH   9  21
TORSDOF 13
