REMARK  Name = ZINC35476878
REMARK  5 active torsions:
REMARK  status: ('A' for Active; 'I' for Inactive)
REMARK    1  A    between atoms: C_4  and  C_7
REMARK    2  A    between atoms: N_9  and  C_10
REMARK    3  A    between atoms: C_11  and  C_19
REMARK    4  A    between atoms: C_19  and  C_21
REMARK    5  A    between atoms: C_19  and  N_26
REMARK                            x       y       z     vdW  Elec       q    Type
REMARK                         _______ _______ _______ _____ _____    ______ ____
ROOT
ATOM      1  C   UNL     1       4.686  -2.623   0.301  0.00  0.00    +0.078 A 
ATOM      2  C   UNL     1       5.066  -3.923   0.181  0.00  0.00    +0.009 A 
ATOM      3  C   UNL     1       6.421  -4.246   0.097  0.00  0.00    -0.030 A 
ATOM      4  C   UNL     1       7.298  -3.208   0.143  0.00  0.00    -0.005 A 
ATOM      5  S   UNL     1       6.260  -1.779   0.294  0.00  0.00    -0.078 S 
ATOM      6  C   UNL     1       8.790  -3.272   0.076  0.00  0.00    +0.043 C 
ATOM      7  C   UNL     1       9.222  -4.727   0.315  0.00  0.00    +0.005 C 
ATOM      8  C   UNL     1       8.366  -5.644  -0.564  0.00  0.00    +0.005 C 
ATOM      9  C   UNL     1       6.929  -5.678  -0.040  0.00  0.00    +0.036 C 
ENDROOT
BRANCH   1  12
ATOM     10  C   UNL     1       3.235  -0.768   0.619  0.00  0.00    +0.249 C 
ATOM     11  O   UNL     1       4.205  -0.045   0.733  0.00  0.00    -0.270 OA
ATOM     12  N   UNL     1       3.400  -2.088   0.398  0.00  0.00    -0.276 N 
ATOM     13  H   UNL     1       2.626  -2.665   0.307  0.00  0.00    +0.156 HD
BRANCH  10  17
ATOM     14  C   UNL     1      -0.676   0.861   0.914  0.00  0.00    +0.000 A 
ATOM     15  C   UNL     1       0.426   1.687   1.045  0.00  0.00    +0.001 A 
ATOM     16  C   UNL     1       1.699   1.165   0.950  0.00  0.00    +0.013 A 
ATOM     17  C   UNL     1       1.874  -0.201   0.722  0.00  0.00    +0.037 A 
ATOM     18  C   UNL     1       0.757  -1.029   0.591  0.00  0.00    +0.013 A 
ATOM     19  C   UNL     1      -0.510  -0.494   0.687  0.00  0.00    +0.001 A 
ENDBRANCH  10  17
ENDBRANCH   1  12
BRANCH   2  20
ATOM     20  C   UNL     1       4.026  -5.013   0.139  0.00  0.00    +0.135 C 
BRANCH  20  21
ATOM     21  N   UNL     1       2.956  -4.632  -0.785  0.00  0.00    -0.320 N 
ATOM     22  C   UNL     1       2.094  -5.600  -1.288  0.00  0.00    +0.097 A 
ATOM     23  C   UNL     1       2.250  -6.928  -0.905  0.00  0.00    +0.041 A 
ATOM     24  C   UNL     1       1.386  -7.881  -1.413  0.00  0.00    +0.005 A 
ATOM     25  C   UNL     1       0.390  -7.472  -2.290  0.00  0.00    +0.018 A 
ATOM     26  C   UNL     1       0.293  -6.137  -2.628  0.00  0.00    +0.084 A 
ATOM     27  N   UNL     1       1.129  -5.249  -2.123  0.00  0.00    -0.350 N 
ATOM     28  H   UNL     1       2.849  -3.704  -1.047  0.00  0.00    +0.148 HD
ATOM     29  H   UNL     1       1.036  -4.316  -2.374  0.00  0.00    +0.166 HD
ENDBRANCH  20  21
BRANCH  20  30
ATOM     30  C   UNL     1       3.452  -5.213   1.518  0.00  0.00    -0.016 A 
ATOM     31  C   UNL     1       4.000  -6.145   2.379  0.00  0.00    +0.013 A 
ATOM     32  C   UNL     1       3.459  -6.299   3.612  0.00  0.00    +0.045 A 
ATOM     33  S   UNL     1       2.133  -5.104   3.586  0.00  0.00    -0.105 S 
ATOM     34  C   UNL     1       2.393  -4.476   1.935  0.00  0.00    +0.051 A 
ENDBRANCH  20  30
ENDBRANCH   2  20
TORSDOF 5
