REMARK  Name = ZINC09242752
REMARK  4 active torsions:
REMARK  status: ('A' for Active; 'I' for Inactive)
REMARK    1  A    between atoms: C_1  and  C_2
REMARK    2  A    between atoms: C_7  and  C_8
REMARK    3  A    between atoms: C_23  and  C_31
REMARK    4  A    between atoms: C_31  and  C_33
REMARK                            x       y       z     vdW  Elec       q    Type
REMARK                         _______ _______ _______ _____ _____    ______ ____
ROOT
ATOM      1  C   UNL     1       0.253   1.473   0.053  0.00  0.00    +0.044 C 
ATOM      2  C   UNL     1       0.224  -0.034   0.033  0.00  0.00    -0.046 A 
ATOM      3  C   UNL     1       0.175  -0.705  -1.175  0.00  0.00    +0.004 A 
ATOM      4  C   UNL     1       0.148  -2.088  -1.194  0.00  0.00    +0.005 A 
ATOM      5  C   UNL     1       0.171  -2.793  -0.011  0.00  0.00    -0.026 A 
ATOM      6  C   UNL     1       0.220  -2.129   1.210  0.00  0.00    +0.039 A 
ATOM      7  C   UNL     1       0.252  -0.736   1.220  0.00  0.00    -0.026 A 
ATOM      8  C   UNL     1       0.313   0.005   2.530  0.00  0.00    +0.046 C 
ATOM      9  N   UNL     1       0.233  -3.049   2.259  0.00  0.00    -0.286 N 
ATOM     10  C   UNL     1       0.196  -4.321   1.821  0.00  0.00    +0.212 C 
ATOM     11  O   UNL     1       0.195  -5.322   2.505  0.00  0.00    -0.277 OA
ATOM     12  C   UNL     1       0.153  -4.262   0.315  0.00  0.00    +0.060 C 
ATOM     13  C   UNL     1      -1.097  -4.941  -0.233  0.00  0.00    +0.085 C 
ATOM     14  C   UNL     1      -1.629  -4.249  -1.454  0.00  0.00    -0.011 A 
ATOM     15  C   UNL     1      -1.089  -3.947  -2.684  0.00  0.00    +0.006 A 
ATOM     16  C   UNL     1      -1.850  -3.282  -3.630  0.00  0.00    +0.000 A 
ATOM     17  C   UNL     1      -3.152  -2.923  -3.337  0.00  0.00    +0.002 A 
ATOM     18  C   UNL     1      -3.698  -3.223  -2.106  0.00  0.00    +0.023 A 
ATOM     19  C   UNL     1      -2.939  -3.891  -1.147  0.00  0.00    +0.038 A 
ATOM     20  N   UNL     1      -3.260  -4.299   0.149  0.00  0.00    -0.285 N 
ATOM     21  C   UNL     1      -2.230  -4.923   0.755  0.00  0.00    +0.228 C 
ATOM     22  O   UNL     1      -2.220  -5.381   1.878  0.00  0.00    -0.275 OA
ATOM     23  C   UNL     1      -0.651  -6.376  -0.549  0.00  0.00    +0.066 C 
ATOM     24  C   UNL     1       0.865  -6.263  -0.791  0.00  0.00    -0.055 C 
ATOM     25  N   UNL     1       1.309  -4.951  -0.274  0.00  0.00    +0.395 N 
ATOM     26  C   UNL     1       1.831  -4.156  -1.406  0.00  0.00    -0.076 C 
ATOM     27  C   UNL     1       2.248  -5.201  -2.470  0.00  0.00    -0.020 C 
ATOM     28  C   UNL     1       1.139  -6.288  -2.308  0.00  0.00    -0.016 C 
ATOM     29  H   UNL     1       0.266  -2.801   3.196  0.00  0.00    +0.155 HD
ATOM     30  H   UNL     1      -4.123  -4.150   0.566  0.00  0.00    +0.155 HD
ATOM     31  H   UNL     1       2.030  -5.077   0.421  0.00  0.00    -0.079 HD
ENDROOT
BRANCH  23  32
ATOM     32  C   UNL     1      -0.934  -7.285   0.619  0.00  0.00    +0.166 C 
ATOM     33  O   UNL     1      -0.080  -7.478   1.458  0.00  0.00    -0.292 OA
BRANCH  32  34
ATOM     34  C   UNL     1      -2.247  -7.936   0.743  0.00  0.00    +0.018 A 
ATOM     35  C   UNL     1      -3.234  -7.713  -0.237  0.00  0.00    +0.012 A 
ATOM     36  C   UNL     1      -4.452  -8.303  -0.144  0.00  0.00    +0.009 A 
ATOM     37  C   UNL     1      -4.743  -9.152   0.941  0.00  0.00    -0.018 A 
ATOM     38  C   UNL     1      -5.997  -9.773   1.057  0.00  0.00    +0.008 A 
ATOM     39  C   UNL     1      -6.251 -10.589   2.117  0.00  0.00    +0.001 A 
ATOM     40  C   UNL     1      -5.284 -10.820   3.093  0.00  0.00    +0.001 A 
ATOM     41  C   UNL     1      -4.058 -10.235   3.015  0.00  0.00    +0.008 A 
ATOM     42  C   UNL     1      -3.759  -9.386   1.934  0.00  0.00    -0.017 A 
ATOM     43  C   UNL     1      -2.502  -8.773   1.821  0.00  0.00    +0.020 A 
ENDBRANCH  32  34
ENDBRANCH  23  32
TORSDOF 2
