REMARK  Name = ZINC42879083
REMARK  6 active torsions:
REMARK  status: ('A' for Active; 'I' for Inactive)
REMARK    1  A    between atoms: C_1  and  S_2
REMARK    2  A    between atoms: S_2  and  C_3
REMARK    3  A    between atoms: C_7  and  N_9
REMARK    4  A    between atoms: N_9  and  C_10
REMARK    5  A    between atoms: C_10  and  C_11
REMARK    6  A    between atoms: C_16  and  O_17
REMARK                            x       y       z     vdW  Elec       q    Type
REMARK                         _______ _______ _______ _____ _____    ______ ____
ROOT
ATOM      1  C   UNL     1       2.627  -3.725  -4.599  0.00  0.00    +0.140 C 
ENDROOT
BRANCH   1   2
ATOM      2  C   UNL     1       2.715  -5.223  -4.741  0.00  0.00    +0.015 A 
ATOM      3  C   UNL     1       1.904  -5.879  -5.649  0.00  0.00    +0.058 A 
ATOM      4  C   UNL     1       1.983  -7.255  -5.782  0.00  0.00    +0.167 A 
ATOM      5  C   UNL     1       2.880  -7.979  -5.000  0.00  0.00    +0.170 A 
ATOM      6  C   UNL     1       3.692  -7.319  -4.092  0.00  0.00    +0.095 A 
ATOM      7  C   UNL     1       3.613  -5.940  -3.966  0.00  0.00    +0.125 A 
ATOM      8  O   UNL     1       2.766  -9.302  -5.316  0.00  0.00    -0.452 OA
ATOM      9  C   UNL     1       1.507  -9.426  -6.003  0.00  0.00    +0.466 C 
ATOM     10  O   UNL     1       1.307  -8.126  -6.588  0.00  0.00    -0.453 OA
BRANCH   7  11
ATOM     11  O   UNL     1       4.413  -5.292  -3.078  0.00  0.00    -0.506 OA
ATOM     12  H   UNL     1       4.029  -5.200  -2.196  0.00  0.00    +0.292 HD
ENDBRANCH   7  11
ENDBRANCH   1   2
BRANCH   1  13
ATOM     13  N   UNL     1       1.923  -3.392  -3.358  0.00  0.00    -0.340 N 
ATOM     14  H   UNL     1       1.599  -4.101  -2.780  0.00  0.00    +0.146 HD
BRANCH  13  19
ATOM     15  C   UNL     1       0.848  -0.411  -1.489  0.00  0.00    +0.009 A 
ATOM     16  C   UNL     1       1.315   0.600  -2.322  0.00  0.00    +0.015 A 
ATOM     17  C   UNL     1       1.979   0.282  -3.491  0.00  0.00    +0.003 A 
ATOM     18  C   UNL     1       2.181  -1.041  -3.836  0.00  0.00    +0.023 A 
ATOM     19  C   UNL     1       1.718  -2.056  -3.008  0.00  0.00    +0.028 A 
ATOM     20  C   UNL     1       1.055  -1.740  -1.830  0.00  0.00    +0.037 A 
BRANCH  15  22
ATOM     21  C   UNL     1      -0.022   1.810   0.012  0.00  0.00    +0.090 C 
ATOM     22  S   UNL     1       0.002  -0.004   0.002  0.00  0.00    -0.129 S 
ENDBRANCH  15  22
ENDBRANCH  13  19
ENDBRANCH   1  13
TORSDOF 5
