REMARK  Name = ZINC22854818
REMARK  7 active torsions:
REMARK  status: ('A' for Active; 'I' for Inactive)
REMARK    1  A    between atoms: C_1  and  C_2
REMARK    2  A    between atoms: C_2  and  C_3
REMARK    3  A    between atoms: C_8  and  O_33
REMARK    4  A    between atoms: C_9  and  C_11
REMARK    5  A    between atoms: C_11  and  C_13
REMARK    6  A    between atoms: C_11  and  N_20
REMARK    7  A    between atoms: N_23  and  C_26
REMARK                            x       y       z     vdW  Elec       q    Type
REMARK                         _______ _______ _______ _____ _____    ______ ____
ROOT
ATOM      1  C   UNL     1       5.247   2.833  -0.032  0.00  0.00    +0.129 C 
ENDROOT
BRANCH   1   8
ATOM      2  C   UNL     1       0.002  -0.004   0.002  0.00  0.00    +0.152 A 
ATOM      3  N   UNL     1      -0.016   1.327   0.009  0.00  0.00    -0.205 NA
ATOM      4  C   UNL     1       1.210   1.775   0.000  0.00  0.00    +0.199 A 
ATOM      5  N   UNL     1       2.079   0.728  -0.014  0.00  0.00    -0.173 N 
ATOM      6  N   UNL     1       1.241  -0.418  -0.012  0.00  0.00    -0.147 NA
ATOM      7  C   UNL     1       3.421   1.023  -0.026  0.00  0.00    +0.228 A 
ATOM      8  C   UNL     1       3.839   2.294  -0.022  0.00  0.00    +0.076 A 
ATOM      9  S   UNL     1       2.291   3.185  -0.003  0.00  0.00    -0.047 S 
BRANCH   2  11
ATOM     10  C   UNL     1      -1.640  -1.186  -1.432  0.00  0.00    +0.012 C 
ATOM     11  C   UNL     1      -1.215  -0.893   0.008  0.00  0.00    +0.075 C 
ENDBRANCH   2  11
BRANCH   7  12
ATOM     12  O   UNL     1       4.333   0.014  -0.040  0.00  0.00    -0.492 OA
ATOM     13  H   UNL     1       5.409   0.245  -0.049  0.00  0.00    +0.294 HD
ENDBRANCH   7  12
ENDBRANCH   1   8
BRANCH   1  14
ATOM     14  C   UNL     1       5.572   3.364  -1.404  0.00  0.00    -0.024 A 
ATOM     15  C   UNL     1       5.122   4.614  -1.786  0.00  0.00    +0.005 A 
ATOM     16  C   UNL     1       5.424   5.104  -3.043  0.00  0.00    +0.002 A 
ATOM     17  C   UNL     1       6.168   4.339  -3.922  0.00  0.00    +0.020 A 
ATOM     18  C   UNL     1       6.614   3.086  -3.543  0.00  0.00    +0.041 A 
ATOM     19  C   UNL     1       6.315   2.598  -2.283  0.00  0.00    +0.025 A 
ATOM     20 CL   UNL     1       7.547   2.125  -4.647  0.00  0.00    -0.084 Cl
ENDBRANCH   1  14
BRANCH   1  21
ATOM     21  N   UNL     1       5.363   3.917   0.953  0.00  0.00    -0.288 NA
ATOM     22  C   UNL     1       6.699   4.528   0.908  0.00  0.00    +0.104 C 
ATOM     23  C   UNL     1       6.753   5.701   1.890  0.00  0.00    +0.120 C 
ATOM     24  N   UNL     1       6.442   5.219   3.243  0.00  0.00    -0.325 N 
ATOM     25  C   UNL     1       5.106   4.608   3.287  0.00  0.00    +0.120 C 
ATOM     26  C   UNL     1       5.052   3.435   2.306  0.00  0.00    +0.104 C 
BRANCH  24  27
ATOM     27  C   UNL     1       6.553   6.251   4.180  0.00  0.00    +0.065 A 
ATOM     28  C   UNL     1       6.371   5.986   5.531  0.00  0.00    +0.026 A 
ATOM     29  C   UNL     1       6.484   7.007   6.455  0.00  0.00    +0.002 A 
ATOM     30  C   UNL     1       6.770   8.293   6.036  0.00  0.00    +0.003 A 
ATOM     31  C   UNL     1       6.948   8.563   4.691  0.00  0.00    +0.040 A 
ATOM     32  C   UNL     1       6.840   7.545   3.761  0.00  0.00    +0.144 A 
ATOM     33  F   UNL     1       7.012   7.809   2.447  0.00  0.00    -0.204 F 
ENDBRANCH  24  27
ENDBRANCH   1  21
TORSDOF 6
