REMARK  Name = ZINC09420175
REMARK  2 active torsions:
REMARK  status: ('A' for Active; 'I' for Inactive)
REMARK    1  A    between atoms: C_5  and  C_11
REMARK    2  A    between atoms: N_15  and  C_19
REMARK                            x       y       z     vdW  Elec       q    Type
REMARK                         _______ _______ _______ _____ _____    ______ ____
ROOT
ATOM      1  C   UNL     1       0.784   4.970  -1.210  0.00  0.00    +0.028 C 
ATOM      2  C   UNL     1       0.428   3.947  -0.392  0.00  0.00    +0.077 C 
ATOM      3  C   UNL     1      -0.917   3.438  -0.052  0.00  0.00    +0.263 C 
ATOM      4  O   UNL     1      -1.925   3.934  -0.518  0.00  0.00    -0.269 OA
ATOM      5  N   UNL     1      -0.968   2.411   0.780  0.00  0.00    -0.223 N 
ATOM      6  C   UNL     1       0.152   1.868   1.298  0.00  0.00    +0.125 C 
ATOM      7  S   UNL     1       0.291   0.553   2.386  0.00  0.00    -0.027 S 
ATOM      8  S   UNL     1       1.456   2.847   0.571  0.00  0.00    -0.061 S 
ENDROOT
BRANCH   1  13
ATOM      9  C   UNL     1      -2.079   9.556  -4.071  0.00  0.00    +0.020 A 
ATOM     10  C   UNL     1      -1.101   9.014  -3.287  0.00  0.00    +0.011 A 
ATOM     11  C   UNL     1      -1.133   7.626  -3.048  0.00  0.00    +0.001 A 
ATOM     12  C   UNL     1      -0.161   7.004  -2.253  0.00  0.00    +0.018 A 
ATOM     13  C   UNL     1      -0.229   5.633  -2.042  0.00  0.00    -0.023 A 
ATOM     14  C   UNL     1      -1.263   4.873  -2.626  0.00  0.00    +0.010 A 
ATOM     15  C   UNL     1      -2.212   5.464  -3.393  0.00  0.00    +0.029 A 
ATOM     16  C   UNL     1      -2.171   6.852  -3.626  0.00  0.00    +0.071 A 
ATOM     17  N   UNL     1      -3.098   7.446  -4.383  0.00  0.00    -0.255 NA
ATOM     18  C   UNL     1      -3.071   8.738  -4.608  0.00  0.00    +0.111 A 
ENDBRANCH   1  13
BRANCH   5  19
ATOM     19  C   UNL     1      -2.216   1.878   1.134  0.00  0.00    +0.046 A 
ATOM     20  C   UNL     1      -2.780   0.865   0.371  0.00  0.00    +0.028 A 
ATOM     21  C   UNL     1      -4.009   0.338   0.719  0.00  0.00    +0.051 A 
ATOM     22  C   UNL     1      -4.681   0.819   1.831  0.00  0.00    +0.166 A 
ATOM     23  C   UNL     1      -4.118   1.835   2.599  0.00  0.00    +0.168 A 
ATOM     24  C   UNL     1      -2.884   2.359   2.252  0.00  0.00    +0.073 A 
ATOM     25  O   UNL     1      -4.967   2.128   3.627  0.00  0.00    -0.453 OA
ATOM     26  C   UNL     1      -5.863   1.004   3.718  0.00  0.00    +0.466 C 
ATOM     27  O   UNL     1      -5.885   0.475   2.379  0.00  0.00    -0.453 OA
ENDBRANCH   5  19
TORSDOF 2
