REMARK  Name = ZINC14882000
REMARK  13 active torsions:
REMARK  status: ('A' for Active; 'I' for Inactive)
REMARK    1  A    between atoms: C_1  and  C_2
REMARK    2  A    between atoms: C_2  and  C_3
REMARK    3  A    between atoms: C_2  and  C_4
REMARK    4  A    between atoms: C_4  and  C_5
REMARK    5  A    between atoms: C_5  and  C_6
REMARK    6  A    between atoms: C_6  and  C_17
REMARK    7  A    between atoms: N_9  and  C_13
REMARK    8  A    between atoms: C_13  and  C_14
REMARK    9  A    between atoms: C_14  and  N_71
REMARK   10  A    between atoms: C_15  and  N_71
REMARK   11  A    between atoms: C_16  and  N_71
REMARK   12  A    between atoms: C_23  and  C_25
REMARK   13  A    between atoms: C_26  and  C_27
REMARK                            x       y       z     vdW  Elec       q    Type
REMARK                         _______ _______ _______ _____ _____    ______ ____
ROOT
ATOM      1  C   UNL     1       0.026   1.079   2.505  0.00  0.00    +0.115 C 
ATOM      2  C   UNL     1       1.436   1.635   2.552  0.00  0.00    +0.247 C 
ATOM      3  O   UNL     1       1.761   2.801   2.620  0.00  0.00    -0.273 OA
ATOM      4  N   UNL     1       2.252   0.564   2.502  0.00  0.00    -0.226 N 
ATOM      5  C   UNL     1       1.561  -0.580   2.431  0.00  0.00    +0.309 C 
ATOM      6  O   UNL     1       2.078  -1.679   2.377  0.00  0.00    -0.252 OA
ATOM      7  N   UNL     1       0.228  -0.378   2.429  0.00  0.00    -0.285 N 
ATOM      8  H   UNL     1      -0.464  -1.057   2.386  0.00  0.00    +0.151 HD
ENDROOT
BRANCH   1   9
ATOM      9  C   UNL     1      -0.741   1.451   3.776  0.00  0.00    +0.024 C 
ATOM     10  C   UNL     1      -0.983   2.962   3.801  0.00  0.00    +0.025 C 
ATOM     11  C   UNL     1      -1.782   3.326   5.057  0.00  0.00    +0.108 C 
ATOM     12  N   UNL     1      -1.072   2.809   6.235  0.00  0.00    -0.298 N 
ATOM     13  C   UNL     1      -0.709   1.386   6.272  0.00  0.00    +0.108 C 
ATOM     14  C   UNL     1       0.077   1.043   5.003  0.00  0.00    +0.025 C 
ATOM     15  C   UNL     1      -0.760   3.624   7.261  0.00  0.00    +0.239 C 
ATOM     16  O   UNL     1      -0.257   3.167   8.270  0.00  0.00    -0.271 OA
BRANCH  15  17
ATOM     17  C   UNL     1      -1.027   5.060   7.162  0.00  0.00    +0.068 C 
ATOM     18  C   UNL     1      -0.621   5.891   8.144  0.00  0.00    +0.013 C 
BRANCH  18  19
ATOM     19  C   UNL     1      -0.889   7.334   8.044  0.00  0.00    -0.025 A 
ATOM     20  C   UNL     1      -1.560   7.849   6.931  0.00  0.00    +0.009 A 
ATOM     21  C   UNL     1      -1.812   9.202   6.846  0.00  0.00    +0.020 A 
ATOM     22  C   UNL     1      -1.393  10.052   7.857  0.00  0.00    +0.041 A 
ATOM     23  C   UNL     1      -0.723   9.550   8.961  0.00  0.00    +0.020 A 
ATOM     24  C   UNL     1      -0.469   8.199   9.061  0.00  0.00    +0.009 A 
ATOM     25 CL   UNL     1      -1.709  11.755   7.739  0.00  0.00    -0.084 Cl
ENDBRANCH  18  19
ENDBRANCH  15  17
ENDBRANCH   1   9
BRANCH   1  26
ATOM     26  C   UNL     1      -0.712   1.586   1.265  0.00  0.00    +0.036 C 
BRANCH  26  27
ATOM     27  C   UNL     1       0.008   1.095   0.007  0.00  0.00    +0.005 C 
BRANCH  27  29
ATOM     28  C   UNL     1       0.057   1.218  -2.488  0.00  0.00    +0.007 C 
ATOM     29  C   UNL     1      -0.730   1.602  -1.234  0.00  0.00    -0.017 C 
ATOM     30  C   UNL     1      -2.122   0.971  -1.292  0.00  0.00    +0.007 C 
ENDBRANCH  27  29
ENDBRANCH  26  27
ENDBRANCH   1  26
BRANCH   4  31
ATOM     31  C   UNL     1       3.715   0.642   2.522  0.00  0.00    +0.099 C 
BRANCH  31  32
ATOM     32  C   UNL     1       4.209   0.590   3.969  0.00  0.00    -0.060 C 
BRANCH  32  35
ATOM     33  C   UNL     1       6.139   1.977   3.507  0.00  0.00    -0.097 C 
ATOM     34  C   UNL     1       6.200   0.386   5.332  0.00  0.00    -0.097 C 
ATOM     35  N   UNL     1       5.686   0.648   3.971  0.00  0.00    +0.377 N 
ATOM     36  H   UNL     1       6.049  -0.069   3.333  0.00  0.00    -0.083 HD
ENDBRANCH  32  35
ENDBRANCH  31  32
ENDBRANCH   4  31
TORSDOF 9
