REMARK  Name = ZINC39653124
REMARK  9 active torsions:
REMARK  status: ('A' for Active; 'I' for Inactive)
REMARK    1  A    between atoms: C_1  and  O_2
REMARK    2  A    between atoms: O_2  and  C_3
REMARK    3  A    between atoms: C_5  and  C_11
REMARK    4  A    between atoms: C_7  and  O_9
REMARK    5  A    between atoms: O_9  and  C_10
REMARK    6  A    between atoms: C_11  and  C_12
REMARK    7  A    between atoms: C_12  and  N_13
REMARK    8  A    between atoms: C_14  and  C_16
REMARK    9  A    between atoms: C_27  and  C_29
REMARK                            x       y       z     vdW  Elec       q    Type
REMARK                         _______ _______ _______ _____ _____    ______ ____
ROOT
ATOM      1  C   UNL     1       3.898  -8.156   1.102  0.00  0.00    +0.100 C 
ATOM      2  C   UNL     1       4.079  -8.685   2.543  0.00  0.00    +0.121 C 
ATOM      3  N   UNL     1       4.980  -9.853   2.403  0.00  0.00    -0.297 N 
ATOM      4  C   UNL     1       5.968  -9.435   1.379  0.00  0.00    +0.115 C 
ATOM      5  C   UNL     1       5.140  -8.650   0.342  0.00  0.00    -0.004 C 
ATOM      6  C   UNL     1       4.727  -9.566  -0.806  0.00  0.00    -0.010 C 
ATOM      7  C   UNL     1       5.975  -9.998  -1.582  0.00  0.00    -0.082 C 
ATOM      8  N   UNL     1       6.667  -8.812  -2.100  0.00  0.00    +0.379 N 
ATOM      9  C   UNL     1       7.142  -7.983  -0.986  0.00  0.00    -0.082 C 
ATOM     10  C   UNL     1       5.944  -7.465  -0.185  0.00  0.00    -0.010 C 
ATOM     11  C   UNL     1       4.917 -11.029   3.058  0.00  0.00    +0.260 C 
ATOM     12  O   UNL     1       3.990 -11.257   3.806  0.00  0.00    -0.271 OA
ATOM     13  H   UNL     1       7.454  -9.101  -2.662  0.00  0.00    -0.086 HD
ATOM     14  H   UNL     1       6.030  -8.275  -2.670  0.00  0.00    -0.086 HD
ENDROOT
BRANCH  11  15
ATOM     15  C   UNL     1       5.998 -12.060   2.862  0.00  0.00    +0.296 C 
ATOM     16  C   UNL     1       7.316 -11.550   3.461  0.00  0.00    +0.283 C 
ATOM     17  O   UNL     1       8.315 -12.557   3.270  0.00  0.00    -0.484 OA
ATOM     18  C   UNL     1       7.962 -13.835   3.579  0.00  0.00    +0.162 A 
ATOM     19  C   UNL     1       8.952 -14.788   3.767  0.00  0.00    +0.049 A 
ATOM     20  C   UNL     1       8.610 -16.090   4.078  0.00  0.00    +0.004 A 
ATOM     21  C   UNL     1       7.279 -16.447   4.202  0.00  0.00    +0.004 A 
ATOM     22  C   UNL     1       6.288 -15.502   4.017  0.00  0.00    +0.049 A 
ATOM     23  C   UNL     1       6.625 -14.193   3.706  0.00  0.00    +0.163 A 
ATOM     24  O   UNL     1       5.638 -13.272   3.534  0.00  0.00    -0.473 OA
ENDBRANCH  11  15
BRANCH   1  26
ATOM     25  N   UNL     1       3.263  -5.998   0.073  0.00  0.00    -0.315 N 
ATOM     26  C   UNL     1       3.845  -6.650   1.099  0.00  0.00    +0.218 C 
ATOM     27  O   UNL     1       4.327  -6.025   2.020  0.00  0.00    -0.275 OA
ATOM     28  H   UNL     1       2.878  -6.499  -0.663  0.00  0.00    +0.149 HD
BRANCH  25  29
ATOM     29  C   UNL     1       3.212  -4.534   0.070  0.00  0.00    +0.109 C 
BRANCH  29  30
ATOM     30  C   UNL     1       2.504  -4.051  -1.197  0.00  0.00    +0.054 C 
BRANCH  30  33
ATOM     31  C   UNL     1       3.431  -0.434  -1.780  0.00  0.00    +0.124 A 
ATOM     32  C   UNL     1       3.478  -1.821  -1.775  0.00  0.00    +0.049 A 
ATOM     33  C   UNL     1       2.451  -2.546  -1.200  0.00  0.00    -0.039 A 
ATOM     34  C   UNL     1       1.376  -1.892  -0.629  0.00  0.00    +0.049 A 
ATOM     35  C   UNL     1       1.325  -0.505  -0.630  0.00  0.00    +0.124 A 
ATOM     36  C   UNL     1       2.357   0.225  -1.201  0.00  0.00    +0.091 A 
BRANCH  31  38
ATOM     37  C   UNL     1       4.329   1.703  -2.308  0.00  0.00    +0.277 C 
ATOM     38  O   UNL     1       4.440   0.279  -2.345  0.00  0.00    -0.495 OA
ENDBRANCH  31  38
BRANCH  35  39
ATOM     39  O   UNL     1       0.268   0.137  -0.068  0.00  0.00    -0.495 OA
ATOM     40  C   UNL     1       0.282   1.566  -0.106  0.00  0.00    +0.277 C 
ENDBRANCH  35  39
ENDBRANCH  30  33
ENDBRANCH  29  30
ENDBRANCH  25  29
ENDBRANCH   1  26
TORSDOF 7
