REMARK  Name = ZINC28958888
REMARK  9 active torsions:
REMARK  status: ('A' for Active; 'I' for Inactive)
REMARK    1  A    between atoms: C_4  and  C_7
REMARK    2  A    between atoms: C_9  and  C_12
REMARK    3  A    between atoms: C_15  and  C_18
REMARK    4  A    between atoms: C_18  and  C_19
REMARK    5  A    between atoms: C_19  and  N_20
REMARK    6  A    between atoms: N_20  and  C_21
REMARK    7  A    between atoms: C_21  and  C_22
REMARK    8  A    between atoms: C_22  and  C_24
REMARK    9  A    between atoms: C_22  and  O_30
REMARK                            x       y       z     vdW  Elec       q    Type
REMARK                         _______ _______ _______ _____ _____    ______ ____
ROOT
ATOM      1  C   UNL     1      -6.462   2.363  -5.782  0.00  0.00    +0.001 A 
ATOM      2  C   UNL     1      -5.753   1.165  -5.833  0.00  0.00    +0.010 A 
ATOM      3  C   UNL     1      -5.057   0.731  -4.723  0.00  0.00    +0.004 A 
ATOM      4  C   UNL     1      -5.063   1.482  -3.562  0.00  0.00    -0.049 A 
ATOM      5  C   UNL     1      -5.769   2.670  -3.504  0.00  0.00    +0.004 A 
ATOM      6  C   UNL     1      -6.465   3.117  -4.610  0.00  0.00    +0.010 A 
ENDROOT
BRANCH   1   9
ATOM      7  C   UNL     1      -7.873   2.528  -9.157  0.00  0.00    +0.109 A 
ATOM      8  N   UNL     1      -7.207   2.128  -8.086  0.00  0.00    -0.239 NA
ATOM      9  C   UNL     1      -7.212   2.836  -6.972  0.00  0.00    +0.079 A 
ATOM     10  C   UNL     1      -7.911   4.014  -6.926  0.00  0.00    +0.075 A 
ATOM     11  S   UNL     1      -8.584   4.064  -8.582  0.00  0.00    -0.075 S 
BRANCH   7  15
ATOM     12  C   UNL     1      -8.215   0.665 -12.960  0.00  0.00    +0.000 A 
ATOM     13  C   UNL     1      -8.855   1.868 -12.722  0.00  0.00    +0.001 A 
ATOM     14  C   UNL     1      -8.748   2.478 -11.489  0.00  0.00    +0.010 A 
ATOM     15  C   UNL     1      -7.992   1.879 -10.481  0.00  0.00    +0.007 A 
ATOM     16  C   UNL     1      -7.344   0.668 -10.729  0.00  0.00    +0.010 A 
ATOM     17  C   UNL     1      -7.464   0.066 -11.964  0.00  0.00    +0.001 A 
ENDBRANCH   7  15
ENDBRANCH   1   9
BRANCH   4  18
ATOM     18  C   UNL     1      -4.301   1.003  -2.353  0.00  0.00    +0.016 C 
BRANCH  18  19
ATOM     19  C   UNL     1      -2.873   1.552  -2.399  0.00  0.00    -0.078 C 
BRANCH  19  20
ATOM     20  N   UNL     1      -2.131   1.084  -1.221  0.00  0.00    +0.381 N 
ATOM     21  H   UNL     1      -2.631   1.439  -0.308  0.00  0.00    -0.086 HD
ATOM     22  H   UNL     1      -2.101  -0.015  -1.219  0.00  0.00    -0.086 HD
BRANCH  20  23
ATOM     23  C   UNL     1      -0.753   1.593  -1.232  0.00  0.00    -0.046 C 
BRANCH  23  24
ATOM     24  C   UNL     1      -0.013   1.086   0.008  0.00  0.00    +0.129 C 
BRANCH  24  25
ATOM     25  C   UNL     1       1.401   1.607  -0.003  0.00  0.00    -0.003 A 
ATOM     26  C   UNL     1       2.430   0.836  -0.522  0.00  0.00    +0.009 A 
ATOM     27  C   UNL     1       3.715   1.357  -0.511  0.00  0.00    +0.020 A 
ATOM     28  C   UNL     1       3.926   2.618   0.013  0.00  0.00    +0.111 A 
ATOM     29  N   UNL     1       2.923   3.323   0.499  0.00  0.00    -0.263 NA
ATOM     30  C   UNL     1       1.688   2.862   0.500  0.00  0.00    +0.116 A 
ENDBRANCH  24  25
BRANCH  24  31
ATOM     31  O   UNL     1      -0.682   1.547   1.184  0.00  0.00    -0.389 OA
ATOM     32  H   UNL     1      -0.293   1.281   2.178  0.00  0.00    +0.210 HD
ENDBRANCH  24  31
ENDBRANCH  23  24
ENDBRANCH  20  23
ENDBRANCH  19  20
ENDBRANCH  18  19
ENDBRANCH   4  18
TORSDOF 9
