REMARK  Name = ZINC15732338
REMARK  8 active torsions:
REMARK  status: ('A' for Active; 'I' for Inactive)
REMARK    1  A    between atoms: C_1  and  C_2
REMARK    2  A    between atoms: C_8  and  C_9
REMARK    3  A    between atoms: C_8  and  N_71
REMARK    4  A    between atoms: C_9  and  C_10
REMARK    5  A    between atoms: C_10  and  N_11
REMARK    6  A    between atoms: C_12  and  C_14
REMARK    7  A    between atoms: C_20  and  C_22
REMARK    8  A    between atoms: C_25  and  N_27
REMARK                            x       y       z     vdW  Elec       q    Type
REMARK                         _______ _______ _______ _____ _____    ______ ____
ROOT
ATOM      1  C   UNL     1      -2.312   7.302   3.365  0.00  0.00    +0.078 C 
ATOM      2  C   UNL     1      -3.542   7.311   2.455  0.00  0.00    +0.032 C 
ATOM      3  C   UNL     1      -4.119   5.894   2.369  0.00  0.00    +0.109 C 
ATOM      4  N   UNL     1      -3.056   4.976   1.938  0.00  0.00    -0.297 N 
ATOM      5  C   UNL     1      -1.796   4.949   2.694  0.00  0.00    +0.109 C 
ATOM      6  C   UNL     1      -1.243   6.381   2.772  0.00  0.00    +0.032 C 
ATOM      7  C   UNL     1      -3.235   4.170   0.873  0.00  0.00    +0.253 C 
ATOM      8  O   UNL     1      -4.222   4.297   0.172  0.00  0.00    -0.269 OA
ENDROOT
BRANCH   7   9
ATOM      9  C   UNL     1      -2.244   3.142   0.560  0.00  0.00    +0.076 A 
ATOM     10  C   UNL     1      -2.096   2.398  -0.603  0.00  0.00    +0.023 A 
ATOM     11  C   UNL     1      -1.069   1.493  -0.643  0.00  0.00    +0.035 A 
ATOM     12  C   UNL     1      -0.256   1.364   0.462  0.00  0.00    +0.085 A 
ATOM     13  S   UNL     1      -0.913   2.522   1.572  0.00  0.00    -0.066 S 
BRANCH  12  14
ATOM     14  N   UNL     1       0.832   0.515   0.640  0.00  0.00    -0.310 N 
ATOM     15  C   UNL     1       0.827  -0.834   0.397  0.00  0.00    +0.093 A 
ATOM     16  C   UNL     1       2.036  -1.352   0.665  0.00  0.00    +0.028 A 
ATOM     17  C   UNL     1       2.886  -0.247   1.118  0.00  0.00    +0.000 A 
ATOM     18  C   UNL     1       2.079   0.905   1.083  0.00  0.00    +0.054 A 
ATOM     19  C   UNL     1       2.620   2.128   1.462  0.00  0.00    +0.027 A 
ATOM     20  C   UNL     1       3.936   2.198   1.868  0.00  0.00    +0.002 A 
ATOM     21  C   UNL     1       4.727   1.059   1.901  0.00  0.00    +0.001 A 
ATOM     22  C   UNL     1       4.215  -0.153   1.531  0.00  0.00    +0.010 A 
ENDBRANCH  12  14
ENDBRANCH   7   9
BRANCH   1  24
ATOM     23  N   UNL     1      -0.671   8.936   4.235  0.00  0.00    -0.315 N 
ATOM     24  C   UNL     1      -1.762   8.700   3.479  0.00  0.00    +0.216 C 
ATOM     25  O   UNL     1      -2.301   9.614   2.891  0.00  0.00    -0.276 OA
ATOM     26  H   UNL     1      -0.240   8.206   4.705  0.00  0.00    +0.149 HD
BRANCH  23  27
ATOM     27  C   UNL     1      -0.137  10.296   4.346  0.00  0.00    +0.102 C 
BRANCH  27  28
ATOM     28  C   UNL     1       1.094  10.287   5.255  0.00  0.00    +0.000 C 
BRANCH  28  29
ATOM     29  C   UNL     1       1.652  11.707   5.371  0.00  0.00    -0.077 C 
BRANCH  29  36
ATOM     30  C   UNL     1       3.750  13.519   4.887  0.00  0.00    -0.013 C 
ATOM     31  C   UNL     1       3.451  13.030   6.305  0.00  0.00    -0.072 C 
ATOM     32  C   UNL     1       4.755  12.952   7.103  0.00  0.00    -0.016 C 
ATOM     33  C   UNL     1       4.454  12.443   8.515  0.00  0.00    -0.003 C 
ATOM     34  C   UNL     1       3.767  11.078   8.422  0.00  0.00    -0.019 C 
ATOM     35  C   UNL     1       2.492  11.210   7.586  0.00  0.00    -0.078 C 
ATOM     36  N   UNL     1       2.852  11.680   6.232  0.00  0.00    +0.381 N 
ATOM     37  H   UNL     1       3.539  11.033   5.826  0.00  0.00    -0.081 HD
ENDBRANCH  29  36
ENDBRANCH  28  29
ENDBRANCH  27  28
ENDBRANCH  23  27
ENDBRANCH   1  24
TORSDOF 7
