REMARK  Name = ZINC14478327
REMARK  7 active torsions:
REMARK  status: ('A' for Active; 'I' for Inactive)
REMARK    1  A    between atoms: C_1  and  C_2
REMARK    2  A    between atoms: C_2  and  C_3
REMARK    3  A    between atoms: C_3  and  C_5
REMARK    4  A    between atoms: C_3  and  N_6
REMARK    5  A    between atoms: C_7  and  C_9
REMARK    6  A    between atoms: C_16  and  C_25
REMARK    7  A    between atoms: C_30  and  N_31
REMARK                            x       y       z     vdW  Elec       q    Type
REMARK                         _______ _______ _______ _____ _____    ______ ____
ROOT
ATOM      1  C   UNL     1      -3.706   2.534   4.029  0.00  0.00    +0.058 A 
ATOM      2  C   UNL     1      -4.935   3.082   3.665  0.00  0.00    +0.015 A 
ATOM      3  C   UNL     1      -5.324   3.087   2.344  0.00  0.00    +0.001 A 
ATOM      4  C   UNL     1      -4.495   2.541   1.379  0.00  0.00    +0.006 A 
ATOM      5  C   UNL     1      -3.267   2.003   1.723  0.00  0.00    -0.019 A 
ATOM      6  C   UNL     1      -2.853   1.982   3.052  0.00  0.00    +0.044 A 
ATOM      7  N   UNL     1      -1.639   1.469   3.478  0.00  0.00    -0.336 N 
ATOM      8  C   UNL     1      -0.795   0.825   2.459  0.00  0.00    +0.107 C 
ATOM      9  C   UNL     1      -0.925   1.643   1.191  0.00  0.00    +0.029 C 
ATOM     10  C   UNL     1      -2.387   1.387   0.705  0.00  0.00    +0.049 C 
ATOM     11  C   UNL     1      -2.356   1.840  -0.707  0.00  0.00    -0.023 C 
ATOM     12  C   UNL     1      -1.121   1.686  -1.173  0.00  0.00    -0.030 C 
ATOM     13  C   UNL     1      -0.212   1.140  -0.069  0.00  0.00    +0.033 C 
ATOM     14  H   UNL     1      -1.117   2.159   3.997  0.00  0.00    +0.147 HD
ENDROOT
BRANCH   8  15
ATOM     15  C   UNL     1      -1.269  -0.584   2.212  0.00  0.00    +0.003 A 
ATOM     16  C   UNL     1      -2.568  -0.940   2.521  0.00  0.00    +0.008 A 
ATOM     17  C   UNL     1      -3.004  -2.232   2.293  0.00  0.00    +0.000 A 
ATOM     18  C   UNL     1      -2.139  -3.169   1.758  0.00  0.00    +0.002 A 
ATOM     19  C   UNL     1      -0.840  -2.813   1.449  0.00  0.00    +0.033 A 
ATOM     20  C   UNL     1      -0.406  -1.519   1.671  0.00  0.00    +0.131 A 
BRANCH  20  21
ATOM     21  N   UNL     1       0.984  -1.136   1.334  0.00  0.00    +0.057 N 
ATOM     22  O   UNL     1       1.712  -1.927   0.762  0.00  0.00    -0.126 OA
ATOM     23  O   UNL     1       1.399  -0.030   1.630  0.00  0.00    -0.126 OA
ENDBRANCH  20  21
ENDBRANCH   8  15
BRANCH   1  25
ATOM     24  N   UNL     1      -4.107   3.060   6.383  0.00  0.00    -0.309 N 
ATOM     25  C   UNL     1      -3.295   2.533   5.445  0.00  0.00    +0.246 C 
ATOM     26  O   UNL     1      -2.224   2.057   5.767  0.00  0.00    -0.270 OA
ATOM     27  H   UNL     1      -4.962   3.440   6.126  0.00  0.00    +0.149 HD
BRANCH  24  28
ATOM     28  C   UNL     1      -3.699   3.059   7.790  0.00  0.00    +0.070 C 
ATOM     29  C   UNL     1      -4.073   1.720   8.428  0.00  0.00    +0.028 C 
BRANCH  28  31
ATOM     30  C   UNL     1      -3.943   5.539   7.972  0.00  0.00    +0.005 C 
ATOM     31  C   UNL     1      -4.412   4.194   8.528  0.00  0.00    +0.018 C 
ENDBRANCH  28  31
ENDBRANCH  24  28
ENDBRANCH   1  25
TORSDOF 5
