REMARK  Name = ZINC05091180
REMARK  1 active torsions:
REMARK  status: ('A' for Active; 'I' for Inactive)
REMARK    1  A    between atoms: N_21  and  C_24
REMARK                            x       y       z     vdW  Elec       q    Type
REMARK                         _______ _______ _______ _____ _____    ______ ____
ROOT
ATOM      1  C   UNL     1       2.554   4.042  -3.763  0.00  0.00    +0.000 A 
ATOM      2  C   UNL     1       1.933   5.207  -3.350  0.00  0.00    +0.000 A 
ATOM      3  C   UNL     1       1.562   5.386  -2.026  0.00  0.00    +0.004 A 
ATOM      4  C   UNL     1       1.815   4.388  -1.119  0.00  0.00    -0.035 A 
ATOM      5  C   UNL     1       2.410   3.185  -1.550  0.00  0.00    -0.035 A 
ATOM      6  C   UNL     1       2.814   2.994  -2.832  0.00  0.00    +0.004 A 
ATOM      7  C   UNL     1       2.526   2.138  -0.421  0.00  0.00    +0.062 C 
ATOM      8  C   UNL     1       3.353   2.881   0.635  0.00  0.00    -0.035 A 
ATOM      9  C   UNL     1       4.516   2.406   1.174  0.00  0.00    +0.004 A 
ATOM     10  C   UNL     1       5.203   3.194   2.087  0.00  0.00    +0.000 A 
ATOM     11  C   UNL     1       4.721   4.439   2.447  0.00  0.00    +0.000 A 
ATOM     12  C   UNL     1       3.531   4.913   1.907  0.00  0.00    +0.004 A 
ATOM     13  C   UNL     1       2.859   4.129   1.019  0.00  0.00    -0.035 A 
ATOM     14  C   UNL     1       1.527   4.494   0.358  0.00  0.00    +0.062 C 
ATOM     15  C   UNL     1       0.639   3.340   0.860  0.00  0.00    +0.100 C 
ATOM     16  C   UNL     1       1.107   2.131   0.003  0.00  0.00    +0.100 C 
ATOM     17  C   UNL     1      -0.014   1.208   0.009  0.00  0.00    +0.227 C 
ATOM     18  O   UNL     1       0.002  -0.004   0.002  0.00  0.00    -0.275 OA
ATOM     19  N   UNL     1      -1.101   2.053   0.018  0.00  0.00    -0.235 N 
ATOM     20  C   UNL     1      -0.785   3.347   0.314  0.00  0.00    +0.227 C 
ATOM     21  O   UNL     1      -1.498   4.316   0.167  0.00  0.00    -0.275 OA
ENDROOT
BRANCH  19  22
ATOM     22  C   UNL     1      -2.467   1.605  -0.262  0.00  0.00    +0.046 C 
ATOM     23  C   UNL     1      -2.530   1.008  -1.669  0.00  0.00    +0.030 C 
ATOM     24  C   UNL     1      -3.957   0.540  -1.961  0.00  0.00    -0.008 C 
ATOM     25  C   UNL     1      -4.914   1.730  -1.868  0.00  0.00    +0.007 C 
ATOM     26  C   UNL     1      -4.851   2.326  -0.460  0.00  0.00    -0.008 C 
ATOM     27  C   UNL     1      -3.424   2.795  -0.168  0.00  0.00    +0.030 C 
ATOM     28  C   UNL     1      -5.258   1.263   0.563  0.00  0.00    +0.007 C 
ATOM     29  C   UNL     1      -4.301   0.073   0.469  0.00  0.00    -0.008 C 
ATOM     30  C   UNL     1      -4.364  -0.523  -0.938  0.00  0.00    +0.007 C 
ATOM     31  C   UNL     1      -2.874   0.542   0.761  0.00  0.00    +0.030 C 
ENDBRANCH  19  22
TORSDOF 1
