REMARK  Name = ZINC59716565
REMARK  6 active torsions:
REMARK  status: ('A' for Active; 'I' for Inactive)
REMARK    1  A    between atoms: C_4  and  C_7
REMARK    2  A    between atoms: C_8  and  C_9
REMARK    3  A    between atoms: N_11  and  C_12
REMARK    4  A    between atoms: C_12  and  N_14
REMARK    5  A    between atoms: N_14  and  C_15
REMARK    6  A    between atoms: C_22  and  C_24
REMARK                            x       y       z     vdW  Elec       q    Type
REMARK                         _______ _______ _______ _____ _____    ______ ____
ROOT
ATOM      1  C   UNL     1       7.392  -6.843  -0.206  0.00  0.00    +0.035 A 
ATOM      2  C   UNL     1       8.629  -6.214  -0.088  0.00  0.00    +0.027 A 
ATOM      3  C   UNL     1       9.793  -6.953  -0.104  0.00  0.00    +0.050 A 
ATOM      4  C   UNL     1       9.736  -8.332  -0.239  0.00  0.00    +0.156 A 
ATOM      5  C   UNL     1       8.492  -8.974  -0.359  0.00  0.00    +0.112 A 
ATOM      6  C   UNL     1       7.318  -8.217  -0.337  0.00  0.00    +0.054 A 
ATOM      7  N   UNL     1       8.748 -10.302  -0.476  0.00  0.00    -0.209 NA
ATOM      8  C   UNL     1      10.044 -10.487  -0.433  0.00  0.00    +0.229 A 
ATOM      9  O   UNL     1      10.674  -9.305  -0.289  0.00  0.00    -0.435 OA
ENDROOT
BRANCH   8  10
ATOM     10  C   UNL     1      10.716 -11.796  -0.528  0.00  0.00    +0.045 A 
ATOM     11  C   UNL     1      11.729 -12.131   0.357  0.00  0.00    +0.014 A 
ATOM     12  C   UNL     1      12.365 -13.364   0.273  0.00  0.00    +0.001 A 
ATOM     13  C   UNL     1      12.013 -14.275  -0.677  0.00  0.00    +0.008 A 
ATOM     14  C   UNL     1      10.991 -13.979  -1.595  0.00  0.00    -0.017 A 
ATOM     15  C   UNL     1      10.328 -12.730  -1.522  0.00  0.00    -0.006 A 
ATOM     16  C   UNL     1       9.306 -12.437  -2.435  0.00  0.00    +0.009 A 
ATOM     17  C   UNL     1       8.959 -13.358  -3.377  0.00  0.00    +0.001 A 
ATOM     18  C   UNL     1       9.607 -14.589  -3.448  0.00  0.00    +0.001 A 
ATOM     19  C   UNL     1      10.611 -14.903  -2.584  0.00  0.00    +0.008 A 
ENDBRANCH   8  10
BRANCH   1  20
ATOM     20  N   UNL     1       6.217  -6.080  -0.188  0.00  0.00    -0.297 N 
ATOM     21  H   UNL     1       5.465  -6.362   0.355  0.00  0.00    +0.154 HD
BRANCH  20  22
ATOM     22  C   UNL     1       6.133  -4.955  -0.925  0.00  0.00    +0.141 C 
ATOM     23  S   UNL     1       7.497  -4.399  -1.798  0.00  0.00    -0.018 S 
BRANCH  22  26
ATOM     24  C   UNL     1       4.890  -3.143  -1.713  0.00  0.00    +0.242 C 
ATOM     25  O   UNL     1       5.859  -2.748  -2.333  0.00  0.00    -0.270 OA
ATOM     26  N   UNL     1       4.974  -4.268  -0.976  0.00  0.00    -0.264 N 
ATOM     27  H   UNL     1       4.202  -4.583  -0.481  0.00  0.00    +0.157 HD
BRANCH  24  29
ATOM     28  C   UNL     1       3.548  -1.271  -2.505  0.00  0.00    +0.013 C 
ATOM     29  C   UNL     1       3.632  -2.397  -1.768  0.00  0.00    +0.068 C 
BRANCH  28  33
ATOM     30  C   UNL     1      -0.098   0.891  -2.665  0.00  0.00    +0.000 A 
ATOM     31  C   UNL     1       1.002   1.345  -3.371  0.00  0.00    +0.001 A 
ATOM     32  C   UNL     1       2.191   0.647  -3.324  0.00  0.00    +0.008 A 
ATOM     33  C   UNL     1       2.283  -0.520  -2.560  0.00  0.00    -0.025 A 
ATOM     34  C   UNL     1       1.166  -0.972  -1.849  0.00  0.00    +0.008 A 
ATOM     35  C   UNL     1      -0.015  -0.264  -1.906  0.00  0.00    +0.001 A 
ENDBRANCH  28  33
ENDBRANCH  24  29
ENDBRANCH  22  26
ENDBRANCH  20  22
ENDBRANCH   1  20
TORSDOF 6
