REMARK  Name = ZINC34759182
REMARK  10 active torsions:
REMARK  status: ('A' for Active; 'I' for Inactive)
REMARK    1  A    between atoms: C_1  and  C_2
REMARK    2  A    between atoms: C_5  and  C_9
REMARK    3  A    between atoms: C_6  and  C_8
REMARK    4  A    between atoms: C_9  and  S_10
REMARK    5  A    between atoms: S_10  and  C_11
REMARK    6  A    between atoms: C_15  and  C_21
REMARK    7  A    between atoms: C_16  and  C_20
REMARK    8  A    between atoms: N_25  and  C_28
REMARK    9  A    between atoms: C_28  and  C_29
REMARK   10  A    between atoms: C_29  and  C_31
REMARK                            x       y       z     vdW  Elec       q    Type
REMARK                         _______ _______ _______ _____ _____    ______ ____
ROOT
ATOM      1  C   UNL     1       1.657  -6.553   0.355  0.00  0.00    +0.191 A 
ATOM      2  N   UNL     1       2.760  -7.291   0.397  0.00  0.00    -0.206 NA
ATOM      3  C   UNL     1       2.720  -8.612   0.437  0.00  0.00    +0.134 A 
ATOM      4  C   UNL     1       1.459  -9.271   0.436  0.00  0.00    +0.051 A 
ATOM      5  C   UNL     1       1.155 -10.692   0.475  0.00  0.00    -0.028 A 
ATOM      6  C   UNL     1      -0.126 -11.088   0.466  0.00  0.00    -0.008 A 
ATOM      7  S   UNL     1      -1.035  -9.555   0.403  0.00  0.00    -0.073 S 
ATOM      8  C   UNL     1       0.330  -8.424   0.391  0.00  0.00    +0.115 A 
ATOM      9  N   UNL     1       0.455  -7.112   0.358  0.00  0.00    -0.215 NA
ATOM     10  C   UNL     1      -0.668 -12.493   0.500  0.00  0.00    +0.052 C 
ATOM     11  C   UNL     1       2.266 -11.708   0.525  0.00  0.00    +0.045 C 
ATOM     12  N   UNL     1       3.891  -9.346   0.479  0.00  0.00    -0.318 N 
ATOM     13  C   UNL     1       4.636  -9.652  -0.752  0.00  0.00    +0.088 C 
ATOM     14  C   UNL     1       6.104  -9.264  -0.541  0.00  0.00    -0.059 C 
ATOM     15  N   UNL     1       6.618  -9.933   0.661  0.00  0.00    +0.384 N 
ATOM     16  C   UNL     1       5.905  -9.444   1.848  0.00  0.00    -0.059 C 
ATOM     17  C   UNL     1       4.431  -9.836   1.756  0.00  0.00    +0.088 C 
ATOM     18  H   UNL     1       6.481 -10.929   0.575  0.00  0.00    -0.081 HD
ENDROOT
BRANCH   1  19
ATOM     19  S   UNL     1       1.794  -4.797   0.304  0.00  0.00    -0.081 S 
BRANCH  19  20
ATOM     20  C   UNL     1       0.074  -4.223   0.265  0.00  0.00    +0.112 C 
BRANCH  20  25
ATOM     21  C   UNL     1      -0.032   1.552   0.088  0.00  0.00    +0.044 C 
ATOM     22  C   UNL     1      -0.004   0.046   0.134  0.00  0.00    -0.050 A 
ATOM     23  C   UNL     1       0.024  -0.682  -1.041  0.00  0.00    +0.003 A 
ATOM     24  C   UNL     1       0.049  -2.063  -0.999  0.00  0.00    +0.005 A 
ATOM     25  C   UNL     1       0.047  -2.717   0.219  0.00  0.00    -0.034 A 
ATOM     26  C   UNL     1       0.020  -1.990   1.394  0.00  0.00    -0.046 A 
ATOM     27  C   UNL     1      -0.001  -0.608   1.352  0.00  0.00    +0.007 A 
ATOM     28  C   UNL     1       0.017  -2.704   2.721  0.00  0.00    +0.044 C 
ENDBRANCH  20  25
ENDBRANCH  19  20
ENDBRANCH   1  19
BRANCH  15  29
ATOM     29  C   UNL     1       8.052  -9.649   0.801  0.00  0.00    -0.048 C 
BRANCH  29  30
ATOM     30  C   UNL     1       8.608 -10.432   1.963  0.00  0.00    -0.096 C 
ATOM     31  C   UNL     1       9.177 -11.594   1.757  0.00  0.00    +0.005 C 
ATOM     32  C   UNL     1       8.509  -9.879   3.361  0.00  0.00    +0.036 C 
ENDBRANCH  29  30
ENDBRANCH  15  29
TORSDOF 5
