REMARK  Name = ZINC01922874
REMARK  10 active torsions:
REMARK  status: ('A' for Active; 'I' for Inactive)
REMARK    1  A    between atoms: C_1  and  N_2
REMARK    2  A    between atoms: N_2  and  C_3
REMARK    3  A    between atoms: N_2  and  S_4
REMARK    4  A    between atoms: S_4  and  C_7
REMARK    5  A    between atoms: C_10  and  N_13
REMARK    6  A    between atoms: C_14  and  C_16
REMARK    7  A    between atoms: C_16  and  N_17
REMARK    8  A    between atoms: C_21  and  S_22
REMARK    9  A    between atoms: S_22  and  C_23
REMARK   10  A    between atoms: C_23  and  C_24
REMARK                            x       y       z     vdW  Elec       q    Type
REMARK                         _______ _______ _______ _____ _____    ______ ____
ROOT
ATOM      1  C   UNL     1      -3.872  -2.255  -3.973  0.00  0.00    +0.223 C 
ENDROOT
BRANCH   1   2
ATOM      2  N   UNL     1      -4.125  -2.429  -2.540  0.00  0.00    -0.282 N 
ATOM      3  C   UNL     1      -5.189  -3.083  -1.986  0.00  0.00    +0.216 A 
ATOM      4  N   UNL     1      -5.069  -3.021  -0.683  0.00  0.00    -0.113 NA
ATOM      5  N   UNL     1      -3.895  -2.315  -0.389  0.00  0.00    -0.121 NA
ATOM      6  C   UNL     1      -3.337  -1.967  -1.523  0.00  0.00    +0.194 A 
ATOM      7  N   UNL     1      -6.221  -3.700  -2.683  0.00  0.00    -0.328 N 
ATOM      8  H   UNL     1      -6.938  -4.138  -2.199  0.00  0.00    +0.145 HD
ATOM      9  H   UNL     1      -6.223  -3.692  -3.653  0.00  0.00    +0.145 HD
BRANCH   6  10
ATOM     10  S   UNL     1      -1.839  -1.059  -1.705  0.00  0.00    -0.081 S 
BRANCH  10  11
ATOM     11  C   UNL     1      -1.303  -0.750   0.001  0.00  0.00    +0.114 C 
BRANCH  11  12
ATOM     12  C   UNL     1      -0.014   0.030  -0.011  0.00  0.00    -0.019 A 
ATOM     13  C   UNL     1       1.197  -0.637  -0.026  0.00  0.00    +0.006 A 
ATOM     14  C   UNL     1       2.380   0.079  -0.037  0.00  0.00    +0.000 A 
ATOM     15  C   UNL     1       2.352   1.461  -0.033  0.00  0.00    +0.001 A 
ATOM     16  C   UNL     1       1.142   2.128  -0.018  0.00  0.00    +0.020 A 
ATOM     17  C   UNL     1      -0.042   1.413  -0.007  0.00  0.00    +0.045 A 
ATOM     18 CL   UNL     1      -1.563   2.250   0.005  0.00  0.00    -0.083 Cl
ENDBRANCH  11  12
ENDBRANCH  10  11
ENDBRANCH   6  10
ENDBRANCH   1   2
BRANCH   1  20
ATOM     19  N   UNL     1      -2.695  -3.464  -5.781  0.00  0.00    -0.284 N 
ATOM     20  C   UNL     1      -3.051  -3.411  -4.482  0.00  0.00    +0.237 C 
ATOM     21  O   UNL     1      -2.710  -4.293  -3.723  0.00  0.00    -0.274 OA
ATOM     22  H   UNL     1      -3.022  -2.795  -6.401  0.00  0.00    +0.155 HD
BRANCH  19  26
ATOM     23  C   UNL     1      -0.186  -6.504  -7.130  0.00  0.00    +0.106 A 
ATOM     24  C   UNL     1      -1.109  -6.763  -6.133  0.00  0.00    +0.030 A 
ATOM     25  C   UNL     1      -1.942  -5.757  -5.683  0.00  0.00    +0.025 A 
ATOM     26  C   UNL     1      -1.852  -4.485  -6.234  0.00  0.00    +0.034 A 
ATOM     27  C   UNL     1      -0.928  -4.230  -7.239  0.00  0.00    +0.025 A 
ATOM     28  C   UNL     1      -0.094  -5.239  -7.680  0.00  0.00    +0.030 A 
BRANCH  23  29
ATOM     29  S   UNL     1       0.876  -7.790  -7.700  0.00  0.00    +0.060 S 
ATOM     30  O   UNL     1       2.020  -7.155  -8.254  0.00  0.00    -0.153 OA
ATOM     31  O   UNL     1       0.966  -8.739  -6.646  0.00  0.00    -0.153 OA
BRANCH  29  33
ATOM     32  C   UNL     1       0.294  -8.073 -10.326  0.00  0.00    +0.131 C 
ATOM     33  N   UNL     1       0.101  -8.546  -8.953  0.00  0.00    -0.183 NA
ATOM     34  C   UNL     1      -0.779  -9.686  -8.688  0.00  0.00    +0.131 C 
ENDBRANCH  29  33
ENDBRANCH  23  29
ENDBRANCH  19  26
ENDBRANCH   1  20
TORSDOF 8
