REMARK  Name = ZINC38550640
REMARK  6 active torsions:
REMARK  status: ('A' for Active; 'I' for Inactive)
REMARK    1  A    between atoms: C_1  and  C_2
REMARK    2  A    between atoms: C_5  and  C_8
REMARK    3  A    between atoms: C_8  and  C_10
REMARK    4  A    between atoms: C_8  and  N_27
REMARK    5  A    between atoms: C_14  and  N_15
REMARK    6  A    between atoms: C_16  and  C_18
REMARK                            x       y       z     vdW  Elec       q    Type
REMARK                         _______ _______ _______ _____ _____    ______ ____
ROOT
ATOM      1  C   UNL     1      -1.194  -5.071   0.226  0.00  0.00    +0.009 A 
ATOM      2  C   UNL     1      -1.881  -5.607  -0.864  0.00  0.00    -0.030 A 
ATOM      3  C   UNL     1      -3.045  -6.255  -0.592  0.00  0.00    -0.005 A 
ATOM      4  S   UNL     1      -3.201  -6.130   1.169  0.00  0.00    -0.078 S 
ATOM      5  C   UNL     1      -1.697  -5.218   1.481  0.00  0.00    +0.078 A 
ATOM      6  C   UNL     1      -3.970  -6.913  -1.565  0.00  0.00    +0.043 C 
ATOM      7  C   UNL     1      -3.602  -6.439  -2.978  0.00  0.00    +0.005 C 
ATOM      8  C   UNL     1      -2.084  -6.549  -3.154  0.00  0.00    +0.005 C 
ATOM      9  C   UNL     1      -1.381  -5.492  -2.302  0.00  0.00    +0.036 C 
ENDROOT
BRANCH   5  10
ATOM     10  N   UNL     1      -1.175  -4.769   2.696  0.00  0.00    -0.273 N 
ATOM     11  C   UNL     1      -1.866  -4.960   3.837  0.00  0.00    +0.284 C 
ATOM     12  O   UNL     1      -2.901  -5.600   3.822  0.00  0.00    -0.266 OA
ATOM     13  H   UNL     1      -0.315  -4.322   2.719  0.00  0.00    +0.156 HD
BRANCH  11  14
ATOM     14  C   UNL     1      -1.372  -4.394   5.096  0.00  0.00    +0.189 A 
ATOM     15  C   UNL     1      -1.917  -4.591   6.333  0.00  0.00    +0.054 A 
ATOM     16  C   UNL     1      -1.127  -3.869   7.242  0.00  0.00    +0.042 A 
ATOM     17  C   UNL     1      -0.147  -3.271   6.529  0.00  0.00    +0.196 A 
ATOM     18  O   UNL     1      -0.295  -3.594   5.237  0.00  0.00    -0.458 OA
ENDBRANCH  11  14
ENDBRANCH   5  10
BRANCH   1  19
ATOM     19  C   UNL     1       0.105  -4.337   0.014  0.00  0.00    +0.135 C 
BRANCH  19  20
ATOM     20  N   UNL     1       1.064  -4.732   1.048  0.00  0.00    -0.320 N 
ATOM     21  C   UNL     1       1.715  -5.957   0.961  0.00  0.00    +0.097 A 
ATOM     22  C   UNL     1       1.522  -6.763  -0.157  0.00  0.00    +0.041 A 
ATOM     23  C   UNL     1       2.176  -7.979  -0.231  0.00  0.00    +0.005 A 
ATOM     24  C   UNL     1       3.005  -8.350   0.820  0.00  0.00    +0.018 A 
ATOM     25  C   UNL     1       3.151  -7.502   1.899  0.00  0.00    +0.084 A 
ATOM     26  N   UNL     1       2.518  -6.344   1.940  0.00  0.00    -0.350 N 
ATOM     27  H   UNL     1       1.244  -4.139   1.795  0.00  0.00    +0.148 HD
ATOM     28  H   UNL     1       2.641  -5.765   2.708  0.00  0.00    +0.166 HD
ENDBRANCH  19  20
BRANCH  19  33
ATOM     29  C   UNL     1      -0.831   1.357   0.326  0.00  0.00    +0.044 C 
ATOM     30  C   UNL     1      -0.587  -0.128   0.244  0.00  0.00    -0.050 A 
ATOM     31  C   UNL     1      -0.586  -0.762  -0.984  0.00  0.00    +0.004 A 
ATOM     32  C   UNL     1      -0.362  -2.124  -1.058  0.00  0.00    +0.006 A 
ATOM     33  C   UNL     1      -0.138  -2.852   0.095  0.00  0.00    -0.023 A 
ATOM     34  C   UNL     1      -0.138  -2.218   1.323  0.00  0.00    +0.006 A 
ATOM     35  C   UNL     1      -0.358  -0.855   1.398  0.00  0.00    +0.004 A 
ENDBRANCH  19  33
ENDBRANCH   1  19
TORSDOF 5
