REMARK  Name = ZINC39702208
REMARK  6 active torsions:
REMARK  status: ('A' for Active; 'I' for Inactive)
REMARK    1  A    between atoms: C_2  and  C_3
REMARK    2  A    between atoms: C_3  and  O_4
REMARK    3  A    between atoms: O_4  and  C_5
REMARK    4  A    between atoms: C_6  and  C_13
REMARK    5  A    between atoms: C_14  and  C_15
REMARK    6  A    between atoms: C_14  and  C_17
REMARK                            x       y       z     vdW  Elec       q    Type
REMARK                         _______ _______ _______ _____ _____    ______ ____
ROOT
ATOM      1  C   UNL     1       1.501  -4.085  -0.727  0.00  0.00    +0.030 C 
ATOM      2  C   UNL     1       1.697  -5.122  -1.569  0.00  0.00    +0.072 C 
ENDROOT
BRANCH   2   3
ATOM      3  C   UNL     1       0.677  -5.431  -2.635  0.00  0.00    +0.216 C 
ATOM      4  N   UNL     1       0.202  -6.812  -2.492  0.00  0.00    -0.359 N 
ATOM      5  C   UNL     1       0.500  -7.444  -3.590  0.00  0.00    +0.060 A 
ATOM      6  C   UNL     1       0.286  -8.827  -4.037  0.00  0.00    +0.027 A 
ATOM      7  C   UNL     1       0.715  -9.205  -5.258  0.00  0.00    +0.002 A 
ATOM      8  C   UNL     1       1.369  -8.325  -6.139  0.00  0.00    +0.002 A 
ATOM      9  C   UNL     1       1.616  -7.037  -5.828  0.00  0.00    +0.027 A 
ATOM     10  C   UNL     1       1.192  -6.512  -4.522  0.00  0.00    +0.060 A 
ATOM     11  N   UNL     1       1.294  -5.340  -3.964  0.00  0.00    -0.359 N 
ATOM     12  H   UNL     1      -0.252  -7.186  -1.720  0.00  0.00    +0.162 HD
ATOM     13  H   UNL     1       1.702  -4.552  -4.355  0.00  0.00    +0.162 HD
ENDBRANCH   2   3
BRANCH   1  15
ATOM     14  C   UNL     1       2.700  -2.573   0.849  0.00  0.00    +0.142 A 
ATOM     15  C   UNL     1       2.416  -3.874   0.404  0.00  0.00    +0.020 A 
ATOM     16  C   UNL     1       3.009  -4.968   1.043  0.00  0.00    +0.027 A 
ATOM     17  C   UNL     1       3.865  -4.762   2.104  0.00  0.00    +0.020 A 
ATOM     18  C   UNL     1       4.142  -3.476   2.540  0.00  0.00    +0.034 A 
ATOM     19  C   UNL     1       3.568  -2.386   1.913  0.00  0.00    +0.061 A 
ATOM     20 BR   UNL     1       3.961  -0.636   2.513  0.00  0.00    -0.046 Br
ATOM     21 BR   UNL     1       4.665  -6.241   2.968  0.00  0.00    -0.050 Br
BRANCH  14  22
ATOM     22  O   UNL     1       2.131  -1.504   0.236  0.00  0.00    -0.486 OA
BRANCH  22  23
ATOM     23  C   UNL     1       2.839  -0.935  -0.867  0.00  0.00    +0.256 C 
BRANCH  23  25
ATOM     24  C   UNL     1       2.677   1.353  -1.705  0.00  0.00    +0.007 C 
ATOM     25  C   UNL     1       2.061   0.233  -1.415  0.00  0.00    +0.006 C 
ENDBRANCH  23  25
ENDBRANCH  22  23
ENDBRANCH  14  22
ENDBRANCH   1  15
BRANCH   2  26
ATOM     26  C   UNL     1       2.874  -5.929  -1.450  0.00  0.00    +0.099 C 
ATOM     27  N   UNL     1       3.808  -6.569  -1.355  0.00  0.00    -0.191 NA
ENDBRANCH   2  26
TORSDOF 6
