REMARK  Name = ZINC45618324
REMARK  9 active torsions:
REMARK  status: ('A' for Active; 'I' for Inactive)
REMARK    1  A    between atoms: C_1  and  C_2
REMARK    2  A    between atoms: C_2  and  C_4
REMARK    3  A    between atoms: C_2  and  S_20
REMARK    4  A    between atoms: C_10  and  C_15
REMARK    5  A    between atoms: S_20  and  C_21
REMARK    6  A    between atoms: C_21  and  C_23
REMARK    7  A    between atoms: C_21  and  C_24
REMARK    8  A    between atoms: N_26  and  C_27
REMARK    9  A    between atoms: C_32  and  C_33
REMARK                            x       y       z     vdW  Elec       q    Type
REMARK                         _______ _______ _______ _____ _____    ______ ____
ROOT
ATOM      1  C   UNL     1      -0.052   1.506   0.007  0.00  0.00    +0.027 C 
ATOM      2  C   UNL     1      -0.024  -0.024   0.004  0.00  0.00    +0.110 C 
ENDROOT
BRANCH   2   3
ATOM      3  C   UNL     1       0.678  -0.511  -1.238  0.00  0.00    +0.124 A 
ATOM      4  N   UNL     1       0.244  -0.095  -2.456  0.00  0.00    -0.309 N 
ATOM      5  H   UNL     1      -0.512   0.510  -2.510  0.00  0.00    +0.170 HD
ATOM      6  C   UNL     1       0.843  -0.506  -3.589  0.00  0.00    +0.260 A 
ATOM      7  O   UNL     1       0.443  -0.123  -4.674  0.00  0.00    -0.267 OA
ATOM      8  C   UNL     1       1.958  -1.399  -3.500  0.00  0.00    +0.083 A 
ATOM      9  C   UNL     1       2.764  -1.978  -4.569  0.00  0.00    +0.039 A 
ATOM     10  C   UNL     1       3.785  -2.810  -4.237  0.00  0.00    +0.059 A 
ATOM     11  S   UNL     1       3.715  -2.859  -2.457  0.00  0.00    -0.076 S 
ATOM     12  C   UNL     1       2.334  -1.775  -2.200  0.00  0.00    +0.116 A 
ATOM     13  N   UNL     1       1.696  -1.321  -1.124  0.00  0.00    -0.225 NA
BRANCH   9  14
ATOM     14  C   UNL     1       2.476  -1.667  -5.983  0.00  0.00    +0.136 A 
ATOM     15  C   UNL     1       3.382  -1.259  -6.912  0.00  0.00    +0.050 A 
ATOM     16  C   UNL     1       2.675  -1.078  -8.118  0.00  0.00    +0.042 A 
ATOM     17  C   UNL     1       1.386  -1.381  -7.869  0.00  0.00    +0.196 A 
ATOM     18  O   UNL     1       1.270  -1.742  -6.579  0.00  0.00    -0.463 OA
ENDBRANCH   9  14
ENDBRANCH   2   3
BRANCH   2  19
ATOM     19  S   UNL     1       0.864  -0.615   1.471  0.00  0.00    -0.137 S 
BRANCH  19  20
ATOM     20  C   UNL     1      -0.176  -0.082   2.858  0.00  0.00    +0.130 C 
ATOM     21  C   UNL     1      -1.520  -0.812   2.798  0.00  0.00    +0.029 C 
BRANCH  20  22
ATOM     22  C   UNL     1       0.514  -0.407   4.158  0.00  0.00    +0.230 C 
ATOM     23  O   UNL     1       1.393  -1.242   4.185  0.00  0.00    -0.274 OA
ATOM     24  N   UNL     1       0.155   0.231   5.289  0.00  0.00    -0.284 N 
ATOM     25  H   UNL     1      -0.490   0.955   5.254  0.00  0.00    +0.155 HD
BRANCH  24  26
ATOM     26  C   UNL     1       0.713  -0.150   6.514  0.00  0.00    +0.045 A 
ATOM     27  C   UNL     1       1.202  -1.438   6.686  0.00  0.00    +0.024 A 
ATOM     28  C   UNL     1       1.752  -1.811   7.896  0.00  0.00    +0.002 A 
ATOM     29  C   UNL     1       1.815  -0.903   8.938  0.00  0.00    +0.001 A 
ATOM     30  C   UNL     1       1.329   0.380   8.771  0.00  0.00    +0.014 A 
ATOM     31  C   UNL     1       0.783   0.761   7.560  0.00  0.00    +0.076 A 
BRANCH  31  32
ATOM     32  C   UNL     1       0.260   2.162   7.377  0.00  0.00    +0.419 C 
ATOM     33  F   UNL     1       0.440   2.886   8.560  0.00  0.00    -0.166 F 
ATOM     34  F   UNL     1       0.956   2.788   6.337  0.00  0.00    -0.166 F 
ATOM     35  F   UNL     1      -1.103   2.114   7.063  0.00  0.00    -0.166 F 
ENDBRANCH  31  32
ENDBRANCH  24  26
ENDBRANCH  20  22
ENDBRANCH  19  20
ENDBRANCH   2  19
TORSDOF 7
