REMARK  Name = ZINC19902086
REMARK  12 active torsions:
REMARK  status: ('A' for Active; 'I' for Inactive)
REMARK    1  A    between atoms: C_1  and  C_2
REMARK    2  A    between atoms: C_3  and  C_14
REMARK    3  A    between atoms: C_5  and  S_7
REMARK    4  A    between atoms: S_7  and  C_8
REMARK    5  A    between atoms: C_14  and  C_16
REMARK    6  A    between atoms: N_20  and  C_30
REMARK    7  A    between atoms: C_21  and  C_23
REMARK    8  A    between atoms: C_27  and  O_29
REMARK    9  A    between atoms: C_30  and  C_31
REMARK   10  A    between atoms: C_31  and  N_32
REMARK   11  A    between atoms: N_32  and  C_33
REMARK   12  A    between atoms: N_32  and  C_34
REMARK                            x       y       z     vdW  Elec       q    Type
REMARK                         _______ _______ _______ _____ _____    ______ ____
ROOT
ATOM      1  C   UNL     1       1.509   2.582   0.130  0.00  0.00    +0.077 C 
ATOM      2  C   UNL     1       1.515   1.259  -0.150  0.00  0.00    +0.249 C 
ATOM      3  C   UNL     1       2.910   0.784  -0.222  0.00  0.00    +0.288 C 
ATOM      4  O   UNL     1       3.246  -0.361  -0.452  0.00  0.00    -0.266 OA
ATOM      5  N   UNL     1       3.756   1.806   0.002  0.00  0.00    -0.285 N 
ATOM      6  C   UNL     1       2.953   3.011   0.244  0.00  0.00    +0.145 C 
ATOM      7  O   UNL     1       0.415   0.491  -0.330  0.00  0.00    -0.282 OA
ENDROOT
BRANCH   6   8
ATOM      8  C   UNL     1       3.227   3.549   1.625  0.00  0.00    -0.019 A 
ATOM      9  C   UNL     1       3.267   2.688   2.706  0.00  0.00    +0.006 A 
ATOM     10  C   UNL     1       3.518   3.179   3.974  0.00  0.00    +0.004 A 
ATOM     11  C   UNL     1       3.729   4.531   4.164  0.00  0.00    +0.045 A 
ATOM     12  C   UNL     1       3.690   5.397   3.080  0.00  0.00    +0.117 A 
ATOM     13  C   UNL     1       3.443   4.901   1.808  0.00  0.00    +0.051 A 
BRANCH  12  14
ATOM     14  O   UNL     1       3.896   6.727   3.264  0.00  0.00    -0.507 OA
ATOM     15  H   UNL     1       3.865   7.413   2.405  0.00  0.00    +0.292 HD
ENDBRANCH  12  14
ENDBRANCH   6   8
BRANCH   1  16
ATOM     16  C   UNL     1       0.326   3.437   0.293  0.00  0.00    +0.203 C 
ATOM     17  O   UNL     1      -0.438   3.250   1.224  0.00  0.00    -0.286 OA
BRANCH  16  20
ATOM     18  C   UNL     1      -1.921   5.540   0.500  0.00  0.00    +0.067 C 
ATOM     19  C   UNL     1      -0.911   5.466  -0.617  0.00  0.00    +0.058 A 
ATOM     20  C   UNL     1       0.073   4.481  -0.633  0.00  0.00    +0.083 A 
ATOM     21  S   UNL     1       0.924   4.894  -2.150  0.00  0.00    -0.057 S 
ATOM     22  C   UNL     1      -0.048   6.263  -2.591  0.00  0.00    +0.140 A 
ATOM     23  N   UNL     1      -0.928   6.324  -1.600  0.00  0.00    -0.237 NA
BRANCH  22  24
ATOM     24  S   UNL     1       0.098   7.309  -4.001  0.00  0.00    -0.063 S 
BRANCH  24  25
ATOM     25  C   UNL     1      -1.133   8.511  -3.619  0.00  0.00    +0.015 A 
ATOM     26  C   UNL     1      -2.419   8.377  -4.127  0.00  0.00    +0.015 A 
ATOM     27  C   UNL     1      -3.382   9.318  -3.821  0.00  0.00    +0.001 A 
ATOM     28  C   UNL     1      -3.065  10.399  -3.019  0.00  0.00    +0.000 A 
ATOM     29  C   UNL     1      -1.784  10.539  -2.516  0.00  0.00    +0.001 A 
ATOM     30  C   UNL     1      -0.817   9.599  -2.814  0.00  0.00    +0.015 A 
ENDBRANCH  24  25
ENDBRANCH  22  24
ENDBRANCH  16  20
ENDBRANCH   1  16
BRANCH   5  31
ATOM     31  C   UNL     1       5.219   1.729   0.010  0.00  0.00    +0.090 C 
BRANCH  31  32
ATOM     32  C   UNL     1       5.705   1.403   1.423  0.00  0.00    -0.060 C 
BRANCH  32  33
ATOM     33  N   UNL     1       7.172   1.325   1.431  0.00  0.00    +0.377 N 
ATOM     34  C   UNL     1       7.770   2.637   1.150  0.00  0.00    -0.097 C 
ATOM     35  C   UNL     1       7.664   0.785   2.706  0.00  0.00    -0.097 C 
ATOM     36  H   UNL     1       7.478   0.636   0.631  0.00  0.00    -0.083 HD
ENDBRANCH  32  33
ENDBRANCH  31  32
ENDBRANCH   5  31
TORSDOF 9
