REMARK  Name = ZINC39988938
REMARK  7 active torsions:
REMARK  status: ('A' for Active; 'I' for Inactive)
REMARK    1  A    between atoms: C_4  and  C_7
REMARK    2  A    between atoms: C_17  and  C_19
REMARK    3  A    between atoms: C_22  and  C_25
REMARK    4  A    between atoms: C_31  and  C_33
REMARK    5  A    between atoms: C_33  and  C_34
REMARK    6  A    between atoms: C_34  and  C_35
REMARK    7  A    between atoms: C_35  and  C_36
REMARK                            x       y       z     vdW  Elec       q    Type
REMARK                         _______ _______ _______ _____ _____    ______ ____
ROOT
ATOM      1  C   UNL     1       3.648  -0.649  -0.037  0.00  0.00    -0.014 C 
ATOM      2  C   UNL     1       4.861   0.036  -0.144  0.00  0.00    +0.002 A 
ATOM      3  C   UNL     1       4.888   1.444  -0.239  0.00  0.00    +0.030 A 
ATOM      4  C   UNL     1       6.083   2.086  -0.342  0.00  0.00    +0.042 A 
ATOM      5  C   UNL     1       7.286   1.381  -0.355  0.00  0.00    +0.022 A 
ATOM      6  C   UNL     1       7.323   0.023  -0.268  0.00  0.00    +0.025 A 
ATOM      7  C   UNL     1       6.126  -0.707  -0.158  0.00  0.00    +0.041 A 
ATOM      8  N   UNL     1       6.165  -2.041  -0.071  0.00  0.00    -0.284 N 
ATOM      9  C   UNL     1       5.089  -2.796   0.033  0.00  0.00    +0.230 C 
ATOM     10  O   UNL     1       5.200  -4.006   0.108  0.00  0.00    -0.274 OA
ATOM     11  C   UNL     1       3.718  -2.161   0.066  0.00  0.00    +0.152 C 
ATOM     12 CL   UNL     1       6.111   3.818  -0.459  0.00  0.00    -0.084 Cl
ATOM     13  H   UNL     1       7.032  -2.477  -0.085  0.00  0.00    +0.155 HD
ENDROOT
BRANCH  11  14
ATOM     14  C   UNL     1       3.045  -2.567   1.352  0.00  0.00    +0.056 C 
ATOM     15  N   UNL     1       2.594  -1.765   2.227  0.00  0.00    -0.185 NA
ATOM     16  N   UNL     1       2.013  -2.382   3.332  0.00  0.00    -0.184 N 
ATOM     17  C   UNL     1       2.095  -3.841   3.156  0.00  0.00    +0.155 C 
ATOM     18  C   UNL     1       2.800  -3.993   1.792  0.00  0.00    +0.084 C 
ATOM     19  C   UNL     1       1.466  -1.748   4.389  0.00  0.00    +0.235 C 
ATOM     20  O   UNL     1       0.987  -2.390   5.300  0.00  0.00    -0.274 OA
BRANCH  17  21
ATOM     21  C   UNL     1       2.913  -4.465   4.258  0.00  0.00    +0.064 A 
ATOM     22  C   UNL     1       3.339  -3.686   5.317  0.00  0.00    +0.025 A 
ATOM     23  C   UNL     1       4.090  -4.269   6.325  0.00  0.00    +0.003 A 
ATOM     24  C   UNL     1       4.386  -5.620   6.231  0.00  0.00    +0.020 A 
ATOM     25  C   UNL     1       3.925  -6.336   5.142  0.00  0.00    +0.111 A 
ATOM     26  N   UNL     1       3.208  -5.749   4.204  0.00  0.00    -0.258 NA
ENDBRANCH  17  21
BRANCH  19  27
ATOM     27  C   UNL     1       1.450  -0.242   4.438  0.00  0.00    +0.098 C 
BRANCH  27  28
ATOM     28  C   UNL     1       0.777   0.219   5.732  0.00  0.00    +0.020 C 
BRANCH  28  29
ATOM     29  C   UNL     1       0.761   1.748   5.782  0.00  0.00    +0.125 C 
BRANCH  29  30
ATOM     30  C   UNL     1       0.099   2.202   7.058  0.00  0.00    +0.356 C 
ATOM     31  O   UNL     1      -0.321   1.379   7.853  0.00  0.00    -0.246 OA
ATOM     32  O   UNL     1      -0.018   3.392   7.294  0.00  0.00    -0.246 OA
ENDBRANCH  29  30
ENDBRANCH  28  29
ENDBRANCH  27  28
ENDBRANCH  19  27
ENDBRANCH  11  14
BRANCH   1  36
ATOM     33  C   UNL     1      -0.017   1.380   0.012  0.00  0.00    +0.000 A 
ATOM     34  C   UNL     1       0.259   0.483  -1.007  0.00  0.00    +0.001 A 
ATOM     35  C   UNL     1       1.460  -0.189  -1.033  0.00  0.00    +0.008 A 
ATOM     36  C   UNL     1       2.408   0.038  -0.021  0.00  0.00    -0.020 A 
ATOM     37  C   UNL     1       2.118   0.950   1.007  0.00  0.00    +0.008 A 
ATOM     38  C   UNL     1       0.910   1.611   1.014  0.00  0.00    +0.001 A 
ENDBRANCH   1  36
TORSDOF 7
