REMARK  Name = ZINC39605758
REMARK  8 active torsions:
REMARK  status: ('A' for Active; 'I' for Inactive)
REMARK    1  A    between atoms: C_1  and  C_2
REMARK    2  A    between atoms: C_2  and  C_3
REMARK    3  A    between atoms: C_3  and  C_5
REMARK    4  A    between atoms: C_3  and  C_6
REMARK    5  A    between atoms: C_6  and  N_7
REMARK    6  A    between atoms: C_8  and  C_10
REMARK    7  A    between atoms: C_21  and  C_23
REMARK    8  A    between atoms: C_26  and  C_29
REMARK                            x       y       z     vdW  Elec       q    Type
REMARK                         _______ _______ _______ _____ _____    ______ ____
ROOT
ATOM      1  C   UNL     1      -4.011  -4.357   1.080  0.00  0.00    +0.100 C 
ATOM      2  C   UNL     1      -4.917  -3.886   2.239  0.00  0.00    +0.121 C 
ATOM      3  N   UNL     1      -5.742  -5.070   2.575  0.00  0.00    -0.296 N 
ATOM      4  C   UNL     1      -4.807  -6.215   2.463  0.00  0.00    +0.115 C 
ATOM      5  C   UNL     1      -3.940  -5.886   1.230  0.00  0.00    -0.004 C 
ATOM      6  C   UNL     1      -4.509  -6.566  -0.011  0.00  0.00    -0.010 C 
ATOM      7  C   UNL     1      -4.376  -8.085   0.138  0.00  0.00    -0.082 C 
ATOM      8  N   UNL     1      -2.962  -8.439   0.311  0.00  0.00    +0.379 N 
ATOM      9  C   UNL     1      -2.448  -7.856   1.556  0.00  0.00    -0.082 C 
ATOM     10  C   UNL     1      -2.499  -6.329   1.467  0.00  0.00    -0.010 C 
ATOM     11  C   UNL     1      -7.048  -5.100   2.907  0.00  0.00    +0.247 C 
ATOM     12  O   UNL     1      -7.718  -4.088   2.831  0.00  0.00    -0.270 OA
ATOM     13  H   UNL     1      -2.870  -9.443   0.348  0.00  0.00    -0.086 HD
ATOM     14  H   UNL     1      -2.430  -8.084  -0.470  0.00  0.00    -0.086 HD
ENDROOT
BRANCH  11  15
ATOM     15  C   UNL     1      -7.666  -6.363   3.363  0.00  0.00    +0.037 A 
ATOM     16  C   UNL     1      -6.868  -7.394   3.862  0.00  0.00    +0.013 A 
ATOM     17  C   UNL     1      -7.451  -8.569   4.287  0.00  0.00    +0.013 A 
ATOM     18  C   UNL     1      -8.824  -8.729   4.219  0.00  0.00    +0.055 A 
ATOM     19  C   UNL     1      -9.620  -7.711   3.724  0.00  0.00    +0.013 A 
ATOM     20  C   UNL     1      -9.051  -6.528   3.302  0.00  0.00    +0.013 A 
BRANCH  18  21
ATOM     21  C   UNL     1      -9.454 -10.016   4.684  0.00  0.00    +0.417 C 
ATOM     22  F   UNL     1      -9.767  -9.917   6.044  0.00  0.00    -0.166 F 
ATOM     23  F   UNL     1     -10.622 -10.255   3.953  0.00  0.00    -0.166 F 
ATOM     24  F   UNL     1      -8.557 -11.072   4.488  0.00  0.00    -0.166 F 
ENDBRANCH  18  21
ENDBRANCH  11  15
BRANCH   1  26
ATOM     25  N   UNL     1      -1.902  -3.505   0.107  0.00  0.00    -0.315 N 
ATOM     26  C   UNL     1      -2.636  -3.753   1.210  0.00  0.00    +0.218 C 
ATOM     27  O   UNL     1      -2.190  -3.491   2.307  0.00  0.00    -0.275 OA
ATOM     28  H   UNL     1      -2.259  -3.715  -0.770  0.00  0.00    +0.149 HD
BRANCH  25  29
ATOM     29  C   UNL     1      -0.566  -2.918   0.233  0.00  0.00    +0.107 C 
BRANCH  29  30
ATOM     30  C   UNL     1       0.047  -2.740  -1.157  0.00  0.00    +0.003 C 
ATOM     31  C   UNL     1       0.266  -4.113  -1.797  0.00  0.00    +0.009 C 
BRANCH  30  33
ATOM     32  C   UNL     1       1.941  -1.726  -2.432  0.00  0.00    +0.004 C 
ATOM     33  C   UNL     1       1.388  -2.014  -1.035  0.00  0.00    +0.001 C 
ENDBRANCH  30  33
ENDBRANCH  29  30
ENDBRANCH  25  29
ENDBRANCH   1  26
TORSDOF 6
