REMARK  Name = ZINC44443704
REMARK  5 active torsions:
REMARK  status: ('A' for Active; 'I' for Inactive)
REMARK    1  A    between atoms: C_1  and  C_2
REMARK    2  A    between atoms: C_9  and  C_11
REMARK    3  A    between atoms: C_11  and  N_12
REMARK    4  A    between atoms: C_15  and  C_18
REMARK    5  A    between atoms: C_23  and  C_26
REMARK                            x       y       z     vdW  Elec       q    Type
REMARK                         _______ _______ _______ _____ _____    ______ ____
ROOT
ATOM      1  N   UNL     1      -1.278  -6.101   2.390  0.00  0.00    -0.295 NA
ATOM      2  C   UNL     1      -2.084  -5.240   3.266  0.00  0.00    +0.085 C 
ATOM      3  C   UNL     1      -3.538  -5.718   3.257  0.00  0.00    +0.028 C 
ATOM      4  C   UNL     1      -3.596  -7.169   3.742  0.00  0.00    +0.078 C 
ATOM      5  C   UNL     1      -2.710  -8.036   2.842  0.00  0.00    +0.028 C 
ATOM      6  C   UNL     1      -1.281  -7.490   2.864  0.00  0.00    +0.085 C 
ENDROOT
BRANCH   4   7
ATOM      7  C   UNL     1      -5.017  -7.665   3.678  0.00  0.00    +0.219 C 
ATOM      8  O   UNL     1      -5.803  -7.156   2.908  0.00  0.00    -0.275 OA
ATOM      9  N   UNL     1      -5.415  -8.675   4.477  0.00  0.00    -0.301 N 
ATOM     10  C   UNL     1      -4.508  -9.230   5.491  0.00  0.00    +0.108 C 
ATOM     11  C   UNL     1      -4.416 -10.746   5.294  0.00  0.00    +0.032 C 
ATOM     12  C   UNL     1      -5.824 -11.345   5.315  0.00  0.00    +0.078 C 
ATOM     13  C   UNL     1      -6.649 -10.757   4.167  0.00  0.00    +0.032 C 
ATOM     14  C   UNL     1      -6.767  -9.237   4.356  0.00  0.00    +0.108 C 
BRANCH  12  15
ATOM     15  C   UNL     1      -5.736 -12.841   5.156  0.00  0.00    +0.200 A 
ATOM     16  N   UNL     1      -5.211 -13.449   4.135  0.00  0.00    -0.213 NA
ATOM     17  C   UNL     1      -5.304 -14.792   4.329  0.00  0.00    +0.110 A 
ATOM     18  C   UNL     1      -4.916 -15.906   3.582  0.00  0.00    +0.031 A 
ATOM     19  C   UNL     1      -5.158 -17.171   4.067  0.00  0.00    +0.002 A 
ATOM     20  C   UNL     1      -5.784 -17.346   5.292  0.00  0.00    +0.004 A 
ATOM     21  C   UNL     1      -6.173 -16.256   6.041  0.00  0.00    +0.048 A 
ATOM     22  C   UNL     1      -5.937 -14.973   5.568  0.00  0.00    +0.155 A 
ATOM     23  O   UNL     1      -6.184 -13.736   6.051  0.00  0.00    -0.439 OA
ENDBRANCH  12  15
ENDBRANCH   4   7
BRANCH   1  24
ATOM     24  C   UNL     1       0.093  -5.589   2.266  0.00  0.00    +0.158 C 
BRANCH  24  33
ATOM     25  C   UNL     1      -0.023   1.489  -0.030  0.00  0.00    +0.044 C 
ATOM     26  C   UNL     1       0.002  -0.018  -0.026  0.00  0.00    -0.048 A 
ATOM     27  C   UNL     1       0.015  -0.710  -1.229  0.00  0.00    +0.005 A 
ATOM     28  C   UNL     1       0.038  -2.075  -1.247  0.00  0.00    +0.030 A 
ATOM     29  C   UNL     1       0.049  -2.787  -0.045  0.00  0.00    +0.089 A 
ATOM     30  C   UNL     1       0.035  -2.087   1.173  0.00  0.00    +0.066 A 
ATOM     31  C   UNL     1       0.017  -0.699   1.172  0.00  0.00    +0.031 A 
ATOM     32  N   UNL     1       0.050  -3.047   2.165  0.00  0.00    -0.341 N 
ATOM     33  C   UNL     1       0.071  -4.262   1.552  0.00  0.00    +0.122 A 
ATOM     34  N   UNL     1       0.070  -4.110   0.260  0.00  0.00    -0.231 NA
ATOM     35  H   UNL     1       0.047  -2.886   3.122  0.00  0.00    +0.167 HD
ENDBRANCH  24  33
ENDBRANCH   1  24
TORSDOF 4
