REMARK  Name = ZINC16511175
REMARK  9 active torsions:
REMARK  status: ('A' for Active; 'I' for Inactive)
REMARK    1  A    between atoms: C_1  and  C_2
REMARK    2  A    between atoms: C_5  and  C_31
REMARK    3  A    between atoms: C_6  and  N_8
REMARK    4  A    between atoms: C_9  and  S_13
REMARK    5  A    between atoms: S_13  and  C_14
REMARK    6  A    between atoms: C_14  and  C_15
REMARK    7  A    between atoms: N_17  and  C_18
REMARK    8  A    between atoms: C_19  and  C_29
REMARK    9  A    between atoms: C_24  and  C_28
REMARK                            x       y       z     vdW  Elec       q    Type
REMARK                         _______ _______ _______ _____ _____    ______ ____
ROOT
ATOM      1  C   UNL     1       1.298  -7.106  -3.009  0.00  0.00    +0.228 C 
ATOM      2  O   UNL     1       1.271  -6.119  -3.713  0.00  0.00    -0.275 OA
ATOM      3  N   UNL     1       0.832  -7.046  -1.746  0.00  0.00    -0.278 N 
ATOM      4  H   UNL     1       0.854  -7.836  -1.183  0.00  0.00    +0.155 HD
ENDROOT
BRANCH   3   5
ATOM      5  C   UNL     1       0.321  -5.854  -1.250  0.00  0.00    +0.090 A 
ATOM      6  C   UNL     1      -0.199  -5.597   0.009  0.00  0.00    +0.084 A 
ATOM      7  C   UNL     1      -0.673  -4.251   0.279  0.00  0.00    -0.018 A 
ATOM      8  C   UNL     1      -0.553  -3.382  -0.750  0.00  0.00    -0.004 A 
ATOM      9  S   UNL     1       0.178  -4.327  -2.056  0.00  0.00    -0.077 S 
ATOM     10  C   UNL     1      -0.956  -1.940  -0.765  0.00  0.00    +0.046 C 
ATOM     11  C   UNL     1      -1.873  -1.681   0.439  0.00  0.00    -0.009 C 
ATOM     12  C   UNL     1      -1.228  -2.286   1.690  0.00  0.00    +0.008 C 
ATOM     13  C   UNL     1      -1.270  -3.813   1.610  0.00  0.00    +0.037 C 
ATOM     14  C   UNL     1      -2.052  -0.174   0.632  0.00  0.00    +0.008 C 
BRANCH   6  15
ATOM     15  C   UNL     1      -0.267  -6.622   1.008  0.00  0.00    +0.102 C 
ATOM     16  N   UNL     1      -0.320  -7.434   1.800  0.00  0.00    -0.191 NA
ENDBRANCH   6  15
ENDBRANCH   3   5
BRANCH   1  17
ATOM     17  C   UNL     1       1.853  -8.400  -3.546  0.00  0.00    +0.173 C 
BRANCH  17  18
ATOM     18  S   UNL     1       2.394  -8.160  -5.257  0.00  0.00    -0.075 S 
BRANCH  18  20
ATOM     19  N   UNL     1       3.514 -10.200  -6.797  0.00  0.00    -0.187 N 
ATOM     20  C   UNL     1       2.979  -9.781  -5.623  0.00  0.00    +0.214 A 
ATOM     21  N   UNL     1       2.986 -10.814  -4.807  0.00  0.00    -0.101 NA
ATOM     22  N   UNL     1       3.477 -11.846  -5.391  0.00  0.00    -0.022 NA
ATOM     23  N   UNL     1       3.825 -11.556  -6.598  0.00  0.00    -0.038 NA
BRANCH  19  29
ATOM     24  C   UNL     1       1.777  -7.044 -10.146  0.00  0.00    +0.044 C 
ATOM     25  C   UNL     1       2.889  -7.904  -9.604  0.00  0.00    -0.048 A 
ATOM     26  C   UNL     1       4.109  -7.947 -10.254  0.00  0.00    +0.004 A 
ATOM     27  C   UNL     1       5.132  -8.735  -9.760  0.00  0.00    +0.006 A 
ATOM     28  C   UNL     1       4.940  -9.479  -8.612  0.00  0.00    -0.025 A 
ATOM     29  C   UNL     1       3.715  -9.442  -7.960  0.00  0.00    +0.073 A 
ATOM     30  C   UNL     1       2.689  -8.649  -8.459  0.00  0.00    +0.031 A 
ATOM     31  C   UNL     1       6.057 -10.332  -8.070  0.00  0.00    +0.046 C 
ENDBRANCH  19  29
ENDBRANCH  18  20
ENDBRANCH  17  18
ENDBRANCH   1  17
TORSDOF 6
