REMARK  Name = ZINC63304988
REMARK  9 active torsions:
REMARK  status: ('A' for Active; 'I' for Inactive)
REMARK    1  A    between atoms: C_1  and  C_2
REMARK    2  A    between atoms: C_6  and  C_25
REMARK    3  A    between atoms: C_7  and  N_8
REMARK    4  A    between atoms: N_8  and  S_9
REMARK    5  A    between atoms: S_9  and  C_12
REMARK    6  A    between atoms: C_15  and  N_18
REMARK    7  A    between atoms: C_19  and  C_21
REMARK    8  A    between atoms: C_22  and  C_23
REMARK    9  A    between atoms: C_22  and  C_24
REMARK                            x       y       z     vdW  Elec       q    Type
REMARK                         _______ _______ _______ _____ _____    ______ ____
ROOT
ATOM      1  C   UNL     1       0.917  -3.634   4.482  0.00  0.00    +0.109 A 
ATOM      2  C   UNL     1       1.631  -4.626   3.835  0.00  0.00    +0.030 A 
ATOM      3  C   UNL     1       3.005  -4.535   3.735  0.00  0.00    +0.025 A 
ATOM      4  C   UNL     1       3.670  -3.447   4.284  0.00  0.00    +0.034 A 
ATOM      5  C   UNL     1       2.950  -2.452   4.933  0.00  0.00    +0.025 A 
ATOM      6  C   UNL     1       1.575  -2.546   5.025  0.00  0.00    +0.030 A 
ENDROOT
BRANCH   4   7
ATOM      7  N   UNL     1       5.062  -3.352   4.185  0.00  0.00    -0.282 N 
ATOM      8  C   UNL     1       5.771  -2.779   5.178  0.00  0.00    +0.241 C 
ATOM      9  O   UNL     1       5.214  -2.434   6.202  0.00  0.00    -0.270 OA
ATOM     10  H   UNL     1       5.517  -3.699   3.402  0.00  0.00    +0.155 HD
BRANCH   8  11
ATOM     11  C   UNL     1       7.218  -2.571   5.022  0.00  0.00    +0.066 C 
ATOM     12  C   UNL     1       7.923  -2.034   6.014  0.00  0.00    -0.071 C 
ATOM     13  C   UNL     1       7.219  -1.478   7.224  0.00  0.00    +0.039 C 
ATOM     14  C   UNL     1       9.427  -1.981   5.926  0.00  0.00    +0.039 C 
ENDBRANCH   8  11
ENDBRANCH   4   7
BRANCH   1  15
ATOM     15  S   UNL     1      -0.837  -3.753   4.607  0.00  0.00    +0.072 S 
ATOM     16  O   UNL     1      -1.206  -3.067   5.796  0.00  0.00    -0.150 OA
ATOM     17  O   UNL     1      -1.169  -5.116   4.380  0.00  0.00    -0.150 OA
BRANCH  15  18
ATOM     18  N   UNL     1      -1.478  -2.893   3.346  0.00  0.00    -0.216 N 
ATOM     19  H   UNL     1      -2.021  -2.108   3.520  0.00  0.00    +0.174 HD
BRANCH  18  26
ATOM     20  C   UNL     1       0.220  -1.275   1.734  0.00  0.00    +0.046 C 
ATOM     21  C   UNL     1      -0.414  -2.537   1.208  0.00  0.00    -0.028 A 
ATOM     22  C   UNL     1      -0.173  -2.943  -0.089  0.00  0.00    +0.005 A 
ATOM     23  C   UNL     1      -0.754  -4.101  -0.573  0.00  0.00    +0.001 A 
ATOM     24  C   UNL     1      -1.578  -4.857   0.241  0.00  0.00    +0.005 A 
ATOM     25  C   UNL     1      -1.823  -4.457   1.540  0.00  0.00    -0.028 A 
ATOM     26  C   UNL     1      -1.236  -3.297   2.031  0.00  0.00    +0.054 A 
ATOM     27  C   UNL     1      -2.720  -5.282   2.427  0.00  0.00    +0.046 C 
ENDBRANCH  18  26
ENDBRANCH  15  18
ENDBRANCH   1  15
TORSDOF 5
