REMARK  Name = ZINC38965850
REMARK  7 active torsions:
REMARK  status: ('A' for Active; 'I' for Inactive)
REMARK    1  A    between atoms: C_7  and  C_10
REMARK    2  A    between atoms: C_10  and  C_11
REMARK    3  A    between atoms: C_11  and  C_13
REMARK    4  A    between atoms: C_11  and  N_30
REMARK    5  A    between atoms: C_17  and  S_20
REMARK    6  A    between atoms: S_20  and  C_21
REMARK    7  A    between atoms: C_21  and  C_22
REMARK                            x       y       z     vdW  Elec       q    Type
REMARK                         _______ _______ _______ _____ _____    ______ ____
ROOT
ATOM      1  C   UNL     1      -5.101   5.058  -1.373  0.00  0.00    +0.188 C 
ATOM      2  N   UNL     1      -5.282   5.532  -2.764  0.00  0.00    -0.228 NA
ATOM      3  N   UNL     1      -5.001   6.976  -2.680  0.00  0.00    -0.218 NA
ATOM      4  C   UNL     1      -3.910   7.028  -1.672  0.00  0.00    +0.262 C 
ATOM      5  O   UNL     1      -4.254   6.009  -0.709  0.00  0.00    -0.334 OA
ATOM      6  H   UNL     1      -6.224   5.365  -3.083  0.00  0.00    +0.143 HD
ATOM      7  H   UNL     1      -5.812   7.484  -2.362  0.00  0.00    +0.144 HD
ENDROOT
BRANCH   1   8
ATOM      8  C   UNL     1      -4.437   3.680  -1.374  0.00  0.00    -0.025 C 
BRANCH   8   9
ATOM      9  N   UNL     1      -3.082   3.789  -1.931  0.00  0.00    +0.383 N 
ATOM     10  H   UNL     1      -2.537   4.425  -1.367  0.00  0.00    -0.089 HD
ATOM     11  H   UNL     1      -2.644   2.880  -1.931  0.00  0.00    -0.089 HD
ATOM     12  H   UNL     1      -3.134   4.138  -2.876  0.00  0.00    -0.089 HD
ENDBRANCH   8   9
BRANCH   8  13
ATOM     13  C   UNL     1      -4.358   3.151   0.060  0.00  0.00    +0.025 C 
BRANCH  13  20
ATOM     14  C   UNL     1      -0.017   1.384   0.010  0.00  0.00    +0.001 A 
ATOM     15  C   UNL     1       0.002  -0.004   0.002  0.00  0.00    +0.002 A 
ATOM     16  C   UNL     1      -1.173  -0.723   0.009  0.00  0.00    +0.026 A 
ATOM     17  C   UNL     1      -2.392  -0.053   0.024  0.00  0.00    +0.047 A 
ATOM     18  N   UNL     1      -3.704  -0.472   0.034  0.00  0.00    -0.360 N 
ATOM     19  C   UNL     1      -4.539   0.612   0.047  0.00  0.00    +0.087 A 
ATOM     20  C   UNL     1      -3.818   1.744   0.047  0.00  0.00    -0.024 A 
ATOM     21  C   UNL     1      -2.406   1.353   0.032  0.00  0.00    +0.003 A 
ATOM     22  C   UNL     1      -1.203   2.062   0.030  0.00  0.00    +0.010 A 
ATOM     23  H   UNL     1      -3.993  -1.398   0.030  0.00  0.00    +0.165 HD
ENDBRANCH  13  20
ENDBRANCH   8  13
ENDBRANCH   1   8
BRANCH   4  24
ATOM     24  S   UNL     1      -3.861   8.658  -0.877  0.00  0.00    -0.108 S 
BRANCH  24  25
ATOM     25  C   UNL     1      -5.511   8.839  -0.145  0.00  0.00    +0.108 C 
BRANCH  25  26
ATOM     26  C   UNL     1      -5.606  10.170   0.556  0.00  0.00    -0.036 A 
ATOM     27  C   UNL     1      -5.251  10.275   1.888  0.00  0.00    +0.006 A 
ATOM     28  C   UNL     1      -5.338  11.495   2.532  0.00  0.00    +0.022 A 
ATOM     29  C   UNL     1      -5.780  12.611   1.844  0.00  0.00    +0.059 A 
ATOM     30  C   UNL     1      -6.135  12.505   0.510  0.00  0.00    +0.060 A 
ATOM     31  C   UNL     1      -6.043  11.284  -0.135  0.00  0.00    +0.026 A 
ATOM     32 CL   UNL     1      -6.691  13.904  -0.354  0.00  0.00    -0.082 Cl
ATOM     33 CL   UNL     1      -5.890  14.143   2.653  0.00  0.00    -0.082 Cl
ENDBRANCH  25  26
ENDBRANCH  24  25
ENDBRANCH   4  24
TORSDOF 7
