REMARK  Name = ZINC21464411
REMARK  12 active torsions:
REMARK  status: ('A' for Active; 'I' for Inactive)
REMARK    1  A    between atoms: C_1  and  C_2
REMARK    2  A    between atoms: C_2  and  O_3
REMARK    3  A    between atoms: O_3  and  C_4
REMARK    4  A    between atoms: C_4  and  C_6
REMARK    5  A    between atoms: C_7  and  C_22
REMARK    6  A    between atoms: C_12  and  C_14
REMARK    7  A    between atoms: C_17  and  O_20
REMARK    8  A    between atoms: O_20  and  C_21
REMARK    9  A    between atoms: C_22  and  S_23
REMARK   10  A    between atoms: S_23  and  C_24
REMARK   11  A    between atoms: C_27  and  C_30
REMARK   12  A    between atoms: N_28  and  C_29
REMARK                            x       y       z     vdW  Elec       q    Type
REMARK                         _______ _______ _______ _____ _____    ______ ____
ROOT
ATOM      1  C   UNL     1       3.361   3.617   5.733  0.00  0.00    +0.079 C 
ATOM      2  C   UNL     1       2.861   2.466   5.235  0.00  0.00    +0.034 C 
ATOM      3  N   UNL     1       3.548   1.291   5.350  0.00  0.00    -0.272 N 
ATOM      4  C   UNL     1       4.739   1.184   5.953  0.00  0.00    +0.304 C 
ATOM      5  O   UNL     1       5.275   0.094   6.007  0.00  0.00    -0.252 OA
ATOM      6  N   UNL     1       5.363   2.245   6.503  0.00  0.00    -0.288 N 
ATOM      7  C   UNL     1       4.704   3.559   6.432  0.00  0.00    +0.144 C 
ATOM      8  H   UNL     1       3.127   0.364   4.934  0.00  0.00    +0.156 HD
ATOM      9  H   UNL     1       6.341   2.146   6.995  0.00  0.00    +0.151 HD
ENDROOT
BRANCH   7  10
ATOM     10  C   UNL     1       4.521   4.064   7.840  0.00  0.00    -0.022 A 
ATOM     11  C   UNL     1       4.140   3.191   8.842  0.00  0.00    +0.009 A 
ATOM     12  C   UNL     1       3.977   3.651  10.135  0.00  0.00    +0.046 A 
ATOM     13  C   UNL     1       4.186   4.991  10.425  0.00  0.00    +0.120 A 
ATOM     14  C   UNL     1       4.564   5.866   9.416  0.00  0.00    +0.046 A 
ATOM     15  C   UNL     1       4.731   5.401   8.127  0.00  0.00    +0.009 A 
BRANCH  13  16
ATOM     16  O   UNL     1       4.021   5.446  11.694  0.00  0.00    -0.495 OA
ATOM     17  C   UNL     1       3.631   4.489  12.681  0.00  0.00    +0.277 C 
ENDBRANCH  13  16
ENDBRANCH   7  10
BRANCH   1  18
ATOM     18  C   UNL     1       2.652   4.835   5.609  0.00  0.00    +0.339 C 
ATOM     19  O   UNL     1       1.513   4.836   5.181  0.00  0.00    -0.245 OA
BRANCH  18  20
ATOM     20  O   UNL     1       3.239   5.997   5.967  0.00  0.00    -0.462 OA
BRANCH  20  22
ATOM     21  C   UNL     1       3.292   8.394   6.269  0.00  0.00    +0.048 C 
ATOM     22  C   UNL     1       2.465   7.188   5.816  0.00  0.00    +0.229 C 
ENDBRANCH  20  22
ENDBRANCH  18  20
ENDBRANCH   1  18
BRANCH   2  23
ATOM     23  C   UNL     1       1.525   2.478   4.537  0.00  0.00    +0.128 C 
BRANCH  23  24
ATOM     24  S   UNL     1       0.242   1.907   5.679  0.00  0.00    -0.080 S 
BRANCH  24  25
ATOM     25  C   UNL     1      -1.171   2.018   4.633  0.00  0.00    +0.192 A 
ATOM     26  N   UNL     1      -1.184   2.418   3.381  0.00  0.00    -0.122 NA
ATOM     27  N   UNL     1      -2.381   2.376   2.917  0.00  0.00    -0.128 NA
ATOM     28  C   UNL     1      -3.206   1.942   3.842  0.00  0.00    +0.167 A 
ATOM     29  N   UNL     1      -2.457   1.705   4.971  0.00  0.00    -0.305 N 
ATOM     30  C   UNL     1      -2.937   1.214   6.265  0.00  0.00    +0.153 C 
BRANCH  28  31
ATOM     31  C   UNL     1      -4.664   1.748   3.698  0.00  0.00    +0.054 A 
ATOM     32  C   UNL     1      -5.535   2.226   4.678  0.00  0.00    +0.014 A 
ATOM     33  C   UNL     1      -6.895   2.047   4.535  0.00  0.00    +0.001 A 
ATOM     34  C   UNL     1      -7.398   1.384   3.429  0.00  0.00    +0.003 A 
ATOM     35  C   UNL     1      -6.542   0.902   2.456  0.00  0.00    +0.039 A 
ATOM     36  C   UNL     1      -5.177   1.079   2.583  0.00  0.00    +0.134 A 
ATOM     37  F   UNL     1      -4.341   0.607   1.632  0.00  0.00    -0.205 F 
ENDBRANCH  28  31
ENDBRANCH  24  25
ENDBRANCH  23  24
ENDBRANCH   2  23
TORSDOF 9
