REMARK  Name = ZINC42944206
REMARK  9 active torsions:
REMARK  status: ('A' for Active; 'I' for Inactive)
REMARK    1  A    between atoms: C_1  and  C_2
REMARK    2  A    between atoms: C_9  and  C_11
REMARK    3  A    between atoms: C_11  and  C_13
REMARK    4  A    between atoms: C_11  and  S_16
REMARK    5  A    between atoms: C_13  and  C_14
REMARK    6  A    between atoms: C_13  and  C_15
REMARK    7  A    between atoms: S_16  and  C_17
REMARK    8  A    between atoms: C_20  and  C_23
REMARK    9  A    between atoms: N_21  and  N_22
REMARK                            x       y       z     vdW  Elec       q    Type
REMARK                         _______ _______ _______ _____ _____    ______ ____
ROOT
ATOM      1  C   UNL     1       1.715  -4.109   1.770  0.00  0.00    +0.143 C 
ENDROOT
BRANCH   1   9
ATOM      2  C   UNL     1       1.188   1.971   0.780  0.00  0.00    +0.009 C 
ATOM      3  C   UNL     1       0.852   0.480   0.717  0.00  0.00    +0.003 C 
ATOM      4  C   UNL     1      -0.637   0.279   1.005  0.00  0.00    +0.006 C 
ATOM      5  C   UNL     1      -0.980  -1.210   0.910  0.00  0.00    +0.019 C 
ATOM      6  C   UNL     1      -0.176  -1.983   1.960  0.00  0.00    +0.108 C 
ATOM      7  N   UNL     1       1.250  -1.680   1.781  0.00  0.00    -0.300 N 
ATOM      8  C   UNL     1       1.678  -0.274   1.765  0.00  0.00    +0.111 C 
ATOM      9  C   UNL     1       2.150  -2.673   1.634  0.00  0.00    +0.229 C 
ATOM     10  O   UNL     1       3.309  -2.410   1.394  0.00  0.00    -0.274 OA
ENDBRANCH   1   9
BRANCH   1  11
ATOM     11  C   UNL     1       1.490  -4.707   0.379  0.00  0.00    +0.005 C 
ATOM     12  C   UNL     1       0.373  -3.940  -0.331  0.00  0.00    +0.009 C 
ATOM     13  C   UNL     1       2.780  -4.600  -0.437  0.00  0.00    +0.009 C 
ENDBRANCH   1  11
BRANCH   1  14
ATOM     14  S   UNL     1       3.003  -5.052   2.632  0.00  0.00    -0.071 S 
BRANCH  14  15
ATOM     15  C   UNL     1       2.262  -6.625   2.916  0.00  0.00    +0.209 A 
ATOM     16  N   UNL     1       1.084  -7.021   2.493  0.00  0.00    -0.121 NA
ATOM     17  N   UNL     1       0.862  -8.225   2.883  0.00  0.00    -0.123 NA
ATOM     18  C   UNL     1       1.876  -8.666   3.572  0.00  0.00    +0.255 A 
ATOM     19  N   UNL     1       2.807  -7.665   3.613  0.00  0.00    -0.220 N 
BRANCH  18  20
ATOM     20  C   UNL     1       2.003 -10.029   4.202  0.00  0.00    +0.454 C 
ATOM     21  F   UNL     1       1.033 -10.883   3.665  0.00  0.00    -0.163 F 
ATOM     22  F   UNL     1       3.276 -10.548   3.940  0.00  0.00    -0.163 F 
ATOM     23  F   UNL     1       1.817  -9.923   5.584  0.00  0.00    -0.163 F 
ENDBRANCH  18  20
BRANCH  19  24
ATOM     24  N   UNL     1       4.027  -7.698   4.226  0.00  0.00    -0.295 N 
ATOM     25  H   UNL     1       3.960  -7.379   5.181  0.00  0.00    +0.163 HD
ATOM     26  H   UNL     1       4.430  -8.622   4.180  0.00  0.00    +0.163 HD
ENDBRANCH  19  24
ENDBRANCH  14  15
ENDBRANCH   1  14
TORSDOF 6
