REMARK  Name = ZINC24408467
REMARK  1 active torsions:
REMARK  status: ('A' for Active; 'I' for Inactive)
REMARK    1  A    between atoms: C_8  and  C_9
REMARK                            x       y       z     vdW  Elec       q    Type
REMARK                         _______ _______ _______ _____ _____    ______ ____
ROOT
ATOM      1  C   UNL     1      -0.019   1.539   0.011  0.00  0.00    +0.011 C 
ATOM      2  C   UNL     1       1.483   1.896  -0.002  0.00  0.00    +0.040 C 
ATOM      3  C   UNL     1       2.176   0.712   0.635  0.00  0.00    +0.011 A 
ATOM      4  C   UNL     1       1.321  -0.387   0.639  0.00  0.00    +0.067 A 
ATOM      5  N   UNL     1       1.944  -1.399   1.196  0.00  0.00    -0.177 NA
ATOM      6  N   UNL     1       3.228  -0.989   1.573  0.00  0.00    -0.267 N 
ATOM      7  H   UNL     1       3.900  -1.538   2.006  0.00  0.00    +0.190 HD
ATOM      8  C   UNL     1       3.365   0.324   1.222  0.00  0.00    +0.138 A 
ATOM      9  C   UNL     1       0.002  -0.004   0.002  0.00  0.00    +0.058 C 
ENDROOT
BRANCH   8  10
ATOM     10  C   UNL     1       4.522   1.143   1.424  0.00  0.00    +0.119 C 
ATOM     11  N   UNL     1       5.441   1.792   1.584  0.00  0.00    -0.189 NA
ENDBRANCH   8  10
TORSDOF 1
