REMARK  Name = ZINC58745570
REMARK  13 active torsions:
REMARK  status: ('A' for Active; 'I' for Inactive)
REMARK    1  A    between atoms: C_1  and  C_2
REMARK    2  A    between atoms: C_2  and  C_3
REMARK    3  A    between atoms: C_2  and  C_4
REMARK    4  A    between atoms: C_2  and  C_5
REMARK    5  A    between atoms: C_8  and  C_10
REMARK    6  A    between atoms: C_10  and  N_11
REMARK    7  A    between atoms: N_11  and  C_12
REMARK    8  A    between atoms: N_11  and  C_20
REMARK    9  A    between atoms: C_12  and  C_13
REMARK   10  A    between atoms: C_13  and  C_14
REMARK   11  A    between atoms: C_21  and  N_36
REMARK   12  A    between atoms: N_22  and  C_29
REMARK   13  A    between atoms: C_29  and  C_30
REMARK                            x       y       z     vdW  Elec       q    Type
REMARK                         _______ _______ _______ _____ _____    ______ ____
ROOT
ATOM      1  N   UNL     1       1.301  -3.825  -4.151  0.00  0.00    -0.314 N 
ENDROOT
BRANCH   1   2
ATOM      2  C   UNL     1       2.651  -4.181  -4.374  0.00  0.00    +0.134 A 
ATOM      3  C   UNL     1       3.256  -3.898  -5.569  0.00  0.00    +0.127 A 
ATOM      4  N   UNL     1       4.571  -4.255  -5.761  0.00  0.00    -0.276 N 
ATOM      5  C   UNL     1       5.257  -4.876  -4.784  0.00  0.00    +0.331 A 
ATOM      6  O   UNL     1       6.419  -5.184  -4.971  0.00  0.00    -0.246 OA
ATOM      7  N   UNL     1       4.679  -5.162  -3.603  0.00  0.00    -0.273 N 
ATOM      8  H   UNL     1       5.192  -5.610  -2.913  0.00  0.00    +0.173 HD
ATOM      9  C   UNL     1       3.395  -4.826  -3.369  0.00  0.00    +0.277 A 
ATOM     10  O   UNL     1       2.880  -5.083  -2.294  0.00  0.00    -0.266 OA
BRANCH   3  11
ATOM     11  N   UNL     1       2.555  -3.264  -6.569  0.00  0.00    -0.343 N 
ATOM     12  H   UNL     1       1.623  -3.032  -6.436  0.00  0.00    +0.144 HD
ATOM     13  H   UNL     1       2.994  -3.049  -7.407  0.00  0.00    +0.144 HD
ENDBRANCH   3  11
BRANCH   4  14
ATOM     14  C   UNL     1       5.228  -3.958  -7.036  0.00  0.00    +0.163 C 
BRANCH  14  15
ATOM     15  C   UNL     1       5.869  -2.596  -6.965  0.00  0.00    -0.028 A 
ATOM     16  C   UNL     1       5.150  -1.474  -7.332  0.00  0.00    +0.005 A 
ATOM     17  C   UNL     1       5.738  -0.225  -7.268  0.00  0.00    +0.000 A 
ATOM     18  C   UNL     1       7.045  -0.097  -6.835  0.00  0.00    +0.000 A 
ATOM     19  C   UNL     1       7.764  -1.220  -6.467  0.00  0.00    +0.000 A 
ATOM     20  C   UNL     1       7.174  -2.468  -6.528  0.00  0.00    +0.005 A 
ENDBRANCH  14  15
ENDBRANCH   4  14
ENDBRANCH   1   2
BRANCH   1  21
ATOM     21  C   UNL     1       0.914  -2.413  -4.105  0.00  0.00    +0.201 C 
BRANCH  21  25
ATOM     22  C   UNL     1       0.282  -1.465  -0.655  0.00  0.00    +0.131 A 
ATOM     23  C   UNL     1       1.570  -1.112  -0.797  0.00  0.00    +0.156 A 
ATOM     24  N   UNL     1       1.940  -1.415  -2.054  0.00  0.00    -0.220 NA
ATOM     25  C   UNL     1       0.921  -1.937  -2.675  0.00  0.00    +0.213 A 
ATOM     26  O   UNL     1      -0.119  -1.986  -1.831  0.00  0.00    -0.442 OA
BRANCH  22  28
ATOM     27  C   UNL     1      -0.634   0.167   0.972  0.00  0.00    +0.019 C 
ATOM     28  C   UNL     1      -0.556  -1.312   0.588  0.00  0.00    +0.022 C 
ATOM     29  C   UNL     1       0.081  -2.102   1.733  0.00  0.00    +0.019 C 
ATOM     30  C   UNL     1      -1.965  -1.845   0.322  0.00  0.00    +0.019 C 
ENDBRANCH  22  28
ENDBRANCH  21  25
ENDBRANCH   1  21
BRANCH   1  31
ATOM     31  C   UNL     1       0.289  -4.869  -3.966  0.00  0.00    +0.110 C 
BRANCH  31  32
ATOM     32  C   UNL     1      -0.241  -5.312  -5.331  0.00  0.00    +0.049 C 
BRANCH  32  33
ATOM     33  C   UNL     1      -1.282  -6.386  -5.141  0.00  0.00    -0.072 C 
ATOM     34  C   UNL     1      -2.525  -6.027  -5.112  0.00  0.00    -0.028 C 
ATOM     35  C   UNL     1      -3.670  -6.978  -4.920  0.00  0.00    +0.027 C 
ATOM     36  C   UNL     1      -3.214  -8.414  -5.190  0.00  0.00    +0.004 C 
ATOM     37  C   UNL     1      -1.924  -8.669  -4.402  0.00  0.00    +0.005 C 
ATOM     38  C   UNL     1      -0.812  -7.804  -5.004  0.00  0.00    +0.030 C 
ENDBRANCH  32  33
ENDBRANCH  31  32
ENDBRANCH   1  31
TORSDOF 10
