REMARK  Name = ZINC36578272
REMARK  13 active torsions:
REMARK  status: ('A' for Active; 'I' for Inactive)
REMARK    1  A    between atoms: C_1  and  C_2
REMARK    2  A    between atoms: C_2  and  C_3
REMARK    3  A    between atoms: C_3  and  N_4
REMARK    4  A    between atoms: N_4  and  C_5
REMARK    5  A    between atoms: C_5  and  C_7
REMARK    6  A    between atoms: C_5  and  C_14
REMARK    7  A    between atoms: C_12  and  O_13
REMARK    8  A    between atoms: N_16  and  C_17
REMARK    9  A    between atoms: C_17  and  S_18
REMARK   10  A    between atoms: S_18  and  C_21
REMARK   11  A    between atoms: C_24  and  C_27
REMARK   12  A    between atoms: C_28  and  C_30
REMARK   13  A    between atoms: C_30  and  C_31
REMARK                            x       y       z     vdW  Elec       q    Type
REMARK                         _______ _______ _______ _____ _____    ______ ____
ROOT
ATOM      1  C   UNL     1      -0.352  -2.478  -1.812  0.00  0.00    +0.196 C 
ENDROOT
BRANCH   1   2
ATOM      2  C   UNL     1      -0.007  -1.781  -3.103  0.00  0.00    +0.023 A 
ATOM      3  C   UNL     1      -0.710  -0.657  -3.492  0.00  0.00    +0.009 A 
ATOM      4  C   UNL     1      -0.394  -0.018  -4.676  0.00  0.00    +0.001 A 
ATOM      5  C   UNL     1       0.626  -0.501  -5.475  0.00  0.00    +0.004 A 
ATOM      6  C   UNL     1       1.333  -1.624  -5.091  0.00  0.00    +0.046 A 
ATOM      7  C   UNL     1       1.021  -2.265  -3.900  0.00  0.00    +0.122 A 
BRANCH   7   8
ATOM      8  O   UNL     1       1.718  -3.367  -3.517  0.00  0.00    -0.506 OA
ATOM      9  H   UNL     1       1.390  -4.192  -3.900  0.00  0.00    +0.292 HD
ENDBRANCH   7   8
ENDBRANCH   1   2
BRANCH   1  10
ATOM     10  C   UNL     1      -1.728  -2.056  -1.366  0.00  0.00    +0.239 C 
ATOM     11  O   UNL     1      -1.856  -1.153  -0.567  0.00  0.00    -0.273 OA
ATOM     12  N   UNL     1      -2.817  -2.682  -1.856  0.00  0.00    -0.294 N 
ATOM     13  H   UNL     1      -2.713  -3.451  -2.437  0.00  0.00    +0.150 HD
BRANCH  12  14
ATOM     14  C   UNL     1      -4.156  -2.200  -1.510  0.00  0.00    +0.278 C 
BRANCH  14  15
ATOM     15  S   UNL     1      -4.750  -1.080  -2.808  0.00  0.00    +0.013 S 
ATOM     16  O   UNL     1      -6.074  -0.654  -2.518  0.00  0.00    -0.168 OA
ATOM     17  O   UNL     1      -3.741  -0.136  -3.139  0.00  0.00    -0.168 OA
BRANCH  15  18
ATOM     18  C   UNL     1      -4.908  -2.092  -4.241  0.00  0.00    +0.090 A 
ATOM     19  C   UNL     1      -3.837  -2.243  -5.102  0.00  0.00    +0.027 A 
ATOM     20  C   UNL     1      -3.960  -3.037  -6.227  0.00  0.00    +0.005 A 
ATOM     21  C   UNL     1      -5.155  -3.681  -6.491  0.00  0.00    -0.050 A 
ATOM     22  C   UNL     1      -6.226  -3.531  -5.630  0.00  0.00    +0.005 A 
ATOM     23  C   UNL     1      -6.101  -2.740  -4.503  0.00  0.00    +0.027 A 
ATOM     24  C   UNL     1      -5.290  -4.545  -7.718  0.00  0.00    +0.044 C 
ENDBRANCH  15  18
ENDBRANCH  14  15
ENDBRANCH  12  14
ENDBRANCH   1  10
BRANCH   1  25
ATOM     25  N   UNL     1       0.627  -2.115  -0.785  0.00  0.00    -0.286 N 
ATOM     26  C   UNL     1       0.871  -0.818  -0.515  0.00  0.00    +0.221 C 
ATOM     27  O   UNL     1       0.281   0.050  -1.122  0.00  0.00    -0.275 OA
BRANCH  25  28
ATOM     28  C   UNL     1       1.341  -3.163  -0.051  0.00  0.00    +0.108 C 
BRANCH  28  30
ATOM     29  C   UNL     1       3.466  -4.471   0.081  0.00  0.00    +0.005 C 
ATOM     30  C   UNL     1       2.677  -3.448  -0.740  0.00  0.00    +0.016 C 
ENDBRANCH  28  30
ENDBRANCH  25  28
BRANCH  26  31
ATOM     31  C   UNL     1       1.879  -0.445   0.542  0.00  0.00    +0.131 C 
BRANCH  31  32
ATOM     32  C   UNL     1       1.963   1.056   0.648  0.00  0.00    -0.039 A 
ATOM     33  C   UNL     1       2.863   1.754  -0.135  0.00  0.00    +0.004 A 
ATOM     34  C   UNL     1       2.941   3.131  -0.037  0.00  0.00    +0.000 A 
ATOM     35  C   UNL     1       2.118   3.809   0.843  0.00  0.00    +0.000 A 
ATOM     36  C   UNL     1       1.218   3.111   1.625  0.00  0.00    +0.000 A 
ATOM     37  C   UNL     1       1.137   1.735   1.525  0.00  0.00    +0.004 A 
ENDBRANCH  31  32
ENDBRANCH  26  31
ENDBRANCH   1  25
TORSDOF 11
