REMARK  Name = ZINC67181878
REMARK  7 active torsions:
REMARK  status: ('A' for Active; 'I' for Inactive)
REMARK    1  A    between atoms: C_3  and  C_6
REMARK    2  A    between atoms: C_6  and  C_8
REMARK    3  A    between atoms: C_6  and  N_25
REMARK    4  A    between atoms: C_8  and  N_9
REMARK    5  A    between atoms: C_10  and  C_12
REMARK    6  A    between atoms: C_13  and  C_14
REMARK    7  A    between atoms: C_17  and  N_20
REMARK                            x       y       z     vdW  Elec       q    Type
REMARK                         _______ _______ _______ _____ _____    ______ ____
ROOT
ATOM      1  N   UNL     1       5.785   2.168  -1.371  0.00  0.00    -0.313 N 
ATOM      2  C   UNL     1       6.521   2.208  -2.499  0.00  0.00    +0.237 C 
ATOM      3  O   UNL     1       6.042   1.827  -3.552  0.00  0.00    -0.271 OA
ATOM      4  H   UNL     1       6.166   2.472  -0.532  0.00  0.00    +0.149 HD
ENDROOT
BRANCH   2   5
ATOM      5  C   UNL     1       7.895   2.708  -2.459  0.00  0.00    +0.068 C 
ATOM      6  C   UNL     1       8.632   2.748  -3.589  0.00  0.00    +0.013 C 
BRANCH   6   7
ATOM      7  C   UNL     1      10.013   3.251  -3.549  0.00  0.00    -0.025 A 
ATOM      8  C   UNL     1      10.567   3.684  -2.339  0.00  0.00    +0.010 A 
ATOM      9  C   UNL     1      11.861   4.154  -2.306  0.00  0.00    +0.027 A 
ATOM     10  C   UNL     1      12.616   4.199  -3.473  0.00  0.00    +0.047 A 
ATOM     11  C   UNL     1      12.070   3.771  -4.678  0.00  0.00    +0.027 A 
ATOM     12  C   UNL     1      10.779   3.293  -4.719  0.00  0.00    +0.010 A 
BRANCH  10  13
ATOM     13  N   UNL     1      13.930   4.678  -3.435  0.00  0.00    -0.306 N 
ATOM     14  C   UNL     1      14.790   4.787  -4.498  0.00  0.00    +0.112 A 
ATOM     15  C   UNL     1      15.942   5.292  -4.018  0.00  0.00    +0.130 A 
ATOM     16  N   UNL     1      15.796   5.488  -2.699  0.00  0.00    -0.244 NA
ATOM     17  C   UNL     1      14.594   5.129  -2.338  0.00  0.00    +0.204 A 
ENDBRANCH  10  13
ENDBRANCH   6   7
ENDBRANCH   2   5
BRANCH   1  18
ATOM     18  C   UNL     1       4.409   1.667  -1.411  0.00  0.00    +0.094 C 
BRANCH  18  19
ATOM     19  C   UNL     1       3.759   1.852  -0.038  0.00  0.00    -0.013 C 
BRANCH  19  20
ATOM     20  N   UNL     1       2.426   1.234  -0.041  0.00  0.00    +0.386 N 
ATOM     21  C   UNL     1       2.539  -0.229  -0.271  0.00  0.00    -0.078 C 
ATOM     22  C   UNL     1       1.210  -0.782   0.302  0.00  0.00    -0.020 C 
ATOM     23  C   UNL     1       0.973   0.107   1.544  0.00  0.00    -0.020 C 
ATOM     24  C   UNL     1       1.791   1.386   1.286  0.00  0.00    -0.078 C 
ATOM     25  H   UNL     1       1.848   1.655  -0.753  0.00  0.00    -0.081 HD
ENDBRANCH  19  20
BRANCH  19  28
ATOM     26  C   UNL     1       4.106   5.446   1.173  0.00  0.00    +0.008 A 
ATOM     27  C   UNL     1       4.418   4.106   1.040  0.00  0.00    +0.009 A 
ATOM     28  C   UNL     1       3.630   3.323   0.263  0.00  0.00    -0.022 A 
ATOM     29  S   UNL     1       2.403   4.485  -0.310  0.00  0.00    -0.103 S 
ATOM     30  C   UNL     1       3.022   5.937   0.524  0.00  0.00    +0.045 A 
ENDBRANCH  19  28
ENDBRANCH  18  19
ENDBRANCH   1  18
TORSDOF 7
