REMARK  Name = ZINC01386178
REMARK  3 active torsions:
REMARK  status: ('A' for Active; 'I' for Inactive)
REMARK    1  A    between atoms: C_3  and  C_6
REMARK    2  A    between atoms: C_10  and  N_11
REMARK    3  A    between atoms: C_14  and  C_17
REMARK                            x       y       z     vdW  Elec       q    Type
REMARK                         _______ _______ _______ _____ _____    ______ ____
ROOT
ATOM      1  C   UNL     1       3.742   1.823  -0.024  0.00  0.00    +0.048 A 
ATOM      2  C   UNL     1       4.275   2.800  -0.890  0.00  0.00    +0.145 A 
ATOM      3  N   UNL     1       5.536   2.969  -0.596  0.00  0.00    -0.171 NA
ATOM      4  N   UNL     1       5.876   2.120   0.464  0.00  0.00    -0.194 N 
ATOM      5  C   UNL     1       4.764   1.418   0.818  0.00  0.00    +0.130 A 
ATOM      6  C   UNL     1       7.132   2.015   1.057  0.00  0.00    +0.196 A 
ATOM      7  N   UNL     1       8.245   2.667   0.776  0.00  0.00    -0.221 NA
ATOM      8  C   UNL     1       9.363   2.440   1.448  0.00  0.00    +0.082 A 
ATOM      9  C   UNL     1       9.365   1.514   2.454  0.00  0.00    +0.077 A 
ATOM     10  S   UNL     1       7.662   0.969   2.405  0.00  0.00    -0.056 S 
ENDROOT
BRANCH   8  11
ATOM     11  C   UNL     1      10.601   3.185   1.113  0.00  0.00    +0.019 A 
ATOM     12  C   UNL     1      11.777   2.939   1.819  0.00  0.00    +0.013 A 
ATOM     13  C   UNL     1      12.927   3.634   1.504  0.00  0.00    +0.021 A 
ATOM     14  C   UNL     1      12.914   4.574   0.488  0.00  0.00    +0.042 A 
ATOM     15  C   UNL     1      11.749   4.823  -0.217  0.00  0.00    +0.040 A 
ATOM     16  C   UNL     1      10.594   4.129   0.087  0.00  0.00    +0.052 A 
ATOM     17 CL   UNL     1       9.136   4.436  -0.803  0.00  0.00    -0.083 Cl
ATOM     18 CL   UNL     1      14.364   5.445   0.097  0.00  0.00    -0.083 Cl
ENDBRANCH   8  11
BRANCH   1  21
ATOM     19  C   UNL     1      -0.016   1.352   0.009  0.00  0.00    +0.008 A 
ATOM     20  C   UNL     1       1.180   2.040   0.002  0.00  0.00    +0.016 A 
ATOM     21  C   UNL     1       2.348   1.328  -0.013  0.00  0.00    +0.024 A 
ATOM     22  S   UNL     1       1.752  -0.355  -0.017  0.00  0.00    -0.097 S 
ATOM     23  C   UNL     1       0.002  -0.004   0.002  0.00  0.00    +0.046 A 
ENDBRANCH   1  21
BRANCH   5  24
ATOM     24  N   UNL     1       4.673   0.473   1.831  0.00  0.00    -0.342 N 
ATOM     25  H   UNL     1       3.830   0.025   2.002  0.00  0.00    +0.144 HD
ATOM     26  H   UNL     1       5.453   0.260   2.367  0.00  0.00    +0.144 HD
ENDBRANCH   5  24
TORSDOF 3
