REMARK  Name = ZINC20208611
REMARK  11 active torsions:
REMARK  status: ('A' for Active; 'I' for Inactive)
REMARK    1  A    between atoms: C_1  and  C_2
REMARK    2  A    between atoms: C_2  and  C_3
REMARK    3  A    between atoms: C_2  and  C_4
REMARK    4  A    between atoms: C_4  and  S_5
REMARK    5  A    between atoms: S_5  and  C_8
REMARK    6  A    between atoms: C_14  and  C_15
REMARK    7  A    between atoms: C_18  and  O_21
REMARK    8  A    between atoms: O_21  and  C_22
REMARK    9  A    between atoms: C_22  and  C_23
REMARK   10  A    between atoms: C_23  and  O_24
REMARK   11  A    between atoms: O_24  and  C_25
REMARK                            x       y       z     vdW  Elec       q    Type
REMARK                         _______ _______ _______ _____ _____    ______ ____
ROOT
ATOM      1  C   UNL     1       4.583   0.160  -2.731  0.00  0.00    +0.235 C 
ATOM      2  N   UNL     1       4.631   0.588  -3.960  0.00  0.00    -0.145 NA
ATOM      3  N   UNL     1       4.777  -0.285  -5.017  0.00  0.00    -0.150 N 
ATOM      4  C   UNL     1       4.929   0.077  -6.372  0.00  0.00    +0.153 C 
ATOM      5  N   UNL     1       5.363   1.248  -6.758  0.00  0.00    -0.283 NA
ATOM      6  C   UNL     1       4.545  -1.006  -7.321  0.00  0.00    +0.081 C 
ATOM      7  C   UNL     1       3.984  -0.731  -8.548  0.00  0.00    +0.024 C 
ATOM      8  C   UNL     1       4.799  -2.398  -6.872  0.00  0.00    +0.273 C 
ATOM      9  O   UNL     1       4.958  -3.299  -7.679  0.00  0.00    -0.268 OA
ATOM     10  N   UNL     1       4.850  -2.637  -5.547  0.00  0.00    -0.152 NA
ATOM     11  C   UNL     1       4.804  -1.629  -4.712  0.00  0.00    +0.182 C 
ATOM     12  S   UNL     1       4.746  -1.608  -2.939  0.00  0.00    -0.015 S 
ATOM     13  H   UNL     1       5.531   1.943  -6.102  0.00  0.00    +0.188 HD
ENDROOT
BRANCH   7  14
ATOM     14  C   UNL     1       3.583   0.638  -8.879  0.00  0.00    -0.024 A 
ATOM     15  C   UNL     1       3.716   1.113 -10.192  0.00  0.00    +0.011 A 
ATOM     16  C   UNL     1       3.340   2.390 -10.495  0.00  0.00    +0.046 A 
ATOM     17  C   UNL     1       2.826   3.221  -9.504  0.00  0.00    +0.121 A 
ATOM     18  C   UNL     1       2.691   2.756  -8.200  0.00  0.00    +0.046 A 
ATOM     19  C   UNL     1       3.058   1.478  -7.886  0.00  0.00    +0.011 A 
BRANCH  17  20
ATOM     20  O   UNL     1       2.455   4.489  -9.811  0.00  0.00    -0.489 OA
BRANCH  20  21
ATOM     21  C   UNL     1       1.935   5.288  -8.747  0.00  0.00    +0.270 C 
BRANCH  21  22
ATOM     22  C   UNL     1       1.574   6.676  -9.281  0.00  0.00    +0.270 C 
BRANCH  22  23
ATOM     23  O   UNL     1       0.506   6.561 -10.224  0.00  0.00    -0.489 OA
BRANCH  23  24
ATOM     24  C   UNL     1       0.062   7.710 -10.796  0.00  0.00    +0.121 A 
ATOM     25  C   UNL     1       0.646   8.924 -10.462  0.00  0.00    +0.045 A 
ATOM     26  C   UNL     1       0.193  10.091 -11.046  0.00  0.00    +0.004 A 
ATOM     27  C   UNL     1      -0.842  10.051 -11.963  0.00  0.00    +0.000 A 
ATOM     28  C   UNL     1      -1.425   8.843 -12.297  0.00  0.00    +0.004 A 
ATOM     29  C   UNL     1      -0.972   7.672 -11.721  0.00  0.00    +0.045 A 
ENDBRANCH  23  24
ENDBRANCH  22  23
ENDBRANCH  21  22
ENDBRANCH  20  21
ENDBRANCH  17  20
ENDBRANCH   7  14
BRANCH   1  30
ATOM     30  S   UNL     1       4.410   1.087  -1.243  0.00  0.00    +0.022 S 
ATOM     31  O   UNL     1       4.817   2.404  -1.587  0.00  0.00    -0.167 OA
ATOM     32  O   UNL     1       5.123   0.341  -0.266  0.00  0.00    -0.167 OA
BRANCH  30  33
ATOM     33  C   UNL     1       2.633   1.056  -0.879  0.00  0.00    +0.177 C 
BRANCH  33  35
ATOM     34  C   UNL     1       2.706   3.315   0.188  0.00  0.00    +0.009 C 
ATOM     35  C   UNL     1       2.363   1.840   0.407  0.00  0.00    +0.004 C 
ATOM     36  C   UNL     1       0.885   1.710   0.782  0.00  0.00    +0.009 C 
ENDBRANCH  33  35
ENDBRANCH  30  33
ENDBRANCH   1  30
TORSDOF 9
