REMARK  Name = ZINC63162736
REMARK  11 active torsions:
REMARK  status: ('A' for Active; 'I' for Inactive)
REMARK    1  A    between atoms: C_1  and  C_2
REMARK    2  A    between atoms: C_7  and  N_8
REMARK    3  A    between atoms: C_9  and  C_11
REMARK    4  A    between atoms: C_11  and  C_13
REMARK    5  A    between atoms: C_11  and  N_23
REMARK    6  A    between atoms: C_13  and  C_14
REMARK    7  A    between atoms: C_24  and  O_26
REMARK    8  A    between atoms: O_26  and  C_27
REMARK    9  A    between atoms: C_27  and  C_28
REMARK   10  A    between atoms: C_28  and  C_29
REMARK   11  A    between atoms: C_28  and  C_30
REMARK                            x       y       z     vdW  Elec       q    Type
REMARK                         _______ _______ _______ _____ _____    ______ ____
ROOT
ATOM      1  C   UNL     1      -0.169   0.054   4.882  0.00  0.00    +0.166 C 
ENDROOT
BRANCH   1   3
ATOM      2  N   UNL     1       0.025  -0.014   2.417  0.00  0.00    -0.284 N 
ATOM      3  C   UNL     1      -0.057  -0.693   3.578  0.00  0.00    +0.238 C 
ATOM      4  O   UNL     1      -0.040  -1.906   3.574  0.00  0.00    -0.273 OA
ATOM      5  H   UNL     1       0.077   0.955   2.425  0.00  0.00    +0.155 HD
BRANCH   2  12
ATOM      6  C   UNL     1      -1.265   1.183   0.181  0.00  0.00    +0.046 C 
ATOM      7  C   UNL     1      -0.584  -0.158   0.084  0.00  0.00    -0.028 A 
ATOM      8  C   UNL     1      -0.569  -0.841  -1.116  0.00  0.00    +0.025 A 
ATOM      9  C   UNL     1       0.056  -2.072  -1.206  0.00  0.00    +0.041 A 
ATOM     10  C   UNL     1       0.668  -2.623  -0.093  0.00  0.00    +0.022 A 
ATOM     11  C   UNL     1       0.656  -1.944   1.109  0.00  0.00    +0.025 A 
ATOM     12  C   UNL     1       0.034  -0.706   1.201  0.00  0.00    +0.036 A 
ATOM     13 CL   UNL     1       0.072  -2.928  -2.716  0.00  0.00    -0.084 Cl
ENDBRANCH   2  12
ENDBRANCH   1   3
BRANCH   1  14
ATOM     14  N   UNL     1      -0.242  -0.903   5.989  0.00  0.00    -0.270 N 
ATOM     15  C   UNL     1      -0.832  -0.549   7.148  0.00  0.00    +0.401 C 
ATOM     16  O   UNL     1      -1.303   0.563   7.275  0.00  0.00    -0.226 OA
ATOM     17  H   UNL     1       0.134  -1.792   5.888  0.00  0.00    +0.153 HD
BRANCH  15  18
ATOM     18  O   UNL     1      -0.900  -1.429   8.165  0.00  0.00    -0.450 OA
BRANCH  18  19
ATOM     19  C   UNL     1      -1.539  -0.987   9.364  0.00  0.00    +0.236 C 
BRANCH  19  20
ATOM     20  C   UNL     1      -1.520  -2.114  10.398  0.00  0.00    +0.021 C 
ATOM     21  C   UNL     1      -0.074  -2.415  10.797  0.00  0.00    +0.010 C 
ATOM     22  C   UNL     1      -2.312  -1.686  11.635  0.00  0.00    +0.010 C 
ENDBRANCH  19  20
ENDBRANCH  18  19
ENDBRANCH  15  18
ENDBRANCH   1  14
BRANCH   1  23
ATOM     23  C   UNL     1       1.058   0.950   5.064  0.00  0.00    +0.065 C 
BRANCH  23  24
ATOM     24  C   UNL     1       0.889   1.788   6.305  0.00  0.00    -0.039 C 
ATOM     25  C   UNL     1       1.362   1.513   7.542  0.00  0.00    -0.001 A 
ATOM     26  C   UNL     1       2.145   0.394   8.082  0.00  0.00    +0.010 A 
ATOM     27  C   UNL     1       2.475   0.397   9.393  0.00  0.00    +0.001 A 
ATOM     28  C   UNL     1       2.090   1.440  10.248  0.00  0.00    +0.002 A 
ATOM     29  C   UNL     1       1.371   2.501   9.825  0.00  0.00    +0.026 A 
ATOM     30  C   UNL     1       0.969   2.601   8.465  0.00  0.00    +0.043 A 
ATOM     31  N   UNL     1       0.279   3.513   7.824  0.00  0.00    -0.380 N 
ATOM     32  C   UNL     1       0.162   3.109   6.418  0.00  0.00    +0.144 C 
ATOM     33  H   UNL     1      -0.089   4.322   8.213  0.00  0.00    +0.160 HD
ENDBRANCH  23  24
ENDBRANCH   1  23
TORSDOF 8
