REMARK  Name = ZINC59425538
REMARK  5 active torsions:
REMARK  status: ('A' for Active; 'I' for Inactive)
REMARK    1  A    between atoms: C_1  and  C_2
REMARK    2  A    between atoms: C_5  and  C_9
REMARK    3  A    between atoms: C_6  and  C_8
REMARK    4  A    between atoms: C_12  and  C_13
REMARK    5  A    between atoms: C_17  and  N_19
REMARK                            x       y       z     vdW  Elec       q    Type
REMARK                         _______ _______ _______ _____ _____    ______ ____
ROOT
ATOM      1  C   UNL     1      -0.264  -4.227  -0.279  0.00  0.00    +0.140 C 
ATOM      2  C   UNL     1       0.133  -5.036   0.726  0.00  0.00    +0.062 C 
ATOM      3  C   UNL     1       0.158  -6.402   0.177  0.00  0.00    +0.063 C 
ATOM      4  C   UNL     1       0.500  -7.570   0.827  0.00  0.00    +0.023 C 
ATOM      5  C   UNL     1      -0.267  -6.239  -1.228  0.00  0.00    +0.345 C 
ATOM      6  O   UNL     1      -0.388  -7.119  -2.059  0.00  0.00    -0.245 OA
ATOM      7  O   UNL     1      -0.500  -4.926  -1.407  0.00  0.00    -0.422 OA
ENDROOT
BRANCH   1  12
ATOM      8  C   UNL     1      -0.892   1.472   0.200  0.00  0.00    +0.044 C 
ATOM      9  C   UNL     1      -0.727  -0.021   0.074  0.00  0.00    -0.050 A 
ATOM     10  C   UNL     1      -1.419  -0.864   0.926  0.00  0.00    +0.004 A 
ATOM     11  C   UNL     1      -1.274  -2.231   0.817  0.00  0.00    +0.012 A 
ATOM     12  C   UNL     1      -0.425  -2.764  -0.156  0.00  0.00    +0.020 A 
ATOM     13  C   UNL     1       0.270  -1.908  -1.013  0.00  0.00    -0.040 A 
ATOM     14  C   UNL     1       0.110  -0.542  -0.896  0.00  0.00    +0.007 A 
ATOM     15  C   UNL     1       1.187  -2.474  -2.066  0.00  0.00    +0.044 C 
ENDBRANCH   1  12
BRANCH   4  16
ATOM     16  C   UNL     1       0.635  -8.818   0.070  0.00  0.00    -0.022 A 
ATOM     17  C   UNL     1       1.151  -8.801  -1.233  0.00  0.00    +0.008 A 
ATOM     18  C   UNL     1       1.274  -9.979  -1.936  0.00  0.00    +0.003 A 
ATOM     19  C   UNL     1       0.890 -11.178  -1.360  0.00  0.00    +0.033 A 
ATOM     20  C   UNL     1       0.379 -11.205  -0.074  0.00  0.00    +0.127 A 
ATOM     21  C   UNL     1       0.254 -10.037   0.647  0.00  0.00    +0.040 A 
BRANCH  20  22
ATOM     22  N   UNL     1      -0.028 -12.493   0.532  0.00  0.00    +0.056 N 
ATOM     23  O   UNL     1       0.086 -13.519  -0.097  0.00  0.00    -0.126 OA
ATOM     24  O   UNL     1      -0.474 -12.518   1.655  0.00  0.00    -0.126 OA
ENDBRANCH  20  22
ENDBRANCH   4  16
TORSDOF 3
