REMARK  Name = ZINC40630158
REMARK  9 active torsions:
REMARK  status: ('A' for Active; 'I' for Inactive)
REMARK    1  A    between atoms: C_1  and  C_2
REMARK    2  A    between atoms: C_3  and  S_9
REMARK    3  A    between atoms: C_4  and  C_8
REMARK    4  A    between atoms: S_9  and  N_12
REMARK    5  A    between atoms: N_12  and  C_13
REMARK    6  A    between atoms: C_13  and  C_14
REMARK    7  A    between atoms: C_14  and  C_15
REMARK    8  A    between atoms: C_14  and  C_16
REMARK    9  A    between atoms: C_14  and  O_23
REMARK                            x       y       z     vdW  Elec       q    Type
REMARK                         _______ _______ _______ _____ _____    ______ ____
ROOT
ATOM      1  N   UNL     1       1.569  -0.072  -3.243  0.00  0.00    -0.187 NA
ATOM      2  H   UNL     1       1.914   0.806  -3.466  0.00  0.00    +0.148 HD
ENDROOT
BRANCH   1   3
ATOM      3  S   UNL     1      -0.008  -0.247  -2.770  0.00  0.00    +0.062 S 
ATOM      4  O   UNL     1      -0.548  -1.312  -3.541  0.00  0.00    -0.153 OA
ATOM      5  O   UNL     1      -0.578   1.055  -2.765  0.00  0.00    -0.153 OA
BRANCH   3   8
ATOM      6  C   UNL     1      -0.018   1.503   0.010  0.00  0.00    +0.067 C 
ATOM      7  C   UNL     1       0.002  -0.004   0.002  0.00  0.00    +0.060 A 
ATOM      8  C   UNL     1       0.008  -0.796  -1.095  0.00  0.00    +0.148 A 
ATOM      9  C   UNL     1       0.028  -2.127  -0.666  0.00  0.00    +0.086 A 
ATOM     10  N   UNL     1       0.035  -2.134   0.643  0.00  0.00    -0.177 NA
ATOM     11  N   UNL     1       0.024  -0.805   1.088  0.00  0.00    -0.280 N 
ATOM     12  H   UNL     1       0.029  -0.513   2.013  0.00  0.00    +0.189 HD
ATOM     13  C   UNL     1       0.040  -3.343  -1.556  0.00  0.00    +0.069 C 
ENDBRANCH   3   8
ENDBRANCH   1   3
BRANCH   1  14
ATOM     14  C   UNL     1       2.444  -1.245  -3.324  0.00  0.00    +0.145 C 
BRANCH  14  15
ATOM     15  C   UNL     1       3.699  -0.890  -4.123  0.00  0.00    +0.102 C 
ATOM     16  C   UNL     1       3.294  -0.335  -5.490  0.00  0.00    +0.048 C 
BRANCH  15  17
ATOM     17  C   UNL     1       4.541  -2.126  -4.312  0.00  0.00    -0.015 A 
ATOM     18  C   UNL     1       3.938  -3.368  -4.386  0.00  0.00    +0.007 A 
ATOM     19  C   UNL     1       4.709  -4.501  -4.559  0.00  0.00    +0.015 A 
ATOM     20  C   UNL     1       6.084  -4.393  -4.660  0.00  0.00    +0.018 A 
ATOM     21  C   UNL     1       6.687  -3.151  -4.586  0.00  0.00    +0.015 A 
ATOM     22  C   UNL     1       5.915  -2.017  -4.418  0.00  0.00    +0.007 A 
ATOM     23 BR   UNL     1       7.140  -5.944  -4.897  0.00  0.00    -0.050 Br
ENDBRANCH  15  17
BRANCH  15  24
ATOM     24  O   UNL     1       4.453   0.095  -3.413  0.00  0.00    -0.383 OA
ATOM     25  H   UNL     1       4.744  -0.189  -2.536  0.00  0.00    +0.211 HD
ENDBRANCH  15  24
ENDBRANCH  14  15
ENDBRANCH   1  14
TORSDOF 6
