REMARK  Name = ZINC12348183
REMARK  5 active torsions:
REMARK  status: ('A' for Active; 'I' for Inactive)
REMARK    1  A    between atoms: C_1  and  C_2
REMARK    2  A    between atoms: C_2  and  C_3
REMARK    3  A    between atoms: C_2  and  C_4
REMARK    4  A    between atoms: C_7  and  C_10
REMARK    5  A    between atoms: N_16  and  C_19
REMARK                            x       y       z     vdW  Elec       q    Type
REMARK                         _______ _______ _______ _____ _____    ______ ____
ROOT
ATOM      1  C   UNL     1       2.797  -1.919   4.683  0.00  0.00    +0.092 C 
ATOM      2  C   UNL     1       2.823  -3.421   4.671  0.00  0.00    +0.070 A 
ATOM      3  C   UNL     1       2.043  -4.178   5.510  0.00  0.00    +0.125 A 
ATOM      4  N   UNL     1       2.290  -5.490   5.251  0.00  0.00    -0.277 N 
ATOM      5  H   UNL     1       1.877  -6.248   5.694  0.00  0.00    +0.189 HD
ATOM      6  N   UNL     1       3.251  -5.554   4.228  0.00  0.00    -0.218 N 
ATOM      7  C   UNL     1       3.573  -4.290   3.877  0.00  0.00    +0.278 A 
ATOM      8  O   UNL     1       4.377  -3.965   3.020  0.00  0.00    -0.265 OA
ATOM      9  N   UNL     1       1.196  -3.594   6.421  0.00  0.00    -0.303 N 
ATOM     10  C   UNL     1       1.352  -2.257   6.706  0.00  0.00    +0.017 C 
ATOM     11  C   UNL     1       2.086  -1.435   5.929  0.00  0.00    +0.024 C 
ATOM     12  C   UNL     1       2.223  -0.070   6.248  0.00  0.00    +0.162 C 
ATOM     13  O   UNL     1       2.910   0.639   5.540  0.00  0.00    -0.292 OA
ATOM     14  C   UNL     1       1.539   0.529   7.445  0.00  0.00    +0.080 C 
ATOM     15  C   UNL     1       0.269  -0.274   7.743  0.00  0.00    +0.014 C 
ATOM     16  C   UNL     1       0.664  -1.737   7.947  0.00  0.00    +0.051 C 
ATOM     17  H   UNL     1       0.501  -4.114   6.854  0.00  0.00    +0.153 HD
ENDROOT
BRANCH   1  21
ATOM     18  C   UNL     1       0.731  -0.503   1.223  0.00  0.00    -0.045 A 
ATOM     19  C   UNL     1       2.050  -0.148   1.434  0.00  0.00    +0.004 A 
ATOM     20  C   UNL     1       2.719  -0.606   2.554  0.00  0.00    +0.005 A 
ATOM     21  C   UNL     1       2.068  -1.419   3.463  0.00  0.00    -0.035 A 
ATOM     22  C   UNL     1       0.749  -1.773   3.252  0.00  0.00    +0.005 A 
ATOM     23  C   UNL     1       0.079  -1.312   2.135  0.00  0.00    +0.004 A 
BRANCH  18  25
ATOM     24  C   UNL     1      -0.019   1.526   0.010  0.00  0.00    +0.012 C 
ATOM     25  C   UNL     1       0.002  -0.004   0.002  0.00  0.00    +0.013 C 
ATOM     26  C   UNL     1       0.718  -0.497  -1.257  0.00  0.00    +0.012 C 
ENDBRANCH  18  25
ENDBRANCH   1  21
BRANCH   6  27
ATOM     27  C   UNL     1       3.780  -6.722   3.670  0.00  0.00    +0.067 A 
ATOM     28  C   UNL     1       4.734  -6.642   2.663  0.00  0.00    +0.028 A 
ATOM     29  C   UNL     1       5.255  -7.797   2.114  0.00  0.00    +0.002 A 
ATOM     30  C   UNL     1       4.828  -9.033   2.566  0.00  0.00    +0.000 A 
ATOM     31  C   UNL     1       3.879  -9.116   3.568  0.00  0.00    +0.002 A 
ATOM     32  C   UNL     1       3.358  -7.965   4.125  0.00  0.00    +0.028 A 
ENDBRANCH   6  27
TORSDOF 3
