REMARK  Name = ZINC43601754
REMARK  5 active torsions:
REMARK  status: ('A' for Active; 'I' for Inactive)
REMARK    1  A    between atoms: C_1  and  C_2
REMARK    2  A    between atoms: C_2  and  O_4
REMARK    3  A    between atoms: O_4  and  C_5
REMARK    4  A    between atoms: C_9  and  C_29
REMARK    5  A    between atoms: C_21  and  C_28
REMARK                            x       y       z     vdW  Elec       q    Type
REMARK                         _______ _______ _______ _____ _____    ______ ____
ROOT
ATOM      1  C   UNL     1      -1.810  -2.171  -1.040  0.00  0.00    +0.177 C 
ATOM      2  C   UNL     1      -1.502  -2.634   0.385  0.00  0.00    +0.045 C 
ATOM      3  C   UNL     1      -2.635  -2.200   1.317  0.00  0.00    +0.011 C 
ATOM      4  C   UNL     1      -3.950  -2.828   0.850  0.00  0.00    -0.026 C 
ATOM      5  C   UNL     1      -4.256  -2.368  -0.576  0.00  0.00    -0.001 C 
ATOM      6  C   UNL     1      -3.123  -2.801  -1.508  0.00  0.00    +0.048 C 
ATOM      7  C   UNL     1      -5.570  -2.997  -1.046  0.00  0.00    +0.004 C 
ATOM      8  C   UNL     1      -6.704  -2.567  -0.113  0.00  0.00    +0.004 C 
ATOM      9  C   UNL     1      -6.398  -3.034   1.310  0.00  0.00    -0.003 C 
ATOM     10  C   UNL     1      -5.082  -2.390   1.780  0.00  0.00    -0.001 C 
ATOM     11  C   UNL     1      -4.754  -2.774   3.219  0.00  0.00    +0.005 C 
ATOM     12  C   UNL     1      -5.914  -2.430   4.168  0.00  0.00    +0.015 C 
ATOM     13  C   UNL     1      -7.144  -3.155   3.660  0.00  0.00    +0.029 C 
ATOM     14  C   UNL     1      -7.500  -2.596   2.257  0.00  0.00    +0.006 C 
ATOM     15  C   UNL     1      -8.879  -3.221   2.007  0.00  0.00    +0.012 C 
ATOM     16  C   UNL     1      -9.556  -3.112   3.400  0.00  0.00    +0.075 C 
ATOM     17  C   UNL     1      -8.412  -2.972   4.439  0.00  0.00    +0.139 C 
ATOM     18  O   UNL     1      -8.515  -2.802   5.631  0.00  0.00    -0.297 OA
ATOM     19  C   UNL     1      -6.839  -4.647   3.517  0.00  0.00    +0.019 C 
ATOM     20  C   UNL     1      -3.826  -4.353   0.880  0.00  0.00    +0.012 C 
ENDROOT
BRANCH   1  21
ATOM     21  O   UNL     1      -1.929  -0.747  -1.064  0.00  0.00    -0.462 OA
BRANCH  21  23
ATOM     22  C   UNL     1      -0.857   1.460  -1.337  0.00  0.00    +0.136 C 
ATOM     23  C   UNL     1      -0.808  -0.046  -1.297  0.00  0.00    +0.304 C 
ATOM     24  O   UNL     1       0.239  -0.621  -1.474  0.00  0.00    -0.251 OA
ENDBRANCH  21  23
ENDBRANCH   1  21
TORSDOF 2
