REMARK  Name = ZINC52635889
REMARK  7 active torsions:
REMARK  status: ('A' for Active; 'I' for Inactive)
REMARK    1  A    between atoms: C_1  and  O_2
REMARK    2  A    between atoms: O_2  and  C_3
REMARK    3  A    between atoms: C_6  and  C_9
REMARK    4  A    between atoms: C_9  and  C_11
REMARK    5  A    between atoms: C_9  and  N_23
REMARK    6  A    between atoms: C_11  and  N_12
REMARK    7  A    between atoms: C_19  and  O_22
REMARK                            x       y       z     vdW  Elec       q    Type
REMARK                         _______ _______ _______ _____ _____    ______ ____
ROOT
ATOM      1  C   UNL     1      -4.961  -2.603  -0.009  0.00  0.00    -0.020 C 
ENDROOT
BRANCH   1   5
ATOM      2  C   UNL     1      -0.976  -1.069  -0.189  0.00  0.00    +0.120 A 
ATOM      3  C   UNL     1      -2.058  -0.201  -0.240  0.00  0.00    +0.046 A 
ATOM      4  C   UNL     1      -3.345  -0.700  -0.182  0.00  0.00    +0.005 A 
ATOM      5  C   UNL     1      -3.555  -2.062  -0.072  0.00  0.00    -0.059 A 
ATOM      6  C   UNL     1      -2.479  -2.928  -0.021  0.00  0.00    +0.005 A 
ATOM      7  C   UNL     1      -1.190  -2.436  -0.085  0.00  0.00    +0.046 A 
BRANCH   2   9
ATOM      8  C   UNL     1       0.436   0.837  -0.353  0.00  0.00    +0.277 C 
ATOM      9  O   UNL     1       0.291  -0.581  -0.246  0.00  0.00    -0.495 OA
ENDBRANCH   2   9
ENDBRANCH   1   5
BRANCH   1  10
ATOM     10  N   UNL     1      -5.048  -3.834  -0.804  0.00  0.00    +0.385 N 
ATOM     11  C   UNL     1      -6.460  -4.286  -0.897  0.00  0.00    -0.078 C 
ATOM     12  C   UNL     1      -6.463  -5.184  -2.159  0.00  0.00    -0.020 C 
ATOM     13  C   UNL     1      -5.494  -4.447  -3.111  0.00  0.00    -0.020 C 
ATOM     14  C   UNL     1      -4.615  -3.575  -2.195  0.00  0.00    -0.078 C 
ATOM     15  H   UNL     1      -4.477  -4.557  -0.392  0.00  0.00    -0.081 HD
ENDBRANCH   1  10
BRANCH   1  16
ATOM     16  C   UNL     1      -5.324  -2.908   1.446  0.00  0.00    +0.095 C 
BRANCH  16  17
ATOM     17  N   UNL     1      -5.349  -1.662   2.215  0.00  0.00    -0.300 N 
ATOM     18  C   UNL     1      -5.545  -1.697   3.548  0.00  0.00    +0.302 C 
ATOM     19  O   UNL     1      -5.789  -2.752   4.099  0.00  0.00    -0.253 OA
ATOM     20  N   UNL     1      -5.469  -0.561   4.270  0.00  0.00    -0.283 N 
ATOM     21  C   UNL     1      -5.564  -0.598   5.736  0.00  0.00    +0.109 C 
ATOM     22  C   UNL     1      -6.665   0.369   6.183  0.00  0.00    +0.022 C 
ATOM     23  C   UNL     1      -6.383   1.758   5.607  0.00  0.00    +0.034 C 
ATOM     24  C   UNL     1      -6.392   1.689   4.078  0.00  0.00    +0.132 C 
ATOM     25  C   UNL     1      -5.283   0.737   3.607  0.00  0.00    +0.140 C 
ATOM     26  H   UNL     1      -5.225  -0.812   1.765  0.00  0.00    +0.150 HD
BRANCH  24  27
ATOM     27  O   UNL     1      -6.160   2.993   3.540  0.00  0.00    -0.390 OA
ATOM     28  H   UNL     1      -6.153   3.024   2.574  0.00  0.00    +0.210 HD
ENDBRANCH  24  27
ENDBRANCH  16  17
ENDBRANCH   1  16
TORSDOF 6
