REMARK  Name = ZINC35514765
REMARK  3 active torsions:
REMARK  status: ('A' for Active; 'I' for Inactive)
REMARK    1  A    between atoms: C_1  and  C_2
REMARK    2  A    between atoms: C_16  and  C_18
REMARK    3  A    between atoms: C_28  and  C_31
REMARK                            x       y       z     vdW  Elec       q    Type
REMARK                         _______ _______ _______ _____ _____    ______ ____
ROOT
ATOM      1  C   UNL     1      -0.018   1.503   0.010  0.00  0.00    +0.044 C 
ATOM      2  C   UNL     1       0.002  -0.004   0.002  0.00  0.00    -0.050 A 
ATOM      3  C   UNL     1       0.006  -0.689  -1.205  0.00  0.00    +0.007 A 
ATOM      4  C   UNL     1       0.021  -2.065  -1.235  0.00  0.00    +0.047 A 
ATOM      5  C   UNL     1       0.034  -2.790  -0.043  0.00  0.00    +0.139 A 
ATOM      6  C   UNL     1       0.037  -2.086   1.172  0.00  0.00    +0.065 A 
ATOM      7  C   UNL     1       0.023  -0.692   1.183  0.00  0.00    +0.018 A 
ATOM      8  C   UNL     1       0.067  -2.849   2.446  0.00  0.00    +0.199 A 
ATOM      9  O   UNL     1      -0.097  -2.332   3.537  0.00  0.00    -0.287 OA
ATOM     10  C   UNL     1       0.313  -4.283   2.265  0.00  0.00    +0.072 A 
ATOM     11  C   UNL     1       0.293  -4.850   1.022  0.00  0.00    +0.199 A 
ATOM     12  O   UNL     1       0.042  -4.142  -0.096  0.00  0.00    -0.450 OA
ATOM     13  C   UNL     1       0.581  -6.287   1.166  0.00  0.00    +0.288 C 
ATOM     14  O   UNL     1       0.641  -7.080   0.247  0.00  0.00    -0.266 OA
ATOM     15  N   UNL     1       0.768  -6.596   2.465  0.00  0.00    -0.238 N 
ATOM     16  C   UNL     1       0.612  -5.362   3.253  0.00  0.00    +0.151 C 
ATOM     17  C   UNL     1       1.058  -7.860   2.973  0.00  0.00    +0.129 A 
ATOM     18  C   UNL     1       1.285  -8.918   2.099  0.00  0.00    +0.044 A 
ATOM     19  C   UNL     1       1.572 -10.168   2.617  0.00  0.00    +0.008 A 
ATOM     20  C   UNL     1       1.622 -10.319   3.996  0.00  0.00    -0.032 A 
ATOM     21  C   UNL     1       1.386  -9.225   4.804  0.00  0.00    +0.116 A 
ATOM     22  N   UNL     1       1.120  -8.042   4.282  0.00  0.00    -0.240 NA
ATOM     23  C   UNL     1       1.930 -11.662   4.605  0.00  0.00    +0.045 C 
ENDROOT
BRANCH  16  24
ATOM     24  C   UNL     1      -0.529  -5.508   4.226  0.00  0.00    -0.022 A 
ATOM     25  C   UNL     1      -1.658  -6.219   3.866  0.00  0.00    +0.007 A 
ATOM     26  C   UNL     1      -2.705  -6.353   4.758  0.00  0.00    +0.015 A 
ATOM     27  C   UNL     1      -2.623  -5.776   6.012  0.00  0.00    +0.018 A 
ATOM     28  C   UNL     1      -1.493  -5.064   6.373  0.00  0.00    +0.015 A 
ATOM     29  C   UNL     1      -0.444  -4.935   5.482  0.00  0.00    +0.007 A 
ATOM     30 BR   UNL     1      -4.055  -5.958   7.234  0.00  0.00    -0.050 Br
ENDBRANCH  16  24
TORSDOF 1
