REMARK  Name = ZINC64651063
REMARK  8 active torsions:
REMARK  status: ('A' for Active; 'I' for Inactive)
REMARK    1  A    between atoms: C_1  and  N_2
REMARK    2  A    between atoms: N_2  and  C_3
REMARK    3  A    between atoms: C_3  and  C_5
REMARK    4  A    between atoms: C_3  and  C_13
REMARK    5  A    between atoms: C_5  and  C_6
REMARK    6  A    between atoms: N_16  and  C_19
REMARK    7  A    between atoms: C_19  and  C_20
REMARK    8  A    between atoms: C_30  and  C_32
REMARK                            x       y       z     vdW  Elec       q    Type
REMARK                         _______ _______ _______ _____ _____    ______ ____
ROOT
ATOM      1  C   UNL     1       1.256  -0.526  -0.857  0.00  0.00    +0.083 C 
ENDROOT
BRANCH   1   2
ATOM      2  C   UNL     1       1.461   0.066  -2.252  0.00  0.00    +0.006 C 
ATOM      3  C   UNL     1       1.468   1.595  -2.164  0.00  0.00    -0.013 C 
ATOM      4  C   UNL     1       1.593   2.181  -3.572  0.00  0.00    -0.078 C 
ATOM      5  N   UNL     1       0.458   1.742  -4.392  0.00  0.00    +0.381 N 
ATOM      6  C   UNL     1       0.487   0.281  -4.541  0.00  0.00    -0.078 C 
ATOM      7  C   UNL     1       0.319  -0.378  -3.170  0.00  0.00    -0.013 C 
ATOM      8  H   UNL     1      -0.404   2.016  -3.946  0.00  0.00    -0.082 HD
BRANCH   5   9
ATOM      9  C   UNL     1       0.542   2.369  -5.718  0.00  0.00    -0.050 C 
BRANCH   9  10
ATOM     10  C   UNL     1      -0.704   2.011  -6.531  0.00  0.00    +0.086 C 
ATOM     11  C   UNL     1      -0.724   2.792  -7.826  0.00  0.00    +0.005 C 
ATOM     12  C   UNL     1      -1.848   3.544  -7.793  0.00  0.00    -0.004 A 
ATOM     13  C   UNL     1      -2.429   4.504  -8.739  0.00  0.00    +0.010 A 
ATOM     14  C   UNL     1      -3.594   5.114  -8.421  0.00  0.00    +0.001 A 
ATOM     15  C   UNL     1      -4.257   4.854  -7.214  0.00  0.00    +0.002 A 
ATOM     16  C   UNL     1      -3.785   3.985  -6.295  0.00  0.00    +0.026 A 
ATOM     17  C   UNL     1      -2.568   3.286  -6.526  0.00  0.00    +0.043 A 
ATOM     18  N   UNL     1      -1.914   2.408  -5.802  0.00  0.00    -0.380 N 
ATOM     19  H   UNL     1      -2.185   2.077  -4.931  0.00  0.00    +0.160 HD
ENDBRANCH   9  10
ENDBRANCH   5   9
ENDBRANCH   1   2
BRANCH   1  21
ATOM     20  C   UNL     1      -0.094   1.427   0.038  0.00  0.00    +0.132 C 
ATOM     21  N   UNL     1       0.018   0.001  -0.280  0.00  0.00    -0.297 N 
ATOM     22  C   UNL     1      -1.020  -0.825  -0.041  0.00  0.00    +0.253 C 
ATOM     23  O   UNL     1      -2.097  -0.368   0.296  0.00  0.00    -0.269 OA
BRANCH  22  24
ATOM     24  C   UNL     1      -0.852  -2.274  -0.188  0.00  0.00    +0.074 A 
ATOM     25  C   UNL     1      -1.815  -3.248  -0.405  0.00  0.00    +0.021 A 
ATOM     26  C   UNL     1      -1.349  -4.537  -0.501  0.00  0.00    +0.008 A 
ATOM     27  C   UNL     1      -0.018  -4.767  -0.380  0.00  0.00    +0.046 A 
ATOM     28  S   UNL     1       0.644  -3.242  -0.141  0.00  0.00    -0.092 S 
ENDBRANCH  22  24
ENDBRANCH   1  21
BRANCH   1  29
ATOM     29  C   UNL     1       2.438  -0.145   0.037  0.00  0.00    +0.060 C 
BRANCH  29  30
ATOM     30  C   UNL     1       2.298  -0.829   1.373  0.00  0.00    -0.010 A 
ATOM     31  C   UNL     1       1.703  -0.166   2.430  0.00  0.00    +0.006 A 
ATOM     32  C   UNL     1       1.574  -0.792   3.655  0.00  0.00    +0.000 A 
ATOM     33  C   UNL     1       2.040  -2.083   3.825  0.00  0.00    +0.003 A 
ATOM     34  C   UNL     1       2.635  -2.748   2.770  0.00  0.00    +0.038 A 
ATOM     35  C   UNL     1       2.759  -2.123   1.541  0.00  0.00    +0.127 A 
ATOM     36  F   UNL     1       3.336  -2.774   0.507  0.00  0.00    -0.205 F 
ENDBRANCH  29  30
ENDBRANCH   1  29
TORSDOF 7
