REMARK  Name = ZINC02647883
REMARK  3 active torsions:
REMARK  status: ('A' for Active; 'I' for Inactive)
REMARK    1  A    between atoms: C_11  and  C_23
REMARK    2  A    between atoms: C_14  and  C_16
REMARK    3  A    between atoms: C_27  and  N_29
REMARK                            x       y       z     vdW  Elec       q    Type
REMARK                         _______ _______ _______ _____ _____    ______ ____
ROOT
ATOM      1  C   UNL     1      -1.516   7.818   5.356  0.00  0.00    +0.001 A 
ATOM      2  C   UNL     1      -0.617   6.886   5.848  0.00  0.00    +0.002 A 
ATOM      3  C   UNL     1       0.055   6.001   5.022  0.00  0.00    +0.026 A 
ATOM      4  C   UNL     1      -0.212   6.085   3.657  0.00  0.00    +0.047 A 
ATOM      5  C   UNL     1      -1.134   7.041   3.158  0.00  0.00    +0.004 A 
ATOM      6  C   UNL     1      -1.798   7.924   4.016  0.00  0.00    +0.010 A 
ATOM      7  C   UNL     1      -1.166   6.852   1.725  0.00  0.00    -0.015 A 
ATOM      8  C   UNL     1      -0.312   5.844   1.436  0.00  0.00    +0.011 A 
ATOM      9  N   UNL     1       0.264   5.381   2.588  0.00  0.00    -0.359 N 
ATOM     10  H   UNL     1       0.912   4.661   2.637  0.00  0.00    +0.166 HD
ATOM     11  C   UNL     1      -0.070   5.347   0.030  0.00  0.00    +0.007 C 
ATOM     12  C   UNL     1      -1.349   7.283  -0.692  0.00  0.00    -0.068 C 
ATOM     13  C   UNL     1      -1.964   7.590   0.680  0.00  0.00    +0.036 C 
ATOM     14  N   UNL     1      -1.170   5.824  -0.838  0.00  0.00    +0.388 N 
ATOM     15  H   UNL     1      -2.040   5.348  -0.573  0.00  0.00    -0.084 HD
ATOM     16  H   UNL     1      -0.946   5.607  -1.816  0.00  0.00    -0.084 HD
ENDROOT
BRANCH  13  17
ATOM     17  C   UNL     1      -1.904   9.072   0.946  0.00  0.00    -0.023 A 
ATOM     18  C   UNL     1      -0.684   9.723   0.958  0.00  0.00    +0.005 A 
ATOM     19  C   UNL     1      -0.629  11.084   1.197  0.00  0.00    +0.000 A 
ATOM     20  C   UNL     1      -1.792  11.792   1.436  0.00  0.00    +0.001 A 
ATOM     21  C   UNL     1      -3.011  11.142   1.430  0.00  0.00    +0.020 A 
ATOM     22  C   UNL     1      -3.068   9.781   1.185  0.00  0.00    +0.045 A 
ATOM     23 CL   UNL     1      -4.599   8.963   1.177  0.00  0.00    -0.083 Cl
ENDBRANCH  13  17
BRANCH  11  24
ATOM     24  C   UNL     1      -0.050   3.840   0.022  0.00  0.00    -0.054 A 
ATOM     25  C   UNL     1      -1.238   3.133   0.029  0.00  0.00    +0.002 A 
ATOM     26  C   UNL     1      -1.219   1.751   0.017  0.00  0.00    +0.002 A 
ATOM     27  C   UNL     1      -0.013   1.076   0.008  0.00  0.00    +0.033 A 
ATOM     28  C   UNL     1       1.175   1.783   0.000  0.00  0.00    +0.126 A 
ATOM     29  C   UNL     1       1.156   3.166   0.008  0.00  0.00    +0.035 A 
BRANCH  28  30
ATOM     30  N   UNL     1       2.467   1.060  -0.015  0.00  0.00    +0.056 N 
ATOM     31  O   UNL     1       2.483  -0.157  -0.022  0.00  0.00    -0.126 OA
ATOM     32  O   UNL     1       3.513   1.684  -0.022  0.00  0.00    -0.126 OA
ENDBRANCH  28  30
ENDBRANCH  11  24
TORSDOF 3
