REMARK  Name = ZINC01267330
REMARK  6 active torsions:
REMARK  status: ('A' for Active; 'I' for Inactive)
REMARK    1  A    between atoms: C_1  and  C_2
REMARK    2  A    between atoms: C_5  and  C_8
REMARK    3  A    between atoms: C_11  and  C_29
REMARK    4  A    between atoms: N_13  and  C_20
REMARK    5  A    between atoms: C_25  and  C_27
REMARK    6  A    between atoms: C_25  and  C_28
REMARK                            x       y       z     vdW  Elec       q    Type
REMARK                         _______ _______ _______ _____ _____    ______ ____
ROOT
ATOM      1  C   UNL     1       0.191  -4.101   0.354  0.00  0.00    +0.112 C 
ATOM      2  C   UNL     1      -1.057  -4.696   0.928  0.00  0.00    +0.032 A 
ATOM      3  C   UNL     1      -2.286  -4.004   0.923  0.00  0.00    +0.066 A 
ATOM      4  N   UNL     1      -3.190  -4.755   1.484  0.00  0.00    -0.174 NA
ATOM      5  N   UNL     1      -2.583  -5.950   1.870  0.00  0.00    -0.247 N 
ATOM      6  C   UNL     1      -1.261  -5.896   1.514  0.00  0.00    +0.128 A 
ATOM      7  N   UNL     1      -0.415  -6.949   1.767  0.00  0.00    -0.270 N 
ATOM      8  C   UNL     1       0.854  -7.167   1.598  0.00  0.00    +0.228 C 
ATOM      9  O   UNL     1       1.257  -8.215   2.058  0.00  0.00    -0.275 OA
ATOM     10  C   UNL     1       1.886  -6.342   0.934  0.00  0.00    +0.166 C 
ATOM     11  S   UNL     1       1.676  -4.582   1.238  0.00  0.00    -0.138 S 
ATOM     12  C   UNL     1      -2.516  -2.625   0.361  0.00  0.00    +0.068 C 
ATOM     13  H   UNL     1      -0.873  -7.706   2.166  0.00  0.00    +0.156 HD
ENDROOT
BRANCH   5  14
ATOM     14  C   UNL     1      -3.245  -7.071   2.541  0.00  0.00    +0.114 C 
ATOM     15  C   UNL     1      -3.826  -6.598   3.877  0.00  0.00    +0.055 C 
ATOM     16  C   UNL     1      -4.583  -7.755   4.534  0.00  0.00    +0.162 C 
ATOM     17  O   UNL     1      -5.606  -8.216   3.649  0.00  0.00    -0.374 OA
ATOM     18  C   UNL     1      -5.118  -8.715   2.402  0.00  0.00    +0.066 C 
ATOM     19  C   UNL     1      -4.381  -7.598   1.658  0.00  0.00    +0.061 C 
ATOM     20  C   UNL     1      -6.293  -9.204   1.553  0.00  0.00    +0.041 C 
ATOM     21  C   UNL     1      -4.156  -9.876   2.658  0.00  0.00    +0.041 C 
ENDBRANCH   5  14
BRANCH   1  26
ATOM     22  C   UNL     1      -0.271   1.658   0.495  0.00  0.00    +0.044 C 
ATOM     23  C   UNL     1      -0.151   0.156   0.458  0.00  0.00    -0.050 A 
ATOM     24  C   UNL     1      -0.222  -0.514  -0.749  0.00  0.00    +0.003 A 
ATOM     25  C   UNL     1      -0.111  -1.891  -0.783  0.00  0.00    +0.005 A 
ATOM     26  C   UNL     1       0.071  -2.599   0.391  0.00  0.00    -0.030 A 
ATOM     27  C   UNL     1       0.143  -1.929   1.598  0.00  0.00    +0.005 A 
ATOM     28  C   UNL     1       0.037  -0.551   1.631  0.00  0.00    +0.003 A 
ENDBRANCH   1  26
TORSDOF 2
