REMARK  Name = ZINC00710642
REMARK  2 active torsions:
REMARK  status: ('A' for Active; 'I' for Inactive)
REMARK    1  A    between atoms: C_4  and  C_7
REMARK    2  A    between atoms: C_12  and  C_22
REMARK                            x       y       z     vdW  Elec       q    Type
REMARK                         _______ _______ _______ _____ _____    ______ ____
ROOT
ATOM      1  C   UNL     1      -2.964   0.610   4.279  0.00  0.00    +0.032 C 
ATOM      2  C   UNL     1      -4.258   0.939   3.538  0.00  0.00    +0.059 C 
ATOM      3  C   UNL     1      -3.954   1.295   2.092  0.00  0.00    +0.017 C 
ATOM      4  C   UNL     1      -2.917   0.725   1.452  0.00  0.00    +0.036 C 
ATOM      5  C   UNL     1      -2.514   0.978   0.019  0.00  0.00    +0.136 C 
ATOM      6  N   UNL     1      -3.487   1.713  -0.760  0.00  0.00    -0.331 N 
ATOM      7  C   UNL     1      -3.809   3.032  -0.445  0.00  0.00    +0.049 A 
ATOM      8  C   UNL     1      -3.522   4.075  -1.310  0.00  0.00    +0.025 A 
ATOM      9  C   UNL     1      -3.817   5.373  -0.933  0.00  0.00    +0.002 A 
ATOM     10  C   UNL     1      -4.391   5.631   0.299  0.00  0.00    +0.002 A 
ATOM     11  C   UNL     1      -4.697   4.589   1.159  0.00  0.00    +0.025 A 
ATOM     12  C   UNL     1      -4.422   3.289   0.772  0.00  0.00    +0.052 A 
ATOM     13  N   UNL     1      -4.806   2.191   1.534  0.00  0.00    -0.316 N 
ATOM     14  C   UNL     1      -2.089  -0.203   2.126  0.00  0.00    +0.163 C 
ATOM     15  O   UNL     1      -1.170  -0.718   1.519  0.00  0.00    -0.292 OA
ATOM     16  C   UNL     1      -2.304  -0.575   3.563  0.00  0.00    +0.088 C 
ATOM     17  H   UNL     1      -3.922   1.282  -1.512  0.00  0.00    +0.147 HD
ATOM     18  H   UNL     1      -5.756   2.056   1.677  0.00  0.00    +0.152 HD
ENDROOT
BRANCH   5  19
ATOM     19  C   UNL     1      -1.220   1.750   0.017  0.00  0.00    -0.022 A 
ATOM     20  C   UNL     1      -0.075   1.179  -0.508  0.00  0.00    +0.008 A 
ATOM     21  C   UNL     1       1.111   1.888  -0.516  0.00  0.00    +0.040 A 
ATOM     22  C   UNL     1       1.155   3.169   0.008  0.00  0.00    +0.137 A 
ATOM     23  C   UNL     1       0.009   3.739   0.539  0.00  0.00    +0.053 A 
ATOM     24  C   UNL     1      -1.177   3.027   0.545  0.00  0.00    +0.024 A 
ATOM     25 BR   UNL     1       0.066   5.488   1.254  0.00  0.00    -0.047 Br
ATOM     26  F   UNL     1       2.314   3.864   0.000  0.00  0.00    -0.204 F 
ENDBRANCH   5  19
BRANCH   1  30
ATOM     27  C   UNL     1      -3.840  -0.448   8.323  0.00  0.00    +0.000 A 
ATOM     28  C   UNL     1      -3.023   0.633   8.053  0.00  0.00    +0.000 A 
ATOM     29  C   UNL     1      -2.739   0.976   6.745  0.00  0.00    +0.004 A 
ATOM     30  C   UNL     1      -3.273   0.237   5.705  0.00  0.00    -0.044 A 
ATOM     31  C   UNL     1      -4.095  -0.842   5.975  0.00  0.00    +0.004 A 
ATOM     32  C   UNL     1      -4.375  -1.187   7.284  0.00  0.00    +0.000 A 
ENDBRANCH   1  30
TORSDOF 2
