REMARK  Name = ZINC33693935
REMARK  10 active torsions:
REMARK  status: ('A' for Active; 'I' for Inactive)
REMARK    1  A    between atoms: C_1  and  C_2
REMARK    2  A    between atoms: C_5  and  N_9
REMARK    3  A    between atoms: C_6  and  C_8
REMARK    4  A    between atoms: C_10  and  C_12
REMARK    5  A    between atoms: C_23  and  C_33
REMARK    6  A    between atoms: N_24  and  C_28
REMARK    7  A    between atoms: C_28  and  C_29
REMARK    8  A    between atoms: C_29  and  C_30
REMARK    9  A    between atoms: C_30  and  O_31
REMARK   10  A    between atoms: O_31  and  C_32
REMARK                            x       y       z     vdW  Elec       q    Type
REMARK                         _______ _______ _______ _____ _____    ______ ____
ROOT
ATOM      1  C   UNL     1      -1.417   2.171  -0.152  0.00  0.00    +0.162 C 
ATOM      2  C   UNL     1      -2.216   1.877  -1.432  0.00  0.00    +0.123 C 
ATOM      3  C   UNL     1      -3.364   2.859  -1.510  0.00  0.00    +0.015 A 
ATOM      4  C   UNL     1      -4.479   2.529  -2.257  0.00  0.00    +0.009 A 
ATOM      5  C   UNL     1      -5.539   3.410  -2.351  0.00  0.00    +0.001 A 
ATOM      6  C   UNL     1      -5.484   4.628  -1.698  0.00  0.00    +0.004 A 
ATOM      7  C   UNL     1      -4.373   4.962  -0.952  0.00  0.00    +0.046 A 
ATOM      8  C   UNL     1      -3.304   4.075  -0.852  0.00  0.00    +0.128 A 
ATOM      9  O   UNL     1      -2.231   4.435  -0.102  0.00  0.00    -0.467 OA
ATOM     10  C   UNL     1      -1.040   3.659  -0.192  0.00  0.00    +0.190 C 
ATOM     11  N   UNL     1      -0.328   3.941  -1.438  0.00  0.00    -0.275 N 
ATOM     12  C   UNL     1      -0.469   3.173  -2.529  0.00  0.00    +0.136 C 
ATOM     13  S   UNL     1       0.484   3.517  -3.909  0.00  0.00    -0.019 S 
ATOM     14  N   UNL     1      -1.331   2.144  -2.579  0.00  0.00    -0.318 N 
ATOM     15  C   UNL     1      -0.137   3.986   0.998  0.00  0.00    +0.079 C 
ATOM     16  H   UNL     1      -1.378   1.503  -3.471  0.00  0.00    +0.148 HD
ENDROOT
BRANCH   1  18
ATOM     17  N   UNL     1      -0.225   0.066   0.364  0.00  0.00    -0.285 N 
ATOM     18  C   UNL     1      -0.171   1.324  -0.117  0.00  0.00    +0.228 C 
ATOM     19  O   UNL     1       0.879   1.773  -0.525  0.00  0.00    -0.275 OA
ATOM     20  H   UNL     1      -1.153  -0.309   0.820  0.00  0.00    +0.155 HD
BRANCH  17  25
ATOM     21  C   UNL     1       4.335  -3.293   0.035  0.00  0.00    +0.044 C 
ATOM     22  C   UNL     1       3.124  -2.400   0.122  0.00  0.00    -0.050 A 
ATOM     23  C   UNL     1       2.970  -1.356  -0.771  0.00  0.00    +0.005 A 
ATOM     24  C   UNL     1       1.861  -0.536  -0.694  0.00  0.00    +0.024 A 
ATOM     25  C   UNL     1       0.900  -0.762   0.283  0.00  0.00    +0.036 A 
ATOM     26  C   UNL     1       1.060  -1.808   1.182  0.00  0.00    -0.029 A 
ATOM     27  C   UNL     1       2.169  -2.627   1.096  0.00  0.00    +0.008 A 
ATOM     28  C   UNL     1       0.022  -2.052   2.247  0.00  0.00    +0.045 C 
ENDBRANCH  17  25
ENDBRANCH   1  18
BRANCH  11  29
ATOM     29  C   UNL     1       0.570   5.098  -1.495  0.00  0.00    +0.113 C 
BRANCH  29  30
ATOM     30  C   UNL     1      -0.214   6.329  -1.955  0.00  0.00    +0.047 C 
BRANCH  30  31
ATOM     31  C   UNL     1       0.723   7.537  -2.015  0.00  0.00    +0.161 C 
BRANCH  31  32
ATOM     32  O   UNL     1      -0.009   8.686  -2.445  0.00  0.00    -0.383 OA
ATOM     33  C   UNL     1       0.778   9.876  -2.535  0.00  0.00    +0.193 C 
ENDBRANCH  31  32
ENDBRANCH  30  31
ENDBRANCH  29  30
ENDBRANCH  11  29
TORSDOF 6
