REMARK  Name = ZINC10611475
REMARK  7 active torsions:
REMARK  status: ('A' for Active; 'I' for Inactive)
REMARK    1  A    between atoms: C_1  and  S_2
REMARK    2  A    between atoms: S_2  and  C_3
REMARK    3  A    between atoms: C_6  and  N_9
REMARK    4  A    between atoms: C_10  and  C_12
REMARK    5  A    between atoms: C_12  and  N_13
REMARK    6  A    between atoms: C_16  and  C_21
REMARK    7  A    between atoms: C_21  and  C_22
REMARK                            x       y       z     vdW  Elec       q    Type
REMARK                         _______ _______ _______ _____ _____    ______ ____
ROOT
ATOM      1  N   UNL     1       5.964   2.012  -0.356  0.00  0.00    -0.216 N 
ATOM      2  C   UNL     1       6.428   2.510  -1.519  0.00  0.00    +0.244 C 
ATOM      3  O   UNL     1       6.029   2.255  -2.635  0.00  0.00    -0.273 OA
ATOM      4  C   UNL     1       7.549   3.457  -1.140  0.00  0.00    +0.165 C 
ATOM      5  N   UNL     1       7.596   3.368   0.329  0.00  0.00    -0.287 N 
ATOM      6  C   UNL     1       6.634   2.501   0.694  0.00  0.00    +0.310 C 
ATOM      7  O   UNL     1       6.401   2.197   1.847  0.00  0.00    -0.252 OA
ATOM      8  H   UNL     1       8.203   3.843   0.919  0.00  0.00    +0.151 HD
ENDROOT
BRANCH   1   9
ATOM      9  C   UNL     1       4.865   1.048  -0.253  0.00  0.00    +0.214 C 
BRANCH   9  11
ATOM     10  N   UNL     1       2.403   1.102  -0.015  0.00  0.00    -0.284 N 
ATOM     11  C   UNL     1       3.558   1.788  -0.124  0.00  0.00    +0.235 C 
ATOM     12  O   UNL     1       3.546   3.001  -0.117  0.00  0.00    -0.274 OA
ATOM     13  H   UNL     1       2.418   0.134   0.048  0.00  0.00    +0.155 HD
BRANCH  10  17
ATOM     14  C   UNL     1      -1.235   3.140   0.054  0.00  0.00    +0.008 A 
ATOM     15  C   UNL     1      -1.144   1.901  -0.569  0.00  0.00    +0.016 A 
ATOM     16  C   UNL     1       0.059   1.225  -0.587  0.00  0.00    +0.024 A 
ATOM     17  C   UNL     1       1.181   1.787   0.008  0.00  0.00    +0.033 A 
ATOM     18  C   UNL     1       1.092   3.027   0.626  0.00  0.00    +0.024 A 
ATOM     19  C   UNL     1      -0.112   3.702   0.649  0.00  0.00    +0.016 A 
BRANCH  14  21
ATOM     20  C   UNL     1      -3.910   2.897  -0.797  0.00  0.00    +0.090 C 
ATOM     21  S   UNL     1      -2.772   4.002   0.082  0.00  0.00    -0.129 S 
ENDBRANCH  14  21
ENDBRANCH  10  17
ENDBRANCH   9  11
ENDBRANCH   1   9
BRANCH   4  22
ATOM     22  C   UNL     1       7.226   4.885  -1.583  0.00  0.00    +0.069 C 
BRANCH  22  23
ATOM     23  C   UNL     1       8.366   5.797  -1.210  0.00  0.00    -0.020 A 
ATOM     24  C   UNL     1       8.460   6.543  -0.098  0.00  0.00    +0.087 A 
ATOM     25  N   UNL     1       9.637   7.241  -0.102  0.00  0.00    -0.360 N 
ATOM     26  H   UNL     1       9.928   7.848   0.597  0.00  0.00    +0.165 HD
ATOM     27  C   UNL     1      10.347   6.955  -1.247  0.00  0.00    +0.047 A 
ATOM     28  C   UNL     1       9.585   6.033  -1.988  0.00  0.00    +0.003 A 
ATOM     29  C   UNL     1      10.059   5.562  -3.213  0.00  0.00    +0.010 A 
ATOM     30  C   UNL     1      11.269   5.992  -3.682  0.00  0.00    +0.001 A 
ATOM     31  C   UNL     1      12.027   6.897  -2.952  0.00  0.00    +0.002 A 
ATOM     32  C   UNL     1      11.575   7.378  -1.743  0.00  0.00    +0.026 A 
ENDBRANCH  22  23
ENDBRANCH   4  22
TORSDOF 6
