REMARK  Name = ZINC37129084
REMARK  6 active torsions:
REMARK  status: ('A' for Active; 'I' for Inactive)
REMARK    1  A    between atoms: C_1  and  C_2
REMARK    2  A    between atoms: C_3  and  C_8
REMARK    3  A    between atoms: C_5  and  C_7
REMARK    4  A    between atoms: C_8  and  C_10
REMARK    5  A    between atoms: C_8  and  N_11
REMARK    6  A    between atoms: N_11  and  C_12
REMARK                            x       y       z     vdW  Elec       q    Type
REMARK                         _______ _______ _______ _____ _____    ______ ____
ROOT
ATOM      1  N   UNL     1      -3.366  -0.963  -1.014  0.00  0.00    -0.333 N 
ATOM      2  H   UNL     1      -3.335  -1.909  -1.226  0.00  0.00    +0.147 HD
ENDROOT
BRANCH   1   3
ATOM      3  C   UNL     1      -4.346  -0.151  -1.587  0.00  0.00    +0.075 A 
ATOM      4  C   UNL     1      -5.046  -0.590  -2.669  0.00  0.00    +0.065 A 
ATOM      5  C   UNL     1      -6.031   0.197  -3.264  0.00  0.00    +0.044 A 
ATOM      6  C   UNL     1      -6.335   1.431  -2.793  0.00  0.00    +0.071 A 
ATOM      7  C   UNL     1      -5.645   1.957  -1.666  0.00  0.00    +0.120 A 
ATOM      8  C   UNL     1      -4.618   1.136  -1.035  0.00  0.00    +0.123 A 
ATOM      9  N   UNL     1      -4.045   1.727   0.013  0.00  0.00    -0.189 NA
ATOM     10  S   UNL     1      -4.764   3.159   0.152  0.00  0.00    +0.117 S 
ATOM     11  N   UNL     1      -5.810   3.139  -1.071  0.00  0.00    -0.189 NA
ATOM     12 CL   UNL     1      -7.569   2.373  -3.569  0.00  0.00    -0.081 Cl
ATOM     13 CL   UNL     1      -4.705  -2.162  -3.321  0.00  0.00    -0.082 Cl
ENDBRANCH   1   3
BRANCH   1  14
ATOM     14  C   UNL     1      -2.384  -0.386  -0.092  0.00  0.00    +0.117 C 
ATOM     15  C   UNL     1      -2.868  -0.568   1.348  0.00  0.00    +0.034 C 
BRANCH  14  18
ATOM     16  C   UNL     1       0.343   1.099  -0.271  0.00  0.00    +0.053 C 
ATOM     17  C   UNL     1       0.104  -0.388  -0.340  0.00  0.00    +0.011 A 
ATOM     18  C   UNL     1      -1.060  -1.083  -0.268  0.00  0.00    +0.071 A 
ATOM     19  N   UNL     1      -0.978  -2.396  -0.359  0.00  0.00    -0.247 NA
ATOM     20  C   UNL     1       0.175  -2.998  -0.512  0.00  0.00    +0.076 A 
ATOM     21  S   UNL     1       1.272  -1.722  -0.549  0.00  0.00    -0.077 S 
ATOM     22  C   UNL     1       0.451  -4.474  -0.632  0.00  0.00    +0.073 C 
ENDBRANCH  14  18
ENDBRANCH   1  14
TORSDOF 3
