REMARK  Name = ZINC43233900
REMARK  5 active torsions:
REMARK  status: ('A' for Active; 'I' for Inactive)
REMARK    1  A    between atoms: C_3  and  C_6
REMARK    2  A    between atoms: C_6  and  C_8
REMARK    3  A    between atoms: C_6  and  N_22
REMARK    4  A    between atoms: C_8  and  N_9
REMARK    5  A    between atoms: N_12  and  C_13
REMARK                            x       y       z     vdW  Elec       q    Type
REMARK                         _______ _______ _______ _____ _____    ______ ____
ROOT
ATOM      1  N   UNL     1       5.259   1.657   1.900  0.00  0.00    -0.297 N 
ATOM      2  C   UNL     1       5.557   1.508   3.206  0.00  0.00    +0.304 C 
ATOM      3  O   UNL     1       4.695   1.161   3.990  0.00  0.00    -0.253 OA
ATOM      4  N   UNL     1       6.810   1.743   3.643  0.00  0.00    -0.267 N 
ATOM      5  H   UNL     1       5.947   1.934   1.274  0.00  0.00    +0.150 HD
ATOM      6  H   UNL     1       7.477   2.099   3.034  0.00  0.00    +0.156 HD
ENDROOT
BRANCH   4   7
ATOM      7  C   UNL     1       7.151   1.473   4.975  0.00  0.00    +0.073 A 
ATOM      8  C   UNL     1       6.373   0.605   5.729  0.00  0.00    +0.029 A 
ATOM      9  C   UNL     1       6.708   0.339   7.043  0.00  0.00    +0.043 A 
ATOM     10  C   UNL     1       7.820   0.938   7.610  0.00  0.00    +0.161 A 
ATOM     11  C   UNL     1       8.600   1.805   6.861  0.00  0.00    +0.195 A 
ATOM     12  C   UNL     1       8.270   2.070   5.542  0.00  0.00    +0.182 A 
ATOM     13  F   UNL     1       9.033   2.910   4.809  0.00  0.00    -0.200 F 
ATOM     14  F   UNL     1       9.685   2.389   7.416  0.00  0.00    -0.199 F 
ATOM     15  F   UNL     1       8.145   0.676   8.895  0.00  0.00    -0.202 F 
ENDBRANCH   4   7
BRANCH   1  16
ATOM     16  C   UNL     1       3.897   1.402   1.426  0.00  0.00    +0.130 C 
BRANCH  16  17
ATOM     17  C   UNL     1       3.829   1.643  -0.084  0.00  0.00    +0.111 C 
BRANCH  17  18
ATOM     18  N   UNL     1       4.846   0.825  -0.757  0.00  0.00    -0.289 NA
ATOM     19  C   UNL     1       4.758  -0.580  -0.332  0.00  0.00    +0.113 C 
ATOM     20  C   UNL     1       5.872  -1.383  -1.010  0.00  0.00    +0.175 C 
ATOM     21  O   UNL     1       5.761  -1.238  -2.429  0.00  0.00    -0.377 OA
ATOM     22  C   UNL     1       5.843   0.118  -2.877  0.00  0.00    +0.175 C 
ATOM     23  C   UNL     1       4.730   0.936  -2.218  0.00  0.00    +0.113 C 
ENDBRANCH  17  18
BRANCH  17  26
ATOM     24  C   UNL     1       0.277   1.490  -1.451  0.00  0.00    +0.008 A 
ATOM     25  C   UNL     1       1.459   2.065  -1.025  0.00  0.00    +0.013 A 
ATOM     26  C   UNL     1       2.462   1.263  -0.592  0.00  0.00    +0.008 A 
ATOM     27  S   UNL     1       1.744  -0.360  -0.781  0.00  0.00    -0.100 S 
ATOM     28  C   UNL     1       0.156   0.140  -1.424  0.00  0.00    +0.045 A 
ENDBRANCH  17  26
ENDBRANCH  16  17
ENDBRANCH   1  16
TORSDOF 5
