REMARK  Name = ZINC02963397
REMARK  7 active torsions:
REMARK  status: ('A' for Active; 'I' for Inactive)
REMARK    1  A    between atoms: C_1  and  C_2
REMARK    2  A    between atoms: C_2  and  C_3
REMARK    3  A    between atoms: C_6  and  N_9
REMARK    4  A    between atoms: C_16  and  C_27
REMARK    5  A    between atoms: C_23  and  O_24
REMARK    6  A    between atoms: O_24  and  C_25
REMARK    7  A    between atoms: C_25  and  C_26
REMARK                            x       y       z     vdW  Elec       q    Type
REMARK                         _______ _______ _______ _____ _____    ______ ____
ROOT
ATOM      1  N   UNL     1       3.780   2.714  -1.642  0.00  0.00    -0.244 N 
ATOM      2  C   UNL     1       2.928   1.755  -2.038  0.00  0.00    +0.141 C 
ATOM      3  S   UNL     1       2.666   1.526  -3.713  0.00  0.00    -0.018 S 
ATOM      4  N   UNL     1       2.274   0.969  -1.166  0.00  0.00    -0.319 N 
ATOM      5  C   UNL     1       2.425   1.198   0.280  0.00  0.00    +0.111 C 
ATOM      6  C   UNL     1       3.884   1.609   0.535  0.00  0.00    +0.096 C 
ATOM      7  C   UNL     1       4.120   2.916  -0.237  0.00  0.00    +0.183 C 
ATOM      8  O   UNL     1       3.313   3.939   0.339  0.00  0.00    -0.464 OA
ATOM      9  C   UNL     1       2.019   3.657   0.641  0.00  0.00    +0.170 A 
ATOM     10  C   UNL     1       1.533   2.364   0.647  0.00  0.00    +0.018 A 
ATOM     11  C   UNL     1       0.213   2.117   0.982  0.00  0.00    +0.009 A 
ATOM     12  C   UNL     1      -0.632   3.164   1.298  0.00  0.00    +0.004 A 
ATOM     13  C   UNL     1      -0.156   4.462   1.293  0.00  0.00    +0.049 A 
ATOM     14  C   UNL     1       1.165   4.713   0.963  0.00  0.00    +0.162 A 
ATOM     15  C   UNL     1       5.595   3.310  -0.129  0.00  0.00    +0.079 C 
ATOM     16  H   UNL     1       1.705   0.253  -1.489  0.00  0.00    +0.148 HD
ENDROOT
BRANCH   1  20
ATOM     17  C   UNL     1       5.502   5.194  -4.513  0.00  0.00    -0.048 A 
ATOM     18  C   UNL     1       6.070   3.965  -4.233  0.00  0.00    +0.005 A 
ATOM     19  C   UNL     1       5.501   3.140  -3.282  0.00  0.00    +0.024 A 
ATOM     20  C   UNL     1       4.358   3.547  -2.606  0.00  0.00    +0.039 A 
ATOM     21  C   UNL     1       3.786   4.779  -2.894  0.00  0.00    +0.024 A 
ATOM     22  C   UNL     1       4.363   5.601  -3.843  0.00  0.00    +0.005 A 
BRANCH  17  24
ATOM     23  C   UNL     1       5.516   5.784  -6.921  0.00  0.00    +0.009 C 
ATOM     24  C   UNL     1       6.125   6.091  -5.551  0.00  0.00    +0.032 C 
ENDBRANCH  17  24
ENDBRANCH   1  20
BRANCH  14  25
ATOM     25  O   UNL     1       1.631   5.991   0.954  0.00  0.00    -0.489 OA
BRANCH  25  26
ATOM     26  C   UNL     1       0.702   7.023   1.294  0.00  0.00    +0.226 C 
ATOM     27  C   UNL     1       1.403   8.381   1.229  0.00  0.00    +0.048 C 
ENDBRANCH  25  26
ENDBRANCH  14  25
TORSDOF 4
