REMARK  Name = ZINC63573496
REMARK  5 active torsions:
REMARK  status: ('A' for Active; 'I' for Inactive)
REMARK    1  A    between atoms: C_1  and  C_2
REMARK    2  A    between atoms: C_5  and  C_8
REMARK    3  A    between atoms: C_15  and  O_20
REMARK    4  A    between atoms: O_20  and  C_21
REMARK    5  A    between atoms: N_27  and  C_28
REMARK                            x       y       z     vdW  Elec       q    Type
REMARK                         _______ _______ _______ _____ _____    ______ ____
ROOT
ATOM      1  C   UNL     1       0.074  -4.276  -0.036  0.00  0.00    +0.134 C 
ATOM      2  C   UNL     1      -1.315  -4.794   0.352  0.00  0.00    +0.131 C 
ATOM      3  C   UNL     1      -1.163  -6.286   0.621  0.00  0.00    -0.035 C 
ATOM      4  C   UNL     1      -2.027  -6.901  -0.178  0.00  0.00    +0.003 A 
ATOM      5  C   UNL     1      -2.390  -8.319  -0.326  0.00  0.00    +0.055 A 
ATOM      6  C   UNL     1      -3.328  -8.614  -1.269  0.00  0.00    +0.121 A 
ATOM      7  C   UNL     1      -3.948  -7.656  -2.084  0.00  0.00    +0.047 A 
ATOM      8  C   UNL     1      -3.691  -6.324  -2.029  0.00  0.00    +0.029 A 
ATOM      9  C   UNL     1      -2.697  -5.880  -1.042  0.00  0.00    +0.043 A 
ATOM     10  N   UNL     1      -2.271  -4.666  -0.750  0.00  0.00    -0.375 N 
ATOM     11  C   UNL     1      -0.133  -6.836   1.577  0.00  0.00    +0.052 C 
ATOM     12  C   UNL     1       1.215  -6.205   1.185  0.00  0.00    +0.114 C 
ATOM     13  N   UNL     1       1.035  -4.766   0.965  0.00  0.00    -0.276 N 
ATOM     14  C   UNL     1       1.755  -3.885   1.686  0.00  0.00    +0.303 C 
ATOM     15  O   UNL     1       1.533  -2.694   1.589  0.00  0.00    -0.253 OA
ATOM     16  N   UNL     1       2.723  -4.324   2.516  0.00  0.00    -0.294 N 
ATOM     17  H   UNL     1       2.951  -5.266   2.538  0.00  0.00    +0.151 HD
ATOM     18  H   UNL     1      -2.531  -3.837  -1.182  0.00  0.00    +0.160 HD
ENDROOT
BRANCH  16  19
ATOM     19  C   UNL     1       3.429  -3.378   3.383  0.00  0.00    +0.037 C 
ATOM     20  C   UNL     1       4.129  -2.323   2.524  0.00  0.00    +0.029 C 
ATOM     21  C   UNL     1       4.867  -1.335   3.430  0.00  0.00    -0.008 C 
ATOM     22  C   UNL     1       5.907  -2.087   4.264  0.00  0.00    +0.007 C 
ATOM     23  C   UNL     1       5.206  -3.141   5.123  0.00  0.00    -0.008 C 
ATOM     24  C   UNL     1       4.469  -4.129   4.217  0.00  0.00    +0.029 C 
ATOM     25  C   UNL     1       4.204  -2.457   6.054  0.00  0.00    +0.007 C 
ATOM     26  C   UNL     1       3.164  -1.706   5.221  0.00  0.00    -0.008 C 
ATOM     27  C   UNL     1       3.864  -0.651   4.362  0.00  0.00    +0.007 C 
ATOM     28  C   UNL     1       2.426  -2.694   4.314  0.00  0.00    +0.029 C 
ENDBRANCH  16  19
BRANCH   1  33
ATOM     29  C   UNL     1       0.068   1.503  -0.070  0.00  0.00    +0.044 C 
ATOM     30  C   UNL     1       0.070  -0.004  -0.061  0.00  0.00    -0.050 A 
ATOM     31  C   UNL     1      -0.853  -0.692   0.705  0.00  0.00    +0.004 A 
ATOM     32  C   UNL     1      -0.852  -2.074   0.713  0.00  0.00    +0.006 A 
ATOM     33  C   UNL     1       0.072  -2.769  -0.045  0.00  0.00    -0.025 A 
ATOM     34  C   UNL     1       0.994  -2.082  -0.812  0.00  0.00    +0.006 A 
ATOM     35  C   UNL     1       0.990  -0.699  -0.823  0.00  0.00    +0.004 A 
ENDBRANCH   1  33
BRANCH   6  36
ATOM     36  O   UNL     1      -3.683  -9.916  -1.429  0.00  0.00    -0.495 OA
ATOM     37  C   UNL     1      -4.668 -10.201  -2.424  0.00  0.00    +0.277 C 
ENDBRANCH   6  36
TORSDOF 3
