REMARK  Name = ZINC10040185
REMARK  9 active torsions:
REMARK  status: ('A' for Active; 'I' for Inactive)
REMARK    1  A    between atoms: C_1  and  C_2
REMARK    2  A    between atoms: C_2  and  C_3
REMARK    3  A    between atoms: C_2  and  C_4
REMARK    4  A    between atoms: C_4  and  C_6
REMARK    5  A    between atoms: C_4  and  N_22
REMARK    6  A    between atoms: N_8  and  N_9
REMARK    7  A    between atoms: C_10  and  C_11
REMARK    8  A    between atoms: C_20  and  O_21
REMARK    9  A    between atoms: C_23  and  C_25
REMARK                            x       y       z     vdW  Elec       q    Type
REMARK                         _______ _______ _______ _____ _____    ______ ____
ROOT
ATOM      1  C   UNL     1      -2.620   9.363   0.150  0.00  0.00    +0.253 C 
ATOM      2  O   UNL     1      -1.589   9.792  -0.323  0.00  0.00    -0.272 OA
ATOM      3  N   UNL     1      -2.620   8.191   0.816  0.00  0.00    -0.205 N 
ATOM      4  H   UNL     1      -3.429   7.881   1.252  0.00  0.00    +0.177 HD
ENDROOT
BRANCH   3   5
ATOM      5  N   UNL     1      -1.452   7.420   0.877  0.00  0.00    -0.188 NA
ATOM      6  C   UNL     1      -1.451   6.290   1.518  0.00  0.00    +0.142 C 
BRANCH   6   7
ATOM      7  C   UNL     1      -0.226   5.482   1.583  0.00  0.00    +0.044 A 
ATOM      8  C   UNL     1      -0.208   4.208   2.300  0.00  0.00    -0.006 A 
ATOM      9  C   UNL     1      -1.349   3.717   2.946  0.00  0.00    +0.009 A 
ATOM     10  C   UNL     1      -1.292   2.522   3.599  0.00  0.00    +0.001 A 
ATOM     11  C   UNL     1      -0.110   1.787   3.643  0.00  0.00    +0.001 A 
ATOM     12  C   UNL     1       1.018   2.235   3.026  0.00  0.00    +0.008 A 
ATOM     13  C   UNL     1       0.994   3.460   2.338  0.00  0.00    -0.017 A 
ATOM     14  C   UNL     1       2.139   3.955   1.689  0.00  0.00    +0.012 A 
ATOM     15  C   UNL     1       2.105   5.142   1.027  0.00  0.00    +0.046 A 
ATOM     16  C   UNL     1       0.946   5.913   0.961  0.00  0.00    +0.126 A 
BRANCH  16  17
ATOM     17  O   UNL     1       0.958   7.092   0.288  0.00  0.00    -0.506 OA
ATOM     18  H   UNL     1       1.199   7.854   0.833  0.00  0.00    +0.292 HD
ENDBRANCH  16  17
ENDBRANCH   6   7
ENDBRANCH   3   5
BRANCH   1  19
ATOM     19  C   UNL     1      -3.901  10.141  -0.006  0.00  0.00    +0.163 C 
BRANCH  19  20
ATOM     20  N   UNL     1      -3.594  11.568  -0.130  0.00  0.00    -0.300 N 
ATOM     21  C   UNL     1      -4.516  12.488   0.218  0.00  0.00    +0.245 C 
ATOM     22  O   UNL     1      -5.601  12.134   0.636  0.00  0.00    -0.270 OA
ATOM     23  H   UNL     1      -2.728  11.851  -0.463  0.00  0.00    +0.150 HD
BRANCH  21  24
ATOM     24  C   UNL     1      -4.206  13.928   0.093  0.00  0.00    +0.038 A 
ATOM     25  C   UNL     1      -2.958  14.338  -0.381  0.00  0.00    +0.014 A 
ATOM     26  C   UNL     1      -2.676  15.682  -0.501  0.00  0.00    +0.022 A 
ATOM     27  C   UNL     1      -3.624  16.626  -0.142  0.00  0.00    +0.059 A 
ATOM     28  C   UNL     1      -4.862  16.226   0.334  0.00  0.00    +0.060 A 
ATOM     29  C   UNL     1      -5.158  14.883   0.453  0.00  0.00    +0.034 A 
ATOM     30 CL   UNL     1      -6.045  17.416   0.780  0.00  0.00    -0.082 Cl
ATOM     31 CL   UNL     1      -3.259  18.317  -0.289  0.00  0.00    -0.082 Cl
ENDBRANCH  21  24
ENDBRANCH  19  20
BRANCH  19  33
ATOM     32  C   UNL     1      -5.002   8.188  -1.109  0.00  0.00    +0.009 C 
ATOM     33  C   UNL     1      -4.636   9.666  -1.261  0.00  0.00    +0.012 C 
ATOM     34  C   UNL     1      -5.912  10.490  -1.447  0.00  0.00    +0.009 C 
ENDBRANCH  19  33
ENDBRANCH   1  19
TORSDOF 7
