REMARK  Name = ZINC67330321
REMARK  7 active torsions:
REMARK  status: ('A' for Active; 'I' for Inactive)
REMARK    1  A    between atoms: C_1  and  C_2
REMARK    2  A    between atoms: C_4  and  C_8
REMARK    3  A    between atoms: C_5  and  C_7
REMARK    4  A    between atoms: C_8  and  C_10
REMARK    5  A    between atoms: C_8  and  N_11
REMARK    6  A    between atoms: C_12  and  C_14
REMARK    7  A    between atoms: C_15  and  C_25
REMARK                            x       y       z     vdW  Elec       q    Type
REMARK                         _______ _______ _______ _____ _____    ______ ____
ROOT
ATOM      1  N   UNL     1      -2.786  -3.079   0.471  0.00  0.00    -0.303 N 
ATOM      2  C   UNL     1      -3.542  -4.045   1.030  0.00  0.00    +0.261 C 
ATOM      3  O   UNL     1      -3.104  -5.175   1.135  0.00  0.00    -0.269 OA
ATOM      4  H   UNL     1      -3.135  -2.178   0.387  0.00  0.00    +0.150 HD
ENDROOT
BRANCH   2   5
ATOM      5  C   UNL     1      -4.894  -3.732   1.511  0.00  0.00    +0.106 A 
ATOM      6  C   UNL     1      -5.756  -4.615   2.099  0.00  0.00    -0.010 A 
ATOM      7  C   UNL     1      -6.921  -3.899   2.399  0.00  0.00    +0.042 A 
ATOM      8  C   UNL     1      -6.729  -2.583   1.975  0.00  0.00    +0.027 A 
ATOM      9  N   UNL     1      -5.506  -2.495   1.452  0.00  0.00    -0.354 N 
ATOM     10  H   UNL     1      -5.110  -1.690   1.084  0.00  0.00    +0.166 HD
ATOM     11  C   UNL     1      -7.780  -1.513   2.128  0.00  0.00    +0.054 C 
ATOM     12  C   UNL     1      -9.150  -2.174   2.306  0.00  0.00    +0.014 C 
ATOM     13  C   UNL     1      -9.113  -3.202   3.441  0.00  0.00    +0.080 C 
ATOM     14  C   UNL     1      -8.174  -4.329   3.037  0.00  0.00    +0.165 C 
ATOM     15  O   UNL     1      -8.440  -5.497   3.228  0.00  0.00    -0.292 OA
ATOM     16  C   UNL     1      -5.502  -6.076   2.371  0.00  0.00    +0.047 C 
ENDBRANCH   2   5
BRANCH   1  17
ATOM     17  C   UNL     1      -1.437  -3.390  -0.009  0.00  0.00    +0.104 C 
ATOM     18  C   UNL     1      -1.518  -3.946  -1.432  0.00  0.00    +0.033 C 
BRANCH  17  22
ATOM     19  C   UNL     1      -0.018   1.503   0.010  0.00  0.00    +0.086 C 
ATOM     20  C   UNL     1       0.002  -0.004   0.002  0.00  0.00    +0.103 A 
ATOM     21  C   UNL     1      -1.078  -0.805   0.003  0.00  0.00    +0.050 A 
ATOM     22  C   UNL     1      -0.601  -2.136  -0.007  0.00  0.00    +0.013 A 
ATOM     23  C   UNL     1       0.742  -2.069  -0.013  0.00  0.00    +0.107 A 
ATOM     24  O   UNL     1       1.102  -0.775  -0.013  0.00  0.00    -0.465 OA
ATOM     25  C   UNL     1       1.684  -3.245  -0.023  0.00  0.00    +0.086 C 
ENDBRANCH  17  22
ENDBRANCH   1  17
TORSDOF 3
