REMARK  Name = ZINC00883211
REMARK  9 active torsions:
REMARK  status: ('A' for Active; 'I' for Inactive)
REMARK    1  A    between atoms: C_1  and  C_2
REMARK    2  A    between atoms: C_2  and  C_3
REMARK    3  A    between atoms: C_2  and  C_4
REMARK    4  A    between atoms: C_7  and  C_10
REMARK    5  A    between atoms: C_15  and  C_20
REMARK    6  A    between atoms: C_23  and  O_28
REMARK    7  A    between atoms: C_24  and  O_26
REMARK    8  A    between atoms: O_26  and  C_27
REMARK    9  A    between atoms: O_28  and  C_29
REMARK                            x       y       z     vdW  Elec       q    Type
REMARK                         _______ _______ _______ _____ _____    ______ ____
ROOT
ATOM      1  C   UNL     1      -2.624   2.361   2.570  0.00  0.00    +0.136 C 
ATOM      2  C   UNL     1      -2.149   1.841   1.233  0.00  0.00    +0.036 C 
ATOM      3  C   UNL     1      -2.911   1.660   0.142  0.00  0.00    +0.017 C 
ATOM      4  C   UNL     1      -2.304   1.105  -1.136  0.00  0.00    +0.059 C 
ATOM      5  C   UNL     1      -0.852   1.564  -1.265  0.00  0.00    +0.032 C 
ATOM      6  C   UNL     1      -0.088   1.039  -0.043  0.00  0.00    +0.088 C 
ATOM      7  C   UNL     1      -0.763   1.539   1.198  0.00  0.00    +0.163 C 
ATOM      8  O   UNL     1      -0.100   1.690   2.206  0.00  0.00    -0.292 OA
ATOM      9  N   UNL     1      -4.237   1.936   0.066  0.00  0.00    -0.316 N 
ATOM     10  C   UNL     1      -5.180   1.563   1.017  0.00  0.00    +0.052 A 
ATOM     11  C   UNL     1      -6.232   0.715   0.719  0.00  0.00    +0.025 A 
ATOM     12  C   UNL     1      -7.198   0.468   1.680  0.00  0.00    +0.002 A 
ATOM     13  C   UNL     1      -7.110   1.063   2.925  0.00  0.00    +0.002 A 
ATOM     14  C   UNL     1      -6.047   1.895   3.231  0.00  0.00    +0.025 A 
ATOM     15  C   UNL     1      -5.070   2.130   2.277  0.00  0.00    +0.049 A 
ATOM     16  N   UNL     1      -3.958   2.923   2.554  0.00  0.00    -0.331 N 
ATOM     17  H   UNL     1      -4.550   2.430  -0.708  0.00  0.00    +0.152 HD
ATOM     18  H   UNL     1      -4.079   3.868   2.739  0.00  0.00    +0.147 HD
ENDROOT
BRANCH   1  22
ATOM     19  C   UNL     1      -2.553  -0.858   5.377  0.00  0.00    -0.045 A 
ATOM     20  C   UNL     1      -3.393  -0.916   4.280  0.00  0.00    +0.004 A 
ATOM     21  C   UNL     1      -3.415   0.126   3.372  0.00  0.00    +0.006 A 
ATOM     22  C   UNL     1      -2.599   1.225   3.560  0.00  0.00    -0.023 A 
ATOM     23  C   UNL     1      -1.755   1.281   4.654  0.00  0.00    +0.006 A 
ATOM     24  C   UNL     1      -1.735   0.241   5.564  0.00  0.00    +0.004 A 
BRANCH  19  26
ATOM     25  C   UNL     1      -1.119  -2.587   6.429  0.00  0.00    +0.012 C 
ATOM     26  C   UNL     1      -2.528  -1.993   6.368  0.00  0.00    +0.013 C 
ATOM     27  C   UNL     1      -2.922  -1.472   7.751  0.00  0.00    +0.012 C 
ENDBRANCH  19  26
ENDBRANCH   1  22
BRANCH   5  28
ATOM     28  C   UNL     1      -0.247   1.002  -2.526  0.00  0.00    -0.040 A 
ATOM     29  C   UNL     1      -0.210  -0.366  -2.722  0.00  0.00    +0.008 A 
ATOM     30  C   UNL     1       0.343  -0.886  -3.878  0.00  0.00    +0.049 A 
ATOM     31  C   UNL     1       0.861  -0.036  -4.841  0.00  0.00    +0.161 A 
ATOM     32  C   UNL     1       0.824   1.341  -4.643  0.00  0.00    +0.162 A 
ATOM     33  C   UNL     1       0.263   1.856  -3.486  0.00  0.00    +0.053 A 
BRANCH  32  34
ATOM     34  O   UNL     1       1.331   2.179  -5.586  0.00  0.00    -0.491 OA
ATOM     35  C   UNL     1       1.258   3.580  -5.315  0.00  0.00    +0.277 C 
ENDBRANCH  32  34
BRANCH  31  36
ATOM     36  O   UNL     1       1.405  -0.546  -5.979  0.00  0.00    -0.491 OA
ATOM     37  C   UNL     1       1.409  -1.969  -6.115  0.00  0.00    +0.277 C 
ENDBRANCH  31  36
ENDBRANCH   5  28
TORSDOF 5
