REMARK  Name = ZINC16032777
REMARK  5 active torsions:
REMARK  status: ('A' for Active; 'I' for Inactive)
REMARK    1  A    between atoms: C_12  and  C_15
REMARK    2  A    between atoms: C_15  and  C_16
REMARK    3  A    between atoms: C_19  and  O_23
REMARK    4  A    between atoms: C_20  and  O_22
REMARK    5  A    between atoms: N_26  and  C_29
REMARK                            x       y       z     vdW  Elec       q    Type
REMARK                         _______ _______ _______ _____ _____    ______ ____
ROOT
ATOM      1  C   UNL     1      -0.017   1.379   0.010  0.00  0.00    +0.000 A 
ATOM      2  C   UNL     1       1.173   2.084   0.002  0.00  0.00    +0.002 A 
ATOM      3  C   UNL     1       2.379   1.414  -0.013  0.00  0.00    +0.023 A 
ATOM      4  C   UNL     1       2.407   0.021  -0.021  0.00  0.00    +0.039 A 
ATOM      5  C   UNL     1       1.204  -0.677  -0.013  0.00  0.00    +0.003 A 
ATOM      6  C   UNL     1       0.002  -0.004   0.002  0.00  0.00    +0.008 A 
ATOM      7  C   UNL     1       1.573  -2.133  -0.026  0.00  0.00    +0.136 C 
ATOM      8  C   UNL     1       0.992  -2.850  -1.250  0.00  0.00    +0.122 C 
ATOM      9  C   UNL     1       0.619  -4.268  -0.733  0.00  0.00    +0.107 C 
ATOM     10  C   UNL     1       1.023  -4.265   0.757  0.00  0.00    +0.072 C 
ATOM     11  N   UNL     1       1.035  -2.838   1.152  0.00  0.00    -0.295 NA
ATOM     12  C   UNL     1       1.544  -5.177  -1.511  0.00  0.00    +0.227 C 
ATOM     13  O   UNL     1       1.583  -6.385  -1.416  0.00  0.00    -0.275 OA
ATOM     14  N   UNL     1       2.314  -4.440  -2.320  0.00  0.00    -0.238 N 
ATOM     15  C   UNL     1       2.086  -3.108  -2.260  0.00  0.00    +0.228 C 
ATOM     16  O   UNL     1       2.660  -2.256  -2.905  0.00  0.00    -0.275 OA
ATOM     17  C   UNL     1       3.078  -2.154  -0.040  0.00  0.00    +0.243 C 
ATOM     18  O   UNL     1       3.788  -3.138  -0.052  0.00  0.00    -0.273 OA
ATOM     19  N   UNL     1       3.483  -0.870  -0.036  0.00  0.00    -0.283 N 
ATOM     20  H   UNL     1       1.618  -2.687   1.961  0.00  0.00    +0.124 HD
ATOM     21  H   UNL     1       4.413  -0.595  -0.042  0.00  0.00    +0.155 HD
ENDROOT
BRANCH  14  22
ATOM     22  C   UNL     1       3.322  -5.028  -3.206  0.00  0.00    +0.084 C 
ATOM     23  C   UNL     1       2.643  -5.991  -4.182  0.00  0.00    +0.023 C 
ATOM     24  C   UNL     1       3.696  -6.605  -5.107  0.00  0.00    +0.002 C 
ATOM     25  C   UNL     1       4.726  -7.367  -4.273  0.00  0.00    +0.000 C 
ATOM     26  C   UNL     1       5.405  -6.405  -3.296  0.00  0.00    +0.002 C 
ATOM     27  C   UNL     1       4.353  -5.791  -2.371  0.00  0.00    +0.023 C 
ENDBRANCH  14  22
BRANCH  10  28
ATOM     28  C   UNL     1       0.009  -5.057   1.585  0.00  0.00    +0.054 C 
BRANCH  28  29
ATOM     29  C   UNL     1       0.486  -5.145   3.012  0.00  0.00    -0.042 A 
ATOM     30  C   UNL     1       1.292  -6.197   3.406  0.00  0.00    +0.007 A 
ATOM     31  C   UNL     1       1.732  -6.282   4.714  0.00  0.00    +0.049 A 
ATOM     32  C   UNL     1       1.366  -5.311   5.633  0.00  0.00    +0.158 A 
ATOM     33  C   UNL     1       0.555  -4.252   5.236  0.00  0.00    +0.158 A 
ATOM     34  C   UNL     1       0.121  -4.170   3.922  0.00  0.00    +0.052 A 
BRANCH  33  35
ATOM     35  O   UNL     1       0.193  -3.297   6.134  0.00  0.00    -0.503 OA
ATOM     36  H   UNL     1       0.806  -2.551   6.183  0.00  0.00    +0.292 HD
ENDBRANCH  33  35
BRANCH  32  37
ATOM     37  O   UNL     1       1.797  -5.394   6.920  0.00  0.00    -0.503 OA
ATOM     38  H   UNL     1       2.640  -4.947   7.082  0.00  0.00    +0.292 HD
ENDBRANCH  32  37
ENDBRANCH  28  29
ENDBRANCH  10  28
TORSDOF 5
