REMARK  Name = ZINC01286481
REMARK  8 active torsions:
REMARK  status: ('A' for Active; 'I' for Inactive)
REMARK    1  A    between atoms: C_1  and  C_2
REMARK    2  A    between atoms: C_5  and  S_17
REMARK    3  A    between atoms: N_6  and  N_7
REMARK    4  A    between atoms: C_8  and  C_9
REMARK    5  A    between atoms: C_12  and  O_16
REMARK    6  A    between atoms: C_14  and  O_15
REMARK    7  A    between atoms: S_17  and  C_18
REMARK    8  A    between atoms: C_18  and  C_19
REMARK                            x       y       z     vdW  Elec       q    Type
REMARK                         _______ _______ _______ _____ _____    ______ ____
ROOT
ATOM      1  C   UNL     1      -5.226   4.124  -2.460  0.00  0.00    +0.090 C 
ATOM      2  C   UNL     1      -5.584   4.327  -1.010  0.00  0.00    +0.152 A 
ATOM      3  N   UNL     1      -6.646   4.929  -0.553  0.00  0.00    -0.132 NA
ATOM      4  N   UNL     1      -6.639   4.925   0.732  0.00  0.00    -0.121 NA
ATOM      5  C   UNL     1      -5.565   4.310   1.171  0.00  0.00    +0.212 A 
ATOM      6  N   UNL     1      -4.853   3.913   0.071  0.00  0.00    -0.192 N 
ENDROOT
BRANCH   6   7
ATOM      7  N   UNL     1      -3.635   3.222   0.056  0.00  0.00    -0.171 NA
ATOM      8  C   UNL     1      -2.515   3.880   0.048  0.00  0.00    +0.145 C 
BRANCH   8   9
ATOM      9  C   UNL     1      -1.235   3.153   0.031  0.00  0.00    +0.036 A 
ATOM     10  C   UNL     1      -0.028   3.859   0.023  0.00  0.00    +0.016 A 
ATOM     11  C   UNL     1       1.168   3.175   0.007  0.00  0.00    +0.046 A 
ATOM     12  C   UNL     1       1.179   1.785   0.000  0.00  0.00    +0.120 A 
ATOM     13  C   UNL     1      -0.013   1.076   0.008  0.00  0.00    +0.091 A 
ATOM     14  C   UNL     1      -1.221   1.751   0.017  0.00  0.00    +0.129 A 
BRANCH  14  15
ATOM     15  O   UNL     1      -2.388   1.058   0.019  0.00  0.00    -0.506 OA
ATOM     16  H   UNL     1      -2.722   0.853   0.903  0.00  0.00    +0.292 HD
ENDBRANCH  14  15
BRANCH  12  17
ATOM     17  O   UNL     1       2.363   1.119  -0.015  0.00  0.00    -0.507 OA
ATOM     18  H   UNL     1       2.697   0.931  -0.902  0.00  0.00    +0.292 HD
ENDBRANCH  12  17
ENDBRANCH   8   9
ENDBRANCH   6   7
BRANCH   5  19
ATOM     19  S   UNL     1      -5.122   4.048   2.856  0.00  0.00    -0.080 S 
BRANCH  19  20
ATOM     20  C   UNL     1      -6.527   4.840   3.677  0.00  0.00    +0.112 C 
BRANCH  20  21
ATOM     21  C   UNL     1      -6.360   4.736   5.171  0.00  0.00    -0.037 A 
ATOM     22  C   UNL     1      -6.879   3.650   5.851  0.00  0.00    +0.005 A 
ATOM     23  C   UNL     1      -6.721   3.552   7.220  0.00  0.00    +0.015 A 
ATOM     24  C   UNL     1      -6.054   4.546   7.912  0.00  0.00    +0.018 A 
ATOM     25  C   UNL     1      -5.539   5.635   7.233  0.00  0.00    +0.015 A 
ATOM     26  C   UNL     1      -5.692   5.730   5.862  0.00  0.00    +0.005 A 
ATOM     27 BR   UNL     1      -5.844   4.416   9.787  0.00  0.00    -0.050 Br
ENDBRANCH  20  21
ENDBRANCH  19  20
ENDBRANCH   5  19
TORSDOF 7
