REMARK  Name = ZINC21452210
REMARK  8 active torsions:
REMARK  status: ('A' for Active; 'I' for Inactive)
REMARK    1  A    between atoms: C_1  and  C_2
REMARK    2  A    between atoms: C_2  and  C_4
REMARK    3  A    between atoms: C_2  and  S_20
REMARK    4  A    between atoms: N_6  and  C_7
REMARK    5  A    between atoms: C_10  and  N_17
REMARK    6  A    between atoms: C_12  and  C_13
REMARK    7  A    between atoms: S_20  and  C_21
REMARK    8  A    between atoms: N_26  and  C_27
REMARK                            x       y       z     vdW  Elec       q    Type
REMARK                         _______ _______ _______ _____ _____    ______ ____
ROOT
ATOM      1  C   UNL     1       0.717  -0.480  -1.215  0.00  0.00    +0.230 C 
ATOM      2  O   UNL     1       0.036  -0.756  -2.180  0.00  0.00    -0.274 OA
ATOM      3  N   UNL     1       2.058  -0.600  -1.280  0.00  0.00    -0.284 N 
ATOM      4  H   UNL     1       2.608  -0.304  -0.538  0.00  0.00    +0.155 HD
ENDROOT
BRANCH   3   5
ATOM      5  C   UNL     1       2.656  -1.152  -2.418  0.00  0.00    +0.045 A 
ATOM      6  C   UNL     1       1.939  -2.023  -3.229  0.00  0.00    +0.026 A 
ATOM      7  C   UNL     1       2.532  -2.566  -4.351  0.00  0.00    +0.034 A 
ATOM      8  C   UNL     1       3.839  -2.244  -4.668  0.00  0.00    +0.127 A 
ATOM      9  C   UNL     1       4.556  -1.379  -3.863  0.00  0.00    +0.047 A 
ATOM     10  C   UNL     1       3.967  -0.827  -2.742  0.00  0.00    +0.078 A 
BRANCH  10  11
ATOM     11  C   UNL     1       4.747   0.122  -1.869  0.00  0.00    +0.419 C 
ATOM     12  F   UNL     1       6.031   0.292  -2.397  0.00  0.00    -0.166 F 
ATOM     13  F   UNL     1       4.093   1.358  -1.824  0.00  0.00    -0.166 F 
ATOM     14  F   UNL     1       4.839  -0.404  -0.576  0.00  0.00    -0.166 F 
ENDBRANCH  10  11
BRANCH   8  15
ATOM     15  N   UNL     1       4.472  -2.829  -5.872  0.00  0.00    +0.056 N 
ATOM     16  O   UNL     1       3.847  -3.586  -6.577  0.00  0.00    -0.126 OA
ATOM     17  O   UNL     1       5.615  -2.548  -6.150  0.00  0.00    -0.126 OA
ENDBRANCH   8  15
ENDBRANCH   3   5
BRANCH   1  19
ATOM     18  C   UNL     1       0.056   1.527   0.083  0.00  0.00    +0.029 C 
ATOM     19  C   UNL     1       0.064  -0.003   0.057  0.00  0.00    +0.136 C 
BRANCH  19  20
ATOM     20  S   UNL     1      -1.641  -0.618   0.129  0.00  0.00    -0.084 S 
BRANCH  20  21
ATOM     21  C   UNL     1      -2.210  -0.109   1.717  0.00  0.00    +0.161 A 
ATOM     22  N   UNL     1      -1.576   0.569   2.655  0.00  0.00    -0.133 NA
ATOM     23  N   UNL     1      -2.217   0.865   3.836  0.00  0.00    -0.125 NA
ATOM     24  C   UNL     1      -3.461   0.470   4.025  0.00  0.00    +0.187 A 
ATOM     25  S   UNL     1      -3.804  -0.364   2.483  0.00  0.00    -0.024 S 
ATOM     26  N   UNL     1      -4.287   0.658   5.128  0.00  0.00    -0.292 N 
ATOM     27  H   UNL     1      -5.163   0.242   5.154  0.00  0.00    +0.154 HD
BRANCH  26  28
ATOM     28  C   UNL     1      -3.855   1.445   6.199  0.00  0.00    +0.033 A 
ATOM     29  C   UNL     1      -4.376   1.238   7.470  0.00  0.00    +0.023 A 
ATOM     30  C   UNL     1      -3.946   2.017   8.526  0.00  0.00    +0.002 A 
ATOM     31  C   UNL     1      -2.998   3.002   8.319  0.00  0.00    +0.000 A 
ATOM     32  C   UNL     1      -2.477   3.211   7.055  0.00  0.00    +0.002 A 
ATOM     33  C   UNL     1      -2.898   2.432   5.996  0.00  0.00    +0.023 A 
ENDBRANCH  26  28
ENDBRANCH  20  21
ENDBRANCH  19  20
ENDBRANCH   1  19
TORSDOF 7
