REMARK  Name = ZINC62940301
REMARK  4 active torsions:
REMARK  status: ('A' for Active; 'I' for Inactive)
REMARK    1  A    between atoms: C_4  and  C_8
REMARK    2  A    between atoms: C_8  and  C_10
REMARK    3  A    between atoms: C_8  and  N_12
REMARK    4  A    between atoms: C_10  and  N_11
REMARK                            x       y       z     vdW  Elec       q    Type
REMARK                         _______ _______ _______ _____ _____    ______ ____
ROOT
ATOM      1  C   UNL     1       3.726  -0.779   0.015  0.00  0.00    +0.072 C 
ENDROOT
BRANCH   1   2
ATOM      2  N   UNL     1       3.409  -2.141  -0.435  0.00  0.00    -0.299 NA
ATOM      3  C   UNL     1       4.521  -3.055  -0.169  0.00  0.00    +0.083 C 
ATOM      4  C   UNL     1       4.418  -4.414  -0.847  0.00  0.00    -0.003 C 
ATOM      5  C   UNL     1       2.976  -4.952  -0.745  0.00  0.00    -0.077 C 
ATOM      6  N   UNL     1       2.271  -4.529  -1.925  0.00  0.00    +0.382 N 
ATOM      7  C   UNL     1       1.160  -5.342  -2.413  0.00  0.00    -0.078 C 
ATOM      8  C   UNL     1       0.393  -4.431  -3.406  0.00  0.00    -0.020 C 
ATOM      9  C   UNL     1       1.148  -3.071  -3.372  0.00  0.00    -0.016 C 
ATOM     10  C   UNL     1       1.891  -3.154  -2.026  0.00  0.00    -0.054 C 
ATOM     11  C   UNL     1       3.003  -2.148  -1.855  0.00  0.00    +0.070 C 
ATOM     12  H   UNL     1       2.953  -4.630  -2.662  0.00  0.00    -0.081 HD
ENDBRANCH   1   2
BRANCH   1  16
ATOM     13  C   UNL     1       0.215   1.648  -0.198  0.00  0.00    +0.018 A 
ATOM     14  C   UNL     1       1.464   2.235  -0.266  0.00  0.00    +0.040 A 
ATOM     15  C   UNL     1       2.603   1.450  -0.197  0.00  0.00    +0.128 A 
ATOM     16  C   UNL     1       2.488   0.076  -0.059  0.00  0.00    +0.004 A 
ATOM     17  C   UNL     1       1.238  -0.509   0.009  0.00  0.00    +0.023 A 
ATOM     18  C   UNL     1       0.102   0.276  -0.060  0.00  0.00    +0.018 A 
ATOM     19 BR   UNL     1      -1.608  -0.526   0.034  0.00  0.00    -0.050 Br
ATOM     20  F   UNL     1       3.824   2.022  -0.264  0.00  0.00    -0.205 F 
ENDBRANCH   1  16
BRANCH   1  21
ATOM     21  C   UNL     1       4.229  -0.824   1.460  0.00  0.00    -0.062 C 
BRANCH  21  22
ATOM     22  N   UNL     1       3.231  -1.492   2.305  0.00  0.00    +0.379 N 
ATOM     23  H   UNL     1       3.539  -1.478   3.265  0.00  0.00    -0.090 HD
ATOM     24  H   UNL     1       2.348  -1.009   2.229  0.00  0.00    -0.090 HD
ATOM     25  H   UNL     1       3.118  -2.448   2.002  0.00  0.00    -0.090 HD
ENDBRANCH  21  22
ENDBRANCH   1  21
TORSDOF 4
