REMARK  Name = ZINC63529291
REMARK  5 active torsions:
REMARK  status: ('A' for Active; 'I' for Inactive)
REMARK    1  A    between atoms: C_1  and  O_2
REMARK    2  A    between atoms: O_2  and  C_3
REMARK    3  A    between atoms: C_10  and  C_27
REMARK    4  A    between atoms: N_20  and  C_21
REMARK    5  A    between atoms: C_31  and  N_33
REMARK                            x       y       z     vdW  Elec       q    Type
REMARK                         _______ _______ _______ _____ _____    ______ ____
ROOT
ATOM      1  C   UNL     1      -2.209  -0.342   1.202  0.00  0.00    +0.121 A 
ATOM      2  C   UNL     1      -3.377   0.284   0.732  0.00  0.00    +0.047 A 
ATOM      3  C   UNL     1      -4.391  -0.405   0.167  0.00  0.00    +0.029 A 
ATOM      4  C   UNL     1      -4.297  -1.861   0.027  0.00  0.00    +0.043 A 
ATOM      5  N   UNL     1      -5.115  -2.746  -0.492  0.00  0.00    -0.375 N 
ATOM      6  C   UNL     1      -4.545  -4.076  -0.296  0.00  0.00    +0.131 C 
ATOM      7  C   UNL     1      -4.364  -4.821  -1.624  0.00  0.00    +0.134 C 
ATOM      8  N   UNL     1      -3.438  -5.941  -1.391  0.00  0.00    -0.276 N 
ATOM      9  C   UNL     1      -2.075  -5.695  -0.908  0.00  0.00    +0.114 C 
ATOM     10  C   UNL     1      -2.138  -4.941   0.433  0.00  0.00    +0.052 C 
ATOM     11  C   UNL     1      -3.163  -3.840   0.290  0.00  0.00    -0.035 C 
ATOM     12  C   UNL     1      -3.062  -2.523   0.516  0.00  0.00    +0.003 A 
ATOM     13  C   UNL     1      -2.019  -1.680   1.113  0.00  0.00    +0.055 A 
ATOM     14  C   UNL     1      -3.847  -7.204  -1.622  0.00  0.00    +0.307 C 
ATOM     15  O   UNL     1      -4.933  -7.409  -2.129  0.00  0.00    -0.252 OA
ATOM     16  N   UNL     1      -3.051  -8.241  -1.292  0.00  0.00    -0.269 N 
ATOM     17  H   UNL     1      -2.221  -8.083  -0.817  0.00  0.00    +0.156 HD
ATOM     18  H   UNL     1      -5.958  -2.550  -0.930  0.00  0.00    +0.160 HD
ENDROOT
BRANCH   7  19
ATOM     19  C   UNL     1      -3.788  -3.889  -2.658  0.00  0.00    -0.022 A 
ATOM     20  C   UNL     1      -4.556  -3.494  -3.737  0.00  0.00    +0.007 A 
ATOM     21  C   UNL     1      -4.029  -2.639  -4.686  0.00  0.00    +0.022 A 
ATOM     22  C   UNL     1      -2.731  -2.177  -4.555  0.00  0.00    +0.071 A 
ATOM     23  C   UNL     1      -1.963  -2.572  -3.475  0.00  0.00    +0.145 A 
ATOM     24  C   UNL     1      -2.493  -3.423  -2.524  0.00  0.00    +0.039 A 
ATOM     25 CL   UNL     1      -2.068  -1.102  -5.746  0.00  0.00    -0.081 Cl
BRANCH  23  26
ATOM     26  N   UNL     1      -0.575  -2.078  -3.334  0.00  0.00    +0.058 N 
ATOM     27  O   UNL     1       0.097  -2.423  -2.390  0.00  0.00    -0.126 OA
ATOM     28  O   UNL     1      -0.112  -1.329  -4.163  0.00  0.00    -0.126 OA
ENDBRANCH  23  26
ENDBRANCH   7  19
BRANCH  16  29
ATOM     29  C   UNL     1      -3.424  -9.546  -1.634  0.00  0.00    +0.035 A 
ATOM     30  C   UNL     1      -4.755  -9.842  -1.900  0.00  0.00    +0.023 A 
ATOM     31  C   UNL     1      -5.119 -11.131  -2.238  0.00  0.00    +0.002 A 
ATOM     32  C   UNL     1      -4.161 -12.125  -2.311  0.00  0.00    +0.000 A 
ATOM     33  C   UNL     1      -2.836 -11.833  -2.046  0.00  0.00    +0.002 A 
ATOM     34  C   UNL     1      -2.464 -10.546  -1.713  0.00  0.00    +0.023 A 
ENDBRANCH  16  29
BRANCH   1  36
ATOM     35  C   UNL     1      -1.477   1.829   1.837  0.00  0.00    +0.277 C 
ATOM     36  O   UNL     1      -1.235   0.423   1.762  0.00  0.00    -0.495 OA
ENDBRANCH   1  36
TORSDOF 4
