REMARK  Name = ZINC38743409
REMARK  11 active torsions:
REMARK  status: ('A' for Active; 'I' for Inactive)
REMARK    1  A    between atoms: C_1  and  C_2
REMARK    2  A    between atoms: C_2  and  C_3
REMARK    3  A    between atoms: C_2  and  C_4
REMARK    4  A    between atoms: C_2  and  C_5
REMARK    5  A    between atoms: C_8  and  O_11
REMARK    6  A    between atoms: O_11  and  C_12
REMARK    7  A    between atoms: C_12  and  C_13
REMARK    8  A    between atoms: C_16  and  C_23
REMARK    9  A    between atoms: C_26  and  C_29
REMARK   10  A    between atoms: C_32  and  O_35
REMARK   11  A    between atoms: O_35  and  C_36
REMARK                            x       y       z     vdW  Elec       q    Type
REMARK                         _______ _______ _______ _____ _____    ______ ____
ROOT
ATOM      1  C   UNL     1       4.536  -2.000  -6.087  0.00  0.00    +0.132 C 
ATOM      2  N   UNL     1       3.916  -2.739  -6.946  0.00  0.00    -0.175 NA
ATOM      3  N   UNL     1       4.519  -3.257  -8.072  0.00  0.00    -0.206 N 
ATOM      4  C   UNL     1       4.435  -4.314  -9.106  0.00  0.00    +0.206 C 
ATOM      5  N   UNL     1       5.833  -4.748  -9.342  0.00  0.00    -0.231 NA
ATOM      6  N   UNL     1       6.689  -3.865  -8.531  0.00  0.00    -0.224 NA
ATOM      7  C   UNL     1       5.858  -2.655  -8.373  0.00  0.00    +0.240 C 
ATOM      8  S   UNL     1       6.173  -1.815  -6.778  0.00  0.00    -0.064 S 
ATOM      9  H   UNL     1       6.071  -4.685 -10.320  0.00  0.00    +0.143 HD
ATOM     10  H   UNL     1       6.894  -4.282  -7.636  0.00  0.00    +0.144 HD
ENDROOT
BRANCH   4  11
ATOM     11  C   UNL     1       3.592  -5.486  -8.598  0.00  0.00    +0.190 C 
ATOM     12  C   UNL     1       3.554  -6.604  -9.626  0.00  0.00    +0.034 C 
ATOM     13  C   UNL     1       2.247  -6.709  -9.938  0.00  0.00    +0.091 C 
ATOM     14  N   UNL     1       1.517  -5.806  -9.233  0.00  0.00    -0.154 NA
ATOM     15  N   UNL     1       2.179  -5.094  -8.470  0.00  0.00    -0.176 NA
BRANCH  13  16
ATOM     16  C   UNL     1       1.686  -7.676 -10.913  0.00  0.00    +0.002 A 
ATOM     17  C   UNL     1       2.528  -8.565 -11.579  0.00  0.00    +0.013 A 
ATOM     18  C   UNL     1       2.003  -9.462 -12.485  0.00  0.00    +0.046 A 
ATOM     19  C   UNL     1       0.638  -9.480 -12.735  0.00  0.00    +0.120 A 
ATOM     20  C   UNL     1      -0.204  -8.596 -12.073  0.00  0.00    +0.046 A 
ATOM     21  C   UNL     1       0.315  -7.700 -11.162  0.00  0.00    +0.013 A 
BRANCH  19  22
ATOM     22  O   UNL     1       0.123 -10.365 -13.629  0.00  0.00    -0.495 OA
ATOM     23  C   UNL     1      -1.290 -10.329 -13.837  0.00  0.00    +0.277 C 
ENDBRANCH  19  22
ENDBRANCH  13  16
ENDBRANCH   4  11
BRANCH   1  24
ATOM     24  C   UNL     1       4.000  -1.423  -4.801  0.00  0.00    +0.293 C 
BRANCH  24  25
ATOM     25  O   UNL     1       2.639  -1.822  -4.631  0.00  0.00    -0.485 OA
BRANCH  25  29
ATOM     26  C   UNL     1       0.707  -0.490  -1.238  0.00  0.00    -0.042 A 
ATOM     27  C   UNL     1       0.035  -1.284  -2.148  0.00  0.00    +0.008 A 
ATOM     28  C   UNL     1       0.679  -1.732  -3.285  0.00  0.00    +0.046 A 
ATOM     29  C   UNL     1       2.002  -1.383  -3.514  0.00  0.00    +0.121 A 
ATOM     30  C   UNL     1       2.675  -0.585  -2.599  0.00  0.00    +0.046 A 
ATOM     31  C   UNL     1       2.024  -0.136  -1.466  0.00  0.00    +0.008 A 
BRANCH  26  33
ATOM     32  C   UNL     1      -0.019   1.526   0.010  0.00  0.00    +0.015 C 
ATOM     33  C   UNL     1       0.002  -0.004   0.002  0.00  0.00    -0.013 C 
ATOM     34  C   UNL     1       0.742  -0.511   1.242  0.00  0.00    +0.015 C 
ATOM     35  C   UNL     1      -1.433  -0.534   0.013  0.00  0.00    +0.015 C 
ENDBRANCH  26  33
ENDBRANCH  25  29
ENDBRANCH  24  25
ENDBRANCH   1  24
TORSDOF 7
