REMARK  Name = ZINC04593533
REMARK  8 active torsions:
REMARK  status: ('A' for Active; 'I' for Inactive)
REMARK    1  A    between atoms: C_1  and  C_2
REMARK    2  A    between atoms: C_2  and  O_3
REMARK    3  A    between atoms: O_3  and  C_4
REMARK    4  A    between atoms: C_4  and  C_6
REMARK    5  A    between atoms: C_7  and  N_29
REMARK    6  A    between atoms: C_11  and  C_13
REMARK    7  A    between atoms: C_15  and  C_18
REMARK    8  A    between atoms: C_18  and  N_55
REMARK                            x       y       z     vdW  Elec       q    Type
REMARK                         _______ _______ _______ _____ _____    ______ ____
ROOT
ATOM      1  C   UNL     1       1.195  -2.318   7.255  0.00  0.00    +0.106 C 
ATOM      2  C   UNL     1       1.818  -3.005   8.248  0.00  0.00    +0.195 C 
ATOM      3  O   UNL     1       2.079  -4.315   8.131  0.00  0.00    -0.446 OA
ATOM      4  C   UNL     1       1.370  -5.065   7.266  0.00  0.00    +0.115 C 
ATOM      5  C   UNL     1       0.730  -4.511   6.221  0.00  0.00    +0.046 C 
ATOM      6  C   UNL     1       0.775  -3.020   5.993  0.00  0.00    +0.104 C 
ATOM      7  C   UNL     1       0.001  -5.299   5.308  0.00  0.00    +0.163 C 
ATOM      8  O   UNL     1      -0.575  -4.761   4.384  0.00  0.00    -0.292 OA
ATOM      9  C   UNL     1      -0.077  -6.794   5.458  0.00  0.00    +0.080 C 
ATOM     10  C   UNL     1       1.188  -7.288   6.169  0.00  0.00    +0.016 C 
ATOM     11  C   UNL     1       1.309  -6.555   7.506  0.00  0.00    +0.075 C 
ENDROOT
BRANCH   6  12
ATOM     12  C   UNL     1       1.763  -2.711   4.898  0.00  0.00    +0.002 A 
ATOM     13  C   UNL     1       1.552  -2.107   3.703  0.00  0.00    +0.014 A 
ATOM     14  C   UNL     1       2.620  -1.926   2.845  0.00  0.00    -0.057 A 
ATOM     15  C   UNL     1       3.846  -2.364   3.221  0.00  0.00    +0.047 A 
ATOM     16  S   UNL     1       3.516  -3.046   4.837  0.00  0.00    -0.100 S 
BRANCH  14  17
ATOM     17  C   UNL     1       2.423  -1.259   1.508  0.00  0.00    -0.042 C 
BRANCH  17  23
ATOM     18  C   UNL     1       2.201   0.900   0.432  0.00  0.00    -0.050 C 
ATOM     19  C   UNL     1       2.361   2.407   0.646  0.00  0.00    +0.141 C 
ATOM     20  O   UNL     1       3.716   2.692   1.005  0.00  0.00    -0.383 OA
ATOM     21  C   UNL     1       4.152   2.018   2.188  0.00  0.00    +0.141 C 
ATOM     22  C   UNL     1       4.010   0.506   1.990  0.00  0.00    -0.050 C 
ATOM     23  N   UNL     1       2.600   0.200   1.672  0.00  0.00    +0.385 N 
ATOM     24  H   UNL     1       2.005   0.524   2.444  0.00  0.00    -0.081 HD
ENDBRANCH  17  23
ENDBRANCH  14  17
ENDBRANCH   6  12
BRANCH   2  25
ATOM     25  N   UNL     1       2.187  -2.346   9.390  0.00  0.00    -0.329 N 
ATOM     26  H   UNL     1       1.593  -1.688   9.784  0.00  0.00    +0.145 HD
ATOM     27  H   UNL     1       3.043  -2.537   9.805  0.00  0.00    +0.145 HD
ENDBRANCH   2  25
BRANCH   1  28
ATOM     28  C   UNL     1       0.941  -0.946   7.408  0.00  0.00    +0.341 C 
ATOM     29  O   UNL     1       1.384  -0.348   8.373  0.00  0.00    -0.245 OA
BRANCH  28  30
ATOM     30  O   UNL     1       0.205  -0.288   6.486  0.00  0.00    -0.462 OA
BRANCH  30  32
ATOM     31  C   UNL     1      -0.861   1.675   5.565  0.00  0.00    +0.048 C 
ATOM     32  C   UNL     1      -0.013   1.107   6.705  0.00  0.00    +0.229 C 
ENDBRANCH  30  32
ENDBRANCH  28  30
ENDBRANCH   1  28
TORSDOF 7
