REMARK  Name = ZINC09338900
REMARK  10 active torsions:
REMARK  status: ('A' for Active; 'I' for Inactive)
REMARK    1  A    between atoms: C_1  and  C_2
REMARK    2  A    between atoms: C_4  and  N_25
REMARK    3  A    between atoms: C_6  and  S_8
REMARK    4  A    between atoms: S_8  and  C_9
REMARK    5  A    between atoms: C_9  and  C_10
REMARK    6  A    between atoms: C_13  and  C_15
REMARK    7  A    between atoms: C_18  and  C_21
REMARK    8  A    between atoms: C_21  and  C_22
REMARK    9  A    between atoms: C_21  and  C_23
REMARK   10  A    between atoms: C_21  and  C_24
REMARK                            x       y       z     vdW  Elec       q    Type
REMARK                         _______ _______ _______ _____ _____    ______ ____
ROOT
ATOM      1  C   UNL     1       2.025   0.616  -0.014  0.00  0.00    +0.228 A 
ATOM      2  N   UNL     1       1.222  -0.412  -0.012  0.00  0.00    -0.111 NA
ATOM      3  N   UNL     1       0.002  -0.004   0.002  0.00  0.00    -0.107 NA
ATOM      4  C   UNL     1      -0.016   1.308   0.009  0.00  0.00    +0.248 A 
ATOM      5  O   UNL     1       1.266   1.725  -0.001  0.00  0.00    -0.419 OA
ENDROOT
BRANCH   4   6
ATOM      6  C   UNL     1      -1.218   2.169   0.020  0.00  0.00    +0.038 A 
ATOM      7  C   UNL     1      -1.085   3.558   0.032  0.00  0.00    +0.013 A 
ATOM      8  C   UNL     1      -2.211   4.356   0.038  0.00  0.00    +0.005 A 
ATOM      9  C   UNL     1      -3.469   3.781   0.041  0.00  0.00    -0.042 A 
ATOM     10  C   UNL     1      -3.608   2.404   0.034  0.00  0.00    +0.005 A 
ATOM     11  C   UNL     1      -2.490   1.595   0.024  0.00  0.00    +0.013 A 
BRANCH   9  12
ATOM     12  C   UNL     1      -4.695   4.658   0.052  0.00  0.00    -0.013 C 
ATOM     13  C   UNL     1      -5.522   4.362   1.304  0.00  0.00    +0.015 C 
ATOM     14  C   UNL     1      -4.269   6.128   0.058  0.00  0.00    +0.015 C 
ATOM     15  C   UNL     1      -5.536   4.375  -1.194  0.00  0.00    +0.015 C 
ENDBRANCH   9  12
ENDBRANCH   4   6
BRANCH   1  16
ATOM     16  C   UNL     1       3.531   0.568  -0.029  0.00  0.00    +0.175 C 
BRANCH  16  17
ATOM     17  S   UNL     1       4.118   0.558  -1.741  0.00  0.00    -0.076 S 
BRANCH  17  23
ATOM     18  C   UNL     1       8.907   0.415  -3.541  0.00  0.00    +0.066 C 
ATOM     19  C   UNL     1       7.989   0.438  -2.346  0.00  0.00    +0.044 A 
ATOM     20  C   UNL     1       8.509   0.416  -1.066  0.00  0.00    +0.066 A 
ATOM     21  C   UNL     1       7.623   0.439   0.014  0.00  0.00    +0.121 A 
ATOM     22  N   UNL     1       6.316   0.481  -0.225  0.00  0.00    -0.207 NA
ATOM     23  C   UNL     1       5.858   0.501  -1.468  0.00  0.00    +0.191 A 
ATOM     24  N   UNL     1       6.675   0.475  -2.511  0.00  0.00    -0.227 NA
BRANCH  21  25
ATOM     25  N   UNL     1       8.100   0.417   1.314  0.00  0.00    -0.343 N 
ATOM     26  H   UNL     1       7.478   0.433   2.059  0.00  0.00    +0.144 HD
ATOM     27  H   UNL     1       9.055   0.386   1.480  0.00  0.00    +0.144 HD
ENDBRANCH  21  25
ENDBRANCH  17  23
ENDBRANCH  16  17
ENDBRANCH   1  16
TORSDOF 6
