REMARK  Name = ZINC40178397
REMARK  6 active torsions:
REMARK  status: ('A' for Active; 'I' for Inactive)
REMARK    1  A    between atoms: C_1  and  C_2
REMARK    2  A    between atoms: C_2  and  N_3
REMARK    3  A    between atoms: N_6  and  C_9
REMARK    4  A    between atoms: C_10  and  S_21
REMARK    5  A    between atoms: C_12  and  C_14
REMARK    6  A    between atoms: S_21  and  C_24
REMARK                            x       y       z     vdW  Elec       q    Type
REMARK                         _______ _______ _______ _____ _____    ______ ____
ROOT
ATOM      1  C   UNL     1       3.666  -2.732  -2.961  0.00  0.00    +0.235 A 
ATOM      2  C   UNL     1       3.620  -4.077  -3.115  0.00  0.00    +0.243 A 
ATOM      3  N   UNL     1       4.858  -4.495  -3.420  0.00  0.00    -0.188 NA
ATOM      4  C   UNL     1       5.657  -3.456  -3.457  0.00  0.00    +0.234 A 
ATOM      5  O   UNL     1       4.939  -2.349  -3.182  0.00  0.00    -0.420 OA
ENDROOT
BRANCH   1   9
ATOM      6  N   UNL     1       1.166   0.420  -2.027  0.00  0.00    +0.382 N 
ATOM      7  C   UNL     1       1.692   0.237  -3.386  0.00  0.00    -0.060 C 
ATOM      8  C   UNL     1       1.795  -1.260  -3.695  0.00  0.00    +0.089 C 
ATOM      9  N   UNL     1       2.597  -1.901  -2.641  0.00  0.00    -0.302 N 
ATOM     10  C   UNL     1       2.237  -1.637  -1.239  0.00  0.00    +0.089 C 
ATOM     11  C   UNL     1       2.114  -0.122  -1.046  0.00  0.00    -0.060 C 
ATOM     12  H   UNL     1       0.284  -0.062  -1.943  0.00  0.00    -0.082 HD
BRANCH   6  14
ATOM     13  C   UNL     1      -0.115   2.392  -2.712  0.00  0.00    -0.017 C 
ATOM     14  C   UNL     1       0.965   1.853  -1.771  0.00  0.00    -0.082 C 
ENDBRANCH   6  14
ENDBRANCH   1   9
BRANCH   4  15
ATOM     15  C   UNL     1       7.103  -3.491  -3.757  0.00  0.00    +0.072 A 
ATOM     16  C   UNL     1       7.848  -2.311  -3.760  0.00  0.00    +0.016 A 
ATOM     17  C   UNL     1       9.198  -2.351  -4.041  0.00  0.00    +0.001 A 
ATOM     18  C   UNL     1       9.815  -3.557  -4.321  0.00  0.00    +0.003 A 
ATOM     19  C   UNL     1       9.085  -4.732  -4.321  0.00  0.00    +0.039 A 
ATOM     20  C   UNL     1       7.733  -4.708  -4.035  0.00  0.00    +0.136 A 
ATOM     21  F   UNL     1       7.021  -5.856  -4.029  0.00  0.00    -0.205 F 
ENDBRANCH   4  15
BRANCH   2  22
ATOM     22  S   UNL     1       2.192  -5.095  -2.947  0.00  0.00    +0.047 S 
ATOM     23  O   UNL     1       2.647  -6.362  -2.493  0.00  0.00    -0.163 OA
ATOM     24  O   UNL     1       1.231  -4.330  -2.232  0.00  0.00    -0.163 OA
BRANCH  22  25
ATOM     25  C   UNL     1       1.536  -5.344  -4.563  0.00  0.00    +0.099 A 
ATOM     26  C   UNL     1       0.602  -4.462  -5.073  0.00  0.00    +0.031 A 
ATOM     27  C   UNL     1       0.085  -4.655  -6.340  0.00  0.00    +0.051 A 
ATOM     28  C   UNL     1       0.502  -5.735  -7.104  0.00  0.00    +0.162 A 
ATOM     29  C   UNL     1       1.443  -6.620  -6.592  0.00  0.00    +0.164 A 
ATOM     30  C   UNL     1       1.961  -6.419  -5.321  0.00  0.00    +0.076 A 
ATOM     31  O   UNL     1       1.872  -7.682  -7.328  0.00  0.00    -0.485 OA
ATOM     32  C   UNL     1       1.063  -8.059  -8.447  0.00  0.00    +0.270 C 
ATOM     33  C   UNL     1       0.699  -6.787  -9.226  0.00  0.00    +0.270 C 
ATOM     34  O   UNL     1      -0.019  -5.914  -8.348  0.00  0.00    -0.485 OA
ENDBRANCH  22  25
ENDBRANCH   2  22
TORSDOF 5
