REMARK  Name = ZINC36743700
REMARK  7 active torsions:
REMARK  status: ('A' for Active; 'I' for Inactive)
REMARK    1  A    between atoms: C_1  and  C_2
REMARK    2  A    between atoms: C_8  and  O_33
REMARK    3  A    between atoms: N_15  and  C_18
REMARK    4  A    between atoms: C_18  and  C_19
REMARK    5  A    between atoms: C_19  and  C_21
REMARK    6  A    between atoms: C_19  and  O_32
REMARK    7  A    between atoms: C_28  and  C_31
REMARK                            x       y       z     vdW  Elec       q    Type
REMARK                         _______ _______ _______ _____ _____    ______ ____
ROOT
ATOM      1  C   UNL     1      -0.522   1.351  -0.637  0.00  0.00    +0.044 C 
ATOM      2  C   UNL     1      -0.424  -0.151  -0.567  0.00  0.00    -0.050 A 
ATOM      3  C   UNL     1      -0.311  -0.892  -1.729  0.00  0.00    +0.007 A 
ATOM      4  C   UNL     1      -0.223  -2.267  -1.664  0.00  0.00    +0.046 A 
ATOM      5  C   UNL     1      -0.247  -2.912  -0.431  0.00  0.00    +0.127 A 
ATOM      6  C   UNL     1      -0.355  -2.168   0.731  0.00  0.00    +0.023 A 
ATOM      7  C   UNL     1      -0.441  -0.788   0.659  0.00  0.00    +0.013 A 
ATOM      8  C   UNL     1      -0.370  -2.827   2.087  0.00  0.00    +0.152 C 
ATOM      9  C   UNL     1      -0.710  -4.311   1.936  0.00  0.00    +0.084 C 
ATOM     10  C   UNL     1       0.169  -4.899   0.827  0.00  0.00    +0.110 C 
ATOM     11  O   UNL     1      -0.167  -4.268  -0.408  0.00  0.00    -0.485 OA
ATOM     12  C   UNL     1      -0.079  -6.405   0.723  0.00  0.00    +0.029 C 
ATOM     13  C   UNL     1       0.859  -7.001  -0.329  0.00  0.00    -0.075 C 
ATOM     14  N   UNL     1       2.253  -6.755   0.060  0.00  0.00    +0.382 N 
ATOM     15  C   UNL     1       2.517  -5.312   0.086  0.00  0.00    -0.075 C 
ATOM     16  C   UNL     1       1.642  -4.649   1.154  0.00  0.00    +0.029 C 
ATOM     17  H   UNL     1       2.418  -7.143   0.977  0.00  0.00    -0.082 HD
ENDROOT
BRANCH   8  18
ATOM     18  O   UNL     1      -1.352  -2.196   2.911  0.00  0.00    -0.387 OA
ATOM     19  H   UNL     1      -1.198  -1.252   3.053  0.00  0.00    +0.210 HD
ENDBRANCH   8  18
BRANCH  14  20
ATOM     20  C   UNL     1       3.151  -7.398  -0.908  0.00  0.00    -0.042 C 
BRANCH  20  21
ATOM     21  C   UNL     1       2.991  -8.917  -0.823  0.00  0.00    +0.128 C 
BRANCH  21  22
ATOM     22  C   UNL     1       3.907  -9.577  -1.821  0.00  0.00    -0.020 A 
ATOM     23  C   UNL     1       5.224  -9.836  -1.488  0.00  0.00    +0.009 A 
ATOM     24  C   UNL     1       6.066 -10.443  -2.396  0.00  0.00    +0.046 A 
ATOM     25  C   UNL     1       5.597 -10.799  -3.658  0.00  0.00    +0.124 A 
ATOM     26  C   UNL     1       4.275 -10.527  -3.984  0.00  0.00    -0.002 A 
ATOM     27  C   UNL     1       3.433  -9.929  -3.071  0.00  0.00    +0.013 A 
ATOM     28  C   UNL     1       4.062 -10.997  -5.409  0.00  0.00    +0.083 C 
ATOM     29  C   UNL     1       5.516 -11.175  -5.908  0.00  0.00    +0.175 C 
ATOM     30  O   UNL     1       6.243 -11.409  -4.690  0.00  0.00    -0.488 OA
ATOM     31  C   UNL     1       5.623 -12.378  -6.847  0.00  0.00    +0.052 C 
ENDBRANCH  21  22
BRANCH  21  32
ATOM     32  O   UNL     1       3.325  -9.358   0.495  0.00  0.00    -0.389 OA
ATOM     33  H   UNL     1       4.232  -9.151   0.760  0.00  0.00    +0.210 HD
ENDBRANCH  21  32
ENDBRANCH  20  21
ENDBRANCH  14  20
TORSDOF 5
