REMARK  Name = ZINC33658484
REMARK  9 active torsions:
REMARK  status: ('A' for Active; 'I' for Inactive)
REMARK    1  A    between atoms: C_1  and  C_2
REMARK    2  A    between atoms: C_2  and  O_3
REMARK    3  A    between atoms: O_3  and  C_4
REMARK    4  A    between atoms: C_4  and  C_6
REMARK    5  A    between atoms: C_7  and  C_34
REMARK    6  A    between atoms: N_8  and  C_33
REMARK    7  A    between atoms: C_12  and  C_14
REMARK    8  A    between atoms: C_18  and  N_20
REMARK    9  A    between atoms: C_21  and  C_23
REMARK                            x       y       z     vdW  Elec       q    Type
REMARK                         _______ _______ _______ _____ _____    ______ ____
ROOT
ATOM      1  C   UNL     1      -3.634   1.589   0.086  0.00  0.00    -0.021 A 
ATOM      2  C   UNL     1      -3.665   2.967  -0.023  0.00  0.00    +0.006 A 
ATOM      3  C   UNL     1      -2.486   3.682  -0.123  0.00  0.00    +0.002 A 
ATOM      4  C   UNL     1      -1.273   3.022  -0.108  0.00  0.00    +0.023 A 
ATOM      5  C   UNL     1      -1.238   1.638  -0.003  0.00  0.00    +0.034 A 
ATOM      6  C   UNL     1      -2.425   0.922   0.097  0.00  0.00    +0.029 A 
ENDROOT
BRANCH   1  13
ATOM      7  C   UNL     1      -5.305   0.747   1.659  0.00  0.00    +0.078 C 
ATOM      8  C   UNL     1      -6.507   1.248   2.018  0.00  0.00    +0.024 C 
ATOM      9  N   UNL     1      -7.347   1.796   1.091  0.00  0.00    -0.262 N 
ATOM     10  C   UNL     1      -7.059   1.880  -0.214  0.00  0.00    +0.307 C 
ATOM     11  O   UNL     1      -7.871   2.385  -0.963  0.00  0.00    -0.252 OA
ATOM     12  N   UNL     1      -5.898   1.423  -0.723  0.00  0.00    -0.288 N 
ATOM     13  C   UNL     1      -4.922   0.813   0.195  0.00  0.00    +0.144 C 
ATOM     14  C   UNL     1      -8.635   2.320   1.550  0.00  0.00    +0.139 C 
ATOM     15  C   UNL     1      -6.927   1.202   3.464  0.00  0.00    +0.061 C 
ATOM     16  H   UNL     1      -5.671   1.497  -1.797  0.00  0.00    +0.151 HD
BRANCH   7  17
ATOM     17  C   UNL     1      -4.434   0.178   2.618  0.00  0.00    +0.339 C 
ATOM     18  O   UNL     1      -4.763   0.136   3.789  0.00  0.00    -0.245 OA
BRANCH  17  19
ATOM     19  O   UNL     1      -3.238  -0.316   2.235  0.00  0.00    -0.462 OA
BRANCH  19  21
ATOM     20  C   UNL     1      -1.106  -1.381   2.635  0.00  0.00    +0.048 C 
ATOM     21  C   UNL     1      -2.410  -0.875   3.256  0.00  0.00    +0.229 C 
ENDBRANCH  19  21
ENDBRANCH  17  19
ENDBRANCH   7  17
ENDBRANCH   1  13
BRANCH   5  22
ATOM     22  N   UNL     1      -0.011   0.966   0.007  0.00  0.00    -0.285 N 
ATOM     23  C   UNL     1       1.062   1.531   0.596  0.00  0.00    +0.223 C 
ATOM     24  O   UNL     1       0.984   2.653   1.049  0.00  0.00    -0.275 OA
ATOM     25  H   UNL     1       0.078  -0.024  -0.465  0.00  0.00    +0.155 HD
BRANCH  23  26
ATOM     26  C   UNL     1       2.357   0.768   0.692  0.00  0.00    +0.048 C 
ATOM     27  C   UNL     1       2.134  -0.519   1.488  0.00  0.00    +0.019 C 
ATOM     28  C   UNL     1       3.450  -1.294   1.586  0.00  0.00    -0.009 C 
ATOM     29  C   UNL     1       4.498  -0.432   2.293  0.00  0.00    +0.007 C 
ATOM     30  C   UNL     1       4.721   0.855   1.497  0.00  0.00    -0.009 C 
ATOM     31  C   UNL     1       3.405   1.630   1.399  0.00  0.00    +0.019 C 
ATOM     32  C   UNL     1       5.213   0.506   0.091  0.00  0.00    +0.007 C 
ATOM     33  C   UNL     1       4.165  -0.356  -0.617  0.00  0.00    -0.009 C 
ATOM     34  C   UNL     1       3.941  -1.643   0.180  0.00  0.00    +0.007 C 
ATOM     35  C   UNL     1       2.849   0.419  -0.714  0.00  0.00    +0.019 C 
ENDBRANCH  23  26
ENDBRANCH   5  22
TORSDOF 6
