REMARK  Name = ZINC52094476
REMARK  4 active torsions:
REMARK  status: ('A' for Active; 'I' for Inactive)
REMARK    1  A    between atoms: C_1  and  N_2
REMARK    2  A    between atoms: N_2  and  C_3
REMARK    3  A    between atoms: C_3  and  C_5
REMARK    4  A    between atoms: C_3  and  C_18
REMARK                            x       y       z     vdW  Elec       q    Type
REMARK                         _______ _______ _______ _____ _____    ______ ____
ROOT
ATOM      1  C   UNL     1       1.144  -1.944   0.915  0.00  0.00    -0.045 A 
ATOM      2  C   UNL     1       0.432  -2.683  -0.010  0.00  0.00    +0.031 A 
ATOM      3  C   UNL     1       0.736  -4.022  -0.205  0.00  0.00    +0.067 A 
ATOM      4  C   UNL     1       1.760  -4.618   0.535  0.00  0.00    +0.068 A 
ATOM      5  C   UNL     1       2.469  -3.869   1.461  0.00  0.00    +0.043 A 
ATOM      6  C   UNL     1       2.163  -2.533   1.644  0.00  0.00    +0.022 A 
ATOM      7 BR   UNL     1       3.135  -1.508   2.901  0.00  0.00    -0.050 Br
ATOM      8  N   UNL     1       1.830  -5.947   0.126  0.00  0.00    -0.306 N 
ATOM      9  H   UNL     1       2.449  -6.613   0.465  0.00  0.00    +0.170 HD
ATOM     10  C   UNL     1       0.893  -6.151  -0.818  0.00  0.00    +0.325 A 
ATOM     11  O   UNL     1       0.687  -7.208  -1.385  0.00  0.00    -0.247 OA
ATOM     12  N   UNL     1       0.216  -5.008  -1.040  0.00  0.00    -0.306 N 
ATOM     13  H   UNL     1      -0.510  -4.892  -1.673  0.00  0.00    +0.170 HD
ENDROOT
BRANCH   1  14
ATOM     14  C   UNL     1       0.814  -0.489   1.126  0.00  0.00    -0.035 C 
BRANCH  14  15
ATOM     15  C   UNL     1      -0.300  -0.365   2.167  0.00  0.00    +0.007 C 
ATOM     16  C   UNL     1       0.089  -1.107   3.469  0.00  0.00    +0.032 C 
ATOM     17  C   UNL     1      -1.248  -1.779   3.872  0.00  0.00    +0.160 C 
ATOM     18  O   UNL     1      -1.827  -2.163   2.607  0.00  0.00    -0.380 OA
ATOM     19  C   UNL     1      -1.573  -1.087   1.684  0.00  0.00    +0.162 C 
ENDBRANCH  14  15
BRANCH  14  21
ATOM     20  C   UNL     1       0.182   1.548   0.029  0.00  0.00    -0.100 C 
ATOM     21  N   UNL     1       0.366   0.101  -0.142  0.00  0.00    +0.382 N 
ATOM     22  H   UNL     1      -0.508  -0.319  -0.419  0.00  0.00    -0.085 HD
ATOM     23  H   UNL     1       1.060  -0.068  -0.855  0.00  0.00    -0.085 HD
ENDBRANCH  14  21
ENDBRANCH   1  14
TORSDOF 3
