REMARK  Name = ZINC20678900
REMARK  8 active torsions:
REMARK  status: ('A' for Active; 'I' for Inactive)
REMARK    1  A    between atoms: C_1  and  O_2
REMARK    2  A    between atoms: O_2  and  C_3
REMARK    3  A    between atoms: C_6  and  C_9
REMARK    4  A    between atoms: C_22  and  O_25
REMARK    5  A    between atoms: O_25  and  C_26
REMARK    6  A    between atoms: C_26  and  C_27
REMARK    7  A    between atoms: C_27  and  O_28
REMARK    8  A    between atoms: O_28  and  C_29
REMARK                            x       y       z     vdW  Elec       q    Type
REMARK                         _______ _______ _______ _____ _____    ______ ____
ROOT
ATOM      1  C   UNL     1       0.080   5.611  -0.051  0.00  0.00    +0.105 C 
ATOM      2  C   UNL     1       0.979   6.454   0.829  0.00  0.00    +0.029 C 
ATOM      3  C   UNL     1       0.820   7.978   0.770  0.00  0.00    +0.033 C 
ATOM      4  C   UNL     1       2.239   8.445   1.106  0.00  0.00    -0.030 C 
ATOM      5  C   UNL     1       3.117   7.508   0.765  0.00  0.00    -0.023 C 
ATOM      6  C   UNL     1       2.381   6.375   0.163  0.00  0.00    +0.049 C 
ATOM      7  C   UNL     1       2.835   4.972   0.278  0.00  0.00    -0.016 A 
ATOM      8  C   UNL     1       4.170   4.649   0.413  0.00  0.00    +0.006 A 
ATOM      9  C   UNL     1       4.571   3.329   0.483  0.00  0.00    +0.004 A 
ATOM     10  C   UNL     1       3.625   2.322   0.417  0.00  0.00    +0.047 A 
ATOM     11  C   UNL     1       2.286   2.634   0.290  0.00  0.00    +0.142 A 
ATOM     12  C   UNL     1       1.866   3.968   0.220  0.00  0.00    +0.074 A 
ATOM     13  N   UNL     1       0.495   4.210   0.123  0.00  0.00    -0.334 N 
ATOM     14  H   UNL     1      -0.263   3.414   0.171  0.00  0.00    +0.147 HD
ENDROOT
BRANCH   1  18
ATOM     15  C   UNL     1       0.544   6.770  -4.138  0.00  0.00    +0.120 A 
ATOM     16  C   UNL     1       1.307   5.734  -3.619  0.00  0.00    +0.046 A 
ATOM     17  C   UNL     1       1.155   5.361  -2.298  0.00  0.00    +0.009 A 
ATOM     18  C   UNL     1       0.244   6.019  -1.493  0.00  0.00    -0.027 A 
ATOM     19  C   UNL     1      -0.521   7.048  -2.010  0.00  0.00    +0.009 A 
ATOM     20  C   UNL     1      -0.369   7.428  -3.329  0.00  0.00    +0.046 A 
BRANCH  15  22
ATOM     21  C   UNL     1      -0.126   8.213  -5.905  0.00  0.00    +0.277 C 
ATOM     22  O   UNL     1       0.692   7.138  -5.438  0.00  0.00    -0.495 OA
ENDBRANCH  15  22
ENDBRANCH   1  18
BRANCH  11  23
ATOM     23  O   UNL     1       1.366   1.635   0.226  0.00  0.00    -0.487 OA
BRANCH  23  24
ATOM     24  C   UNL     1       1.857   0.295   0.297  0.00  0.00    +0.270 C 
BRANCH  24  25
ATOM     25  C   UNL     1       0.684  -0.683   0.211  0.00  0.00    +0.270 C 
BRANCH  25  26
ATOM     26  O   UNL     1       0.066  -0.574  -1.073  0.00  0.00    -0.489 OA
BRANCH  26  27
ATOM     27  C   UNL     1      -1.000  -1.381  -1.316  0.00  0.00    +0.121 A 
ATOM     28  C   UNL     1      -1.440  -2.264  -0.340  0.00  0.00    +0.045 A 
ATOM     29  C   UNL     1      -2.528  -3.079  -0.587  0.00  0.00    +0.004 A 
ATOM     30  C   UNL     1      -3.171  -3.024  -1.809  0.00  0.00    +0.000 A 
ATOM     31  C   UNL     1      -2.731  -2.149  -2.786  0.00  0.00    +0.004 A 
ATOM     32  C   UNL     1      -1.647  -1.328  -2.542  0.00  0.00    +0.045 A 
ENDBRANCH  26  27
ENDBRANCH  25  26
ENDBRANCH  24  25
ENDBRANCH  23  24
ENDBRANCH  11  23
TORSDOF 7
