REMARK  Name = ZINC11916194
REMARK  11 active torsions:
REMARK  status: ('A' for Active; 'I' for Inactive)
REMARK    1  A    between atoms: C_1  and  C_2
REMARK    2  A    between atoms: C_2  and  O_3
REMARK    3  A    between atoms: O_3  and  C_4
REMARK    4  A    between atoms: C_4  and  C_5
REMARK    5  A    between atoms: C_5  and  C_6
REMARK    6  A    between atoms: C_6  and  N_7
REMARK    7  A    between atoms: C_8  and  C_10
REMARK    8  A    between atoms: C_14  and  N_15
REMARK    9  A    between atoms: C_16  and  C_18
REMARK   10  A    between atoms: C_25  and  C_30
REMARK   11  A    between atoms: C_26  and  C_29
REMARK                            x       y       z     vdW  Elec       q    Type
REMARK                         _______ _______ _______ _____ _____    ______ ____
ROOT
ATOM      1  C   UNL     1      -4.771   5.779   0.084  0.00  0.00    +0.069 A 
ATOM      2  C   UNL     1      -6.108   6.348   0.093  0.00  0.00    -0.023 A 
ATOM      3  C   UNL     1      -7.116   5.449   0.099  0.00  0.00    -0.004 A 
ATOM      4  S   UNL     1      -6.315   3.870   0.083  0.00  0.00    -0.077 S 
ATOM      5  C   UNL     1      -4.664   4.394   0.070  0.00  0.00    +0.085 A 
ATOM      6  C   UNL     1      -8.585   5.739   0.115  0.00  0.00    +0.043 C 
ATOM      7  C   UNL     1      -8.782   7.212   0.503  0.00  0.00    +0.005 C 
ATOM      8  C   UNL     1      -7.838   8.075  -0.339  0.00  0.00    +0.005 C 
ATOM      9  C   UNL     1      -6.391   7.845   0.103  0.00  0.00    +0.037 C 
ENDROOT
BRANCH   1  11
ATOM     10  N   UNL     1      -3.026   7.015   1.253  0.00  0.00    -0.311 N 
ATOM     11  C   UNL     1      -3.580   6.634   0.085  0.00  0.00    +0.247 C 
ATOM     12  O   UNL     1      -3.093   7.000  -0.969  0.00  0.00    -0.270 OA
ATOM     13  H   UNL     1      -3.414   6.724   2.092  0.00  0.00    +0.149 HD
BRANCH  10  14
ATOM     14  C   UNL     1      -1.836   7.870   1.254  0.00  0.00    +0.107 C 
BRANCH  14  15
ATOM     15  C   UNL     1      -1.413   8.153   2.696  0.00  0.00    +0.047 C 
BRANCH  15  16
ATOM     16  C   UNL     1      -0.170   9.045   2.698  0.00  0.00    +0.161 C 
BRANCH  16  17
ATOM     17  O   UNL     1       0.226   9.310   4.045  0.00  0.00    -0.380 OA
BRANCH  17  19
ATOM     18  C   UNL     1       1.713  10.355   5.638  0.00  0.00    +0.034 C 
ATOM     19  C   UNL     1       1.383  10.139   4.159  0.00  0.00    +0.156 C 
ENDBRANCH  17  19
ENDBRANCH  16  17
ENDBRANCH  15  16
ENDBRANCH  14  15
ENDBRANCH  10  14
ENDBRANCH   1  11
BRANCH   5  20
ATOM     20  N   UNL     1      -3.516   3.621   0.055  0.00  0.00    -0.273 N 
ATOM     21  C   UNL     1      -3.609   2.276   0.049  0.00  0.00    +0.284 C 
ATOM     22  O   UNL     1      -4.701   1.743   0.056  0.00  0.00    -0.266 OA
ATOM     23  H   UNL     1      -2.644   4.047   0.049  0.00  0.00    +0.156 HD
BRANCH  21  24
ATOM     24  C   UNL     1      -2.381   1.449   0.033  0.00  0.00    +0.194 A 
ATOM     25  C   UNL     1      -2.505   0.100   0.027  0.00  0.00    +0.103 A 
ATOM     26  C   UNL     1      -1.286  -0.723   0.011  0.00  0.00    +0.193 A 
ATOM     27  O   UNL     1      -1.338  -1.940   0.004  0.00  0.00    -0.287 OA
ATOM     28  C   UNL     1       0.002  -0.004   0.002  0.00  0.00    +0.064 A 
ATOM     29  C   UNL     1       1.216  -0.691  -0.013  0.00  0.00    +0.015 A 
ATOM     30  C   UNL     1       2.390   0.010  -0.020  0.00  0.00    +0.004 A 
ATOM     31  C   UNL     1       2.380   1.398  -0.012  0.00  0.00    -0.044 A 
ATOM     32  C   UNL     1       1.190   2.093   0.002  0.00  0.00    -0.005 A 
ATOM     33  C   UNL     1      -0.017   1.401   0.010  0.00  0.00    +0.143 A 
ATOM     34  O   UNL     1      -1.189   2.064   0.030  0.00  0.00    -0.450 OA
ATOM     35  C   UNL     1       1.196   3.600   0.010  0.00  0.00    +0.048 C 
ATOM     36  C   UNL     1       3.684   2.152  -0.019  0.00  0.00    +0.044 C 
ENDBRANCH  21  24
ENDBRANCH   5  20
TORSDOF 8
