REMARK  Name = ZINC19791888
REMARK  7 active torsions:
REMARK  status: ('A' for Active; 'I' for Inactive)
REMARK    1  A    between atoms: C_1  and  C_2
REMARK    2  A    between atoms: C_4  and  C_27
REMARK    3  A    between atoms: C_6  and  O_8
REMARK    4  A    between atoms: O_8  and  C_9
REMARK    5  A    between atoms: C_18  and  O_26
REMARK    6  A    between atoms: C_19  and  C_20
REMARK    7  A    between atoms: C_20  and  N_21
REMARK                            x       y       z     vdW  Elec       q    Type
REMARK                         _______ _______ _______ _____ _____    ______ ____
ROOT
ATOM      1  C   UNL     1      -2.456   5.287   0.360  0.00  0.00    +0.210 A 
ATOM      2  C   UNL     1      -1.301   5.855   0.760  0.00  0.00    +0.245 A 
ATOM      3  O   UNL     1      -0.208   5.141   1.061  0.00  0.00    -0.459 OA
ATOM      4  C   UNL     1      -0.181   3.795   0.987  0.00  0.00    +0.143 A 
ATOM      5  C   UNL     1      -1.332   3.095   0.582  0.00  0.00    +0.068 A 
ATOM      6  C   UNL     1      -2.539   3.870   0.248  0.00  0.00    +0.235 A 
ATOM      7  O   UNL     1      -3.568   3.321  -0.111  0.00  0.00    -0.283 OA
ATOM      8  C   UNL     1      -1.315   1.703   0.496  0.00  0.00    +0.019 A 
ATOM      9  C   UNL     1      -0.178   1.018   0.819  0.00  0.00    +0.046 A 
ATOM     10  C   UNL     1       0.966   1.703   1.223  0.00  0.00    +0.122 A 
ATOM     11  C   UNL     1       0.967   3.086   1.307  0.00  0.00    +0.020 A 
ENDROOT
BRANCH  10  12
ATOM     12  O   UNL     1       2.090   1.009   1.536  0.00  0.00    -0.506 OA
ATOM     13  H   UNL     1       2.996   1.545   1.855  0.00  0.00    +0.292 HD
ENDBRANCH  10  12
BRANCH   1  14
ATOM     14  O   UNL     1      -3.535   6.063   0.067  0.00  0.00    -0.449 OA
BRANCH  14  20
ATOM     15  C   UNL     1      -3.861  10.097   2.796  0.00  0.00    +0.044 C 
ATOM     16  C   UNL     1      -3.550   9.411   1.490  0.00  0.00    -0.047 A 
ATOM     17  C   UNL     1      -3.129  10.154   0.403  0.00  0.00    +0.007 A 
ATOM     18  C   UNL     1      -2.844   9.528  -0.797  0.00  0.00    -0.047 A 
ATOM     19  C   UNL     1      -2.979   8.159  -0.912  0.00  0.00    +0.049 A 
ATOM     20  C   UNL     1      -3.402   7.410   0.178  0.00  0.00    +0.129 A 
ATOM     21  C   UNL     1      -3.692   8.042   1.379  0.00  0.00    +0.049 A 
ATOM     22  C   UNL     1      -2.385  10.342  -1.980  0.00  0.00    +0.044 C 
ENDBRANCH  14  20
ENDBRANCH   1  14
BRANCH  11  23
ATOM     23  C   UNL     1       2.211   3.816   1.744  0.00  0.00    -0.036 C 
BRANCH  23  24
ATOM     24  N   UNL     1       3.032   4.133   0.568  0.00  0.00    +0.383 N 
ATOM     25  C   UNL     1       2.232   4.841  -0.464  0.00  0.00    -0.078 C 
ATOM     26  C   UNL     1       3.310   5.537  -1.332  0.00  0.00    -0.020 C 
ATOM     27  C   UNL     1       4.366   5.971  -0.289  0.00  0.00    -0.020 C 
ATOM     28  C   UNL     1       4.135   5.052   0.924  0.00  0.00    -0.078 C 
ATOM     29  H   UNL     1       3.413   3.169   0.200  0.00  0.00    -0.081 HD
ENDBRANCH  23  24
ENDBRANCH  11  23
TORSDOF 5
