REMARK  Name = ZINC61158364
REMARK  7 active torsions:
REMARK  status: ('A' for Active; 'I' for Inactive)
REMARK    1  A    between atoms: C_1  and  C_2
REMARK    2  A    between atoms: C_2  and  C_3
REMARK    3  A    between atoms: C_2  and  N_9
REMARK    4  A    between atoms: C_3  and  C_4
REMARK    5  A    between atoms: C_10  and  C_12
REMARK    6  A    between atoms: C_12  and  C_13
REMARK    7  A    between atoms: C_16  and  C_18
REMARK                            x       y       z     vdW  Elec       q    Type
REMARK                         _______ _______ _______ _____ _____    ______ ____
ROOT
ATOM      1  C   UNL     1       2.736  -1.073  -2.455  0.00  0.00    +0.151 C 
ENDROOT
BRANCH   1   2
ATOM      2  C   UNL     1       4.223  -1.105  -2.207  0.00  0.00    +0.058 A 
ATOM      3  C   UNL     1       4.923  -2.252  -2.413  0.00  0.00    +0.071 A 
ATOM      4  S   UNL     1       6.572  -1.715  -1.976  0.00  0.00    -0.075 S 
ATOM      5  C   UNL     1       6.150  -0.026  -1.567  0.00  0.00    +0.110 A 
ATOM      6  N   UNL     1       4.844  -0.024  -1.798  0.00  0.00    -0.243 NA
BRANCH   5   7
ATOM      7  C   UNL     1       7.022   1.073  -1.102  0.00  0.00    +0.026 A 
ATOM      8  C   UNL     1       6.481   2.330  -0.831  0.00  0.00    +0.013 A 
ATOM      9  C   UNL     1       7.300   3.352  -0.397  0.00  0.00    +0.021 A 
ATOM     10  C   UNL     1       8.658   3.132  -0.232  0.00  0.00    +0.042 A 
ATOM     11  C   UNL     1       9.201   1.888  -0.499  0.00  0.00    +0.040 A 
ATOM     12  C   UNL     1       8.391   0.855  -0.928  0.00  0.00    +0.052 A 
ATOM     13 CL   UNL     1       9.072  -0.707  -1.256  0.00  0.00    -0.083 Cl
ATOM     14 CL   UNL     1       9.682   4.424   0.313  0.00  0.00    -0.083 Cl
ENDBRANCH   5   7
ENDBRANCH   1   2
BRANCH   1  16
ATOM     15  N   UNL     1       0.688  -0.476  -1.203  0.00  0.00    -0.312 N 
ATOM     16  C   UNL     1       2.031  -0.587  -1.215  0.00  0.00    +0.219 C 
ATOM     17  O   UNL     1       2.672  -0.295  -0.228  0.00  0.00    -0.275 OA
ATOM     18  H   UNL     1       0.175  -0.710  -1.993  0.00  0.00    +0.149 HD
BRANCH  15  20
ATOM     19  C   UNL     1      -0.019   1.526   0.010  0.00  0.00    +0.028 C 
ATOM     20  C   UNL     1       0.002  -0.004   0.002  0.00  0.00    +0.077 C 
BRANCH  20  21
ATOM     21  C   UNL     1      -1.433  -0.534   0.013  0.00  0.00    +0.096 C 
BRANCH  21  22
ATOM     22  C   UNL     1      -1.414  -2.036   0.129  0.00  0.00    +0.107 A 
ATOM     23  C   UNL     1      -1.431  -2.737   1.276  0.00  0.00    +0.045 A 
ATOM     24  C   UNL     1      -1.402  -4.105   0.921  0.00  0.00    +0.041 A 
ATOM     25  C   UNL     1      -1.368  -4.159  -0.422  0.00  0.00    +0.195 A 
ATOM     26  O   UNL     1      -1.381  -2.902  -0.897  0.00  0.00    -0.468 OA
ENDBRANCH  21  22
ENDBRANCH  20  21
ENDBRANCH  15  20
ENDBRANCH   1  16
TORSDOF 6
