REMARK  Name = ZINC38684143
REMARK  15 active torsions:
REMARK  status: ('A' for Active; 'I' for Inactive)
REMARK    1  A    between atoms: C_1  and  C_2
REMARK    2  A    between atoms: C_2  and  C_3
REMARK    3  A    between atoms: C_2  and  C_4
REMARK    4  A    between atoms: C_4  and  O_5
REMARK    5  A    between atoms: O_5  and  C_6
REMARK    6  A    between atoms: C_9  and  C_14
REMARK    7  A    between atoms: C_11  and  O_12
REMARK    8  A    between atoms: O_12  and  C_13
REMARK    9  A    between atoms: C_19  and  O_28
REMARK   10  A    between atoms: C_23  and  N_27
REMARK   11  A    between atoms: C_24  and  C_25
REMARK   12  A    between atoms: O_28  and  C_29
REMARK   13  A    between atoms: C_29  and  C_31
REMARK   14  A    between atoms: C_31  and  O_32
REMARK   15  A    between atoms: O_32  and  C_33
REMARK                            x       y       z     vdW  Elec       q    Type
REMARK                         _______ _______ _______ _____ _____    ______ ____
ROOT
ATOM      1  C   UNL     1      -6.426  -4.519  -0.165  0.00  0.00    +0.098 C 
ATOM      2  C   UNL     1      -7.141  -4.246   1.131  0.00  0.00    +0.008 A 
ATOM      3  C   UNL     1      -6.815  -4.982   2.256  0.00  0.00    +0.012 A 
ATOM      4  C   UNL     1      -7.460  -4.746   3.454  0.00  0.00    +0.047 A 
ATOM      5  C   UNL     1      -8.441  -3.766   3.532  0.00  0.00    +0.135 A 
ATOM      6  C   UNL     1      -8.770  -3.028   2.407  0.00  0.00    +0.093 A 
ATOM      7  C   UNL     1      -8.119  -3.266   1.204  0.00  0.00    +0.138 A 
ATOM      8  O   UNL     1      -8.453  -2.535   0.112  0.00  0.00    -0.441 OA
ATOM      9  C   UNL     1      -8.143  -2.983  -1.116  0.00  0.00    +0.199 C 
ATOM     10  C   UNL     1      -7.191  -3.922  -1.313  0.00  0.00    +0.098 C 
ENDROOT
BRANCH   1  14
ATOM     11  C   UNL     1      -2.519  -2.786  -0.016  0.00  0.00    +0.162 A 
ATOM     12  C   UNL     1      -3.641  -1.984   0.114  0.00  0.00    +0.050 A 
ATOM     13  C   UNL     1      -4.903  -2.547   0.065  0.00  0.00    +0.008 A 
ATOM     14  C   UNL     1      -5.048  -3.910  -0.113  0.00  0.00    -0.031 A 
ATOM     15  C   UNL     1      -3.933  -4.716  -0.243  0.00  0.00    +0.054 A 
ATOM     16  C   UNL     1      -2.665  -4.157  -0.202  0.00  0.00    +0.162 A 
BRANCH  16  17
ATOM     17  O   UNL     1      -1.567  -4.948  -0.335  0.00  0.00    -0.491 OA
ATOM     18  C   UNL     1      -1.793  -6.346  -0.522  0.00  0.00    +0.277 C 
ENDBRANCH  16  17
BRANCH  11  19
ATOM     19  O   UNL     1      -1.277  -2.233   0.031  0.00  0.00    -0.488 OA
BRANCH  19  20
ATOM     20  C   UNL     1      -1.203  -0.819   0.224  0.00  0.00    +0.232 C 
BRANCH  20  22
ATOM     21  C   UNL     1       0.341   1.142   0.331  0.00  0.00    +0.010 C 
ATOM     22  C   UNL     1       0.263  -0.384   0.250  0.00  0.00    +0.020 C 
ATOM     23  C   UNL     1       0.955  -0.996   1.470  0.00  0.00    +0.010 C 
ENDBRANCH  20  22
ENDBRANCH  19  20
ENDBRANCH  11  19
ENDBRANCH   1  14
BRANCH   9  24
ATOM     24  N   UNL     1      -8.812  -2.473  -2.200  0.00  0.00    -0.328 N 
ATOM     25  H   UNL     1      -9.497  -1.799  -2.074  0.00  0.00    +0.145 HD
ATOM     26  H   UNL     1      -8.599  -2.787  -3.093  0.00  0.00    +0.145 HD
ENDBRANCH   9  24
BRANCH  10  27
ATOM     27  C   UNL     1      -6.907  -4.356  -2.647  0.00  0.00    +0.101 C 
ATOM     28  N   UNL     1      -6.681  -4.701  -3.706  0.00  0.00    -0.191 NA
ENDBRANCH  10  27
BRANCH   5  29
ATOM     29  O   UNL     1      -9.077  -3.533   4.710  0.00  0.00    -0.423 OA
BRANCH  29  30
ATOM     30  C   UNL     1     -10.372  -3.874   4.805  0.00  0.00    +0.350 C 
ATOM     31  O   UNL     1     -10.909  -4.466   3.899  0.00  0.00    -0.247 OA
BRANCH  30  32
ATOM     32  C   UNL     1     -11.156  -3.518   6.042  0.00  0.00    +0.349 C 
BRANCH  32  33
ATOM     33  O   UNL     1     -12.500  -3.985   5.905  0.00  0.00    -0.481 OA
BRANCH  33  34
ATOM     34  C   UNL     1     -13.346  -3.743   6.941  0.00  0.00    +0.121 A 
ATOM     35  C   UNL     1     -12.893  -3.066   8.064  0.00  0.00    +0.045 A 
ATOM     36  C   UNL     1     -13.755  -2.822   9.115  0.00  0.00    +0.004 A 
ATOM     37  C   UNL     1     -15.068  -3.252   9.049  0.00  0.00    +0.000 A 
ATOM     38  C   UNL     1     -15.521  -3.927   7.931  0.00  0.00    +0.004 A 
ATOM     39  C   UNL     1     -14.665  -4.168   6.875  0.00  0.00    +0.045 A 
ENDBRANCH  33  34
ENDBRANCH  32  33
ENDBRANCH  30  32
ENDBRANCH  29  30
ENDBRANCH   5  29
TORSDOF 12
