REMARK  Name = ZINC63572245
REMARK  8 active torsions:
REMARK  status: ('A' for Active; 'I' for Inactive)
REMARK    1  A    between atoms: C_1  and  C_2
REMARK    2  A    between atoms: C_2  and  O_3
REMARK    3  A    between atoms: O_3  and  C_4
REMARK    4  A    between atoms: C_4  and  C_6
REMARK    5  A    between atoms: C_6  and  N_7
REMARK    6  A    between atoms: C_23  and  C_25
REMARK    7  A    between atoms: C_28  and  O_31
REMARK    8  A    between atoms: O_31  and  C_32
REMARK                            x       y       z     vdW  Elec       q    Type
REMARK                         _______ _______ _______ _____ _____    ______ ____
ROOT
ATOM      1  N   UNL     1      -2.878  -3.821   0.055  0.00  0.00    -0.289 N 
ATOM      2  C   UNL     1      -3.975  -4.604   0.038  0.00  0.00    +0.303 C 
ATOM      3  O   UNL     1      -5.080  -4.104   0.118  0.00  0.00    -0.253 OA
ATOM      4  N   UNL     1      -3.847  -5.942  -0.066  0.00  0.00    -0.276 N 
ATOM      5  C   UNL     1      -2.511  -6.547  -0.041  0.00  0.00    +0.114 C 
ATOM      6  C   UNL     1      -2.293  -7.362  -1.329  0.00  0.00    +0.052 C 
ATOM      7  C   UNL     1      -3.546  -8.173  -1.545  0.00  0.00    -0.035 C 
ATOM      8  C   UNL     1      -3.726  -9.471  -1.758  0.00  0.00    +0.001 A 
ATOM      9  C   UNL     1      -2.771 -10.570  -1.970  0.00  0.00    +0.030 A 
ATOM     10  C   UNL     1      -3.309 -11.808  -2.142  0.00  0.00    +0.042 A 
ATOM     11  C   UNL     1      -4.686 -12.057  -2.124  0.00  0.00    +0.022 A 
ATOM     12  C   UNL     1      -5.635 -11.105  -1.944  0.00  0.00    +0.027 A 
ATOM     13  C   UNL     1      -5.192  -9.762  -1.760  0.00  0.00    +0.043 A 
ATOM     14  N   UNL     1      -5.874  -8.668  -1.593  0.00  0.00    -0.375 N 
ATOM     15  C   UNL     1      -4.936  -7.546  -1.526  0.00  0.00    +0.131 C 
ATOM     16  C   UNL     1      -5.049  -6.780  -0.198  0.00  0.00    +0.134 C 
ATOM     17 CL   UNL     1      -2.233 -13.146  -2.397  0.00  0.00    -0.084 Cl
ATOM     18  H   UNL     1      -1.995  -4.224   0.065  0.00  0.00    +0.151 HD
ATOM     19  H   UNL     1      -6.839  -8.605  -1.524  0.00  0.00    +0.160 HD
ENDROOT
BRANCH  16  20
ATOM     20  C   UNL     1      -5.123  -7.751   0.951  0.00  0.00    -0.024 A 
ATOM     21  C   UNL     1      -6.238  -7.770   1.769  0.00  0.00    +0.009 A 
ATOM     22  C   UNL     1      -6.308  -8.659   2.824  0.00  0.00    +0.046 A 
ATOM     23  C   UNL     1      -5.258  -9.534   3.062  0.00  0.00    +0.120 A 
ATOM     24  C   UNL     1      -4.141  -9.514   2.240  0.00  0.00    +0.046 A 
ATOM     25  C   UNL     1      -4.078  -8.627   1.184  0.00  0.00    +0.009 A 
BRANCH  23  26
ATOM     26  O   UNL     1      -5.324 -10.410   4.099  0.00  0.00    -0.495 OA
ATOM     27  C   UNL     1      -4.207 -11.281   4.285  0.00  0.00    +0.277 C 
ENDBRANCH  23  26
ENDBRANCH  16  20
BRANCH   1  28
ATOM     28  C   UNL     1      -3.018  -2.363   0.057  0.00  0.00    +0.226 C 
BRANCH  28  29
ATOM     29  C   UNL     1      -1.652  -1.727   0.077  0.00  0.00    +0.324 C 
ATOM     30  O   UNL     1      -0.663  -2.421   0.088  0.00  0.00    -0.249 OA
BRANCH  29  31
ATOM     31  O   UNL     1      -1.535  -0.390   0.082  0.00  0.00    -0.464 OA
BRANCH  31  33
ATOM     32  C   UNL     1      -0.276   1.673   0.104  0.00  0.00    +0.048 C 
ATOM     33  C   UNL     1      -0.210   0.145   0.101  0.00  0.00    +0.229 C 
ENDBRANCH  31  33
ENDBRANCH  29  31
ENDBRANCH  28  29
ENDBRANCH   1  28
TORSDOF 6
