REMARK  Name = ZINC39960844
REMARK  11 active torsions:
REMARK  status: ('A' for Active; 'I' for Inactive)
REMARK    1  A    between atoms: C_1  and  C_2
REMARK    2  A    between atoms: C_2  and  C_3
REMARK    3  A    between atoms: C_3  and  C_4
REMARK    4  A    between atoms: C_7  and  O_10
REMARK    5  A    between atoms: O_10  and  C_11
REMARK    6  A    between atoms: C_15  and  C_17
REMARK    7  A    between atoms: C_20  and  O_24
REMARK    8  A    between atoms: C_22  and  O_23
REMARK    9  A    between atoms: O_24  and  C_25
REMARK   10  A    between atoms: C_25  and  C_26
REMARK   11  A    between atoms: N_29  and  C_31
REMARK                            x       y       z     vdW  Elec       q    Type
REMARK                         _______ _______ _______ _____ _____    ______ ____
ROOT
ATOM      1  C   UNL     1      -0.051  -8.821   1.111  0.00  0.00    +0.025 A 
ATOM      2  C   UNL     1       0.982  -9.024   2.005  0.00  0.00    +0.013 A 
ATOM      3  C   UNL     1       2.164  -9.598   1.579  0.00  0.00    +0.046 A 
ATOM      4  C   UNL     1       2.317  -9.972   0.251  0.00  0.00    +0.124 A 
ATOM      5  C   UNL     1       1.282  -9.769  -0.648  0.00  0.00    +0.091 A 
ATOM      6  C   UNL     1       0.094  -9.198  -0.217  0.00  0.00    +0.126 A 
ENDROOT
BRANCH   1  11
ATOM      7  C   UNL     1      -1.386  -6.721   1.212  0.00  0.00    +0.153 C 
ATOM      8  C   UNL     1      -1.468  -6.099   2.406  0.00  0.00    +0.176 C 
ATOM      9  N   UNL     1      -1.470  -6.989   3.405  0.00  0.00    -0.182 NA
ATOM     10  N   UNL     1      -1.400  -8.168   3.050  0.00  0.00    -0.294 N 
ATOM     11  C   UNL     1      -1.340  -8.194   1.578  0.00  0.00    +0.199 C 
ATOM     12  H   UNL     1      -1.390  -8.941   3.636  0.00  0.00    +0.184 HD
BRANCH   7  13
ATOM     13  O   UNL     1      -1.357  -6.165  -0.018  0.00  0.00    -0.456 OA
BRANCH  13  17
ATOM     14  C   UNL     1      -4.582  -6.807  -2.509  0.00  0.00    -0.047 A 
ATOM     15  C   UNL     1      -3.468  -6.139  -2.981  0.00  0.00    +0.007 A 
ATOM     16  C   UNL     1      -2.386  -5.923  -2.149  0.00  0.00    +0.046 A 
ATOM     17  C   UNL     1      -2.419  -6.376  -0.838  0.00  0.00    +0.128 A 
ATOM     18  C   UNL     1      -3.539  -7.046  -0.366  0.00  0.00    +0.046 A 
ATOM     19  C   UNL     1      -4.620  -7.256  -1.201  0.00  0.00    +0.007 A 
BRANCH  14  20
ATOM     20  C   UNL     1      -5.761  -7.042  -3.418  0.00  0.00    +0.035 C 
BRANCH  20  22
ATOM     21  C   UNL     1      -7.926  -6.101  -4.235  0.00  0.00    +0.004 C 
ATOM     22  C   UNL     1      -6.730  -5.863  -3.311  0.00  0.00    +0.001 C 
ENDBRANCH  20  22
ENDBRANCH  14  20
ENDBRANCH  13  17
ENDBRANCH   7  13
ENDBRANCH   1  11
BRANCH   6  23
ATOM     23  O   UNL     1      -0.925  -9.003  -1.095  0.00  0.00    -0.506 OA
ATOM     24  H   UNL     1      -0.900  -8.146  -1.541  0.00  0.00    +0.292 HD
ENDBRANCH   6  23
BRANCH   4  25
ATOM     25  O   UNL     1       3.480 -10.536  -0.167  0.00  0.00    -0.487 OA
BRANCH  25  26
ATOM     26  C   UNL     1       4.504 -10.715   0.814  0.00  0.00    +0.267 C 
BRANCH  26  27
ATOM     27  C   UNL     1       5.710 -11.349   0.171  0.00  0.00    +0.027 A 
ATOM     28  C   UNL     1       5.956 -12.722   0.056  0.00  0.00    +0.141 A 
ATOM     29  N   UNL     1       7.099 -12.884  -0.559  0.00  0.00    -0.174 NA
ATOM     30  N   UNL     1       7.620 -11.618  -0.856  0.00  0.00    -0.239 N 
ATOM     31  C   UNL     1       6.745 -10.692  -0.402  0.00  0.00    +0.121 A 
BRANCH  30  32
ATOM     32  C   UNL     1       8.831 -11.357  -1.512  0.00  0.00    +0.065 A 
ATOM     33  C   UNL     1       9.232 -10.046  -1.738  0.00  0.00    +0.028 A 
ATOM     34  C   UNL     1      10.426  -9.792  -2.384  0.00  0.00    +0.002 A 
ATOM     35  C   UNL     1      11.222 -10.841  -2.806  0.00  0.00    +0.000 A 
ATOM     36  C   UNL     1      10.825 -12.147  -2.583  0.00  0.00    +0.002 A 
ATOM     37  C   UNL     1       9.635 -12.407  -1.932  0.00  0.00    +0.028 A 
ENDBRANCH  30  32
ENDBRANCH  26  27
ENDBRANCH  25  26
ENDBRANCH   4  25
TORSDOF 10
