REMARK  Name = ZINC64600321
REMARK  9 active torsions:
REMARK  status: ('A' for Active; 'I' for Inactive)
REMARK    1  A    between atoms: C_1  and  C_2
REMARK    2  A    between atoms: C_4  and  O_33
REMARK    3  A    between atoms: C_11  and  C_16
REMARK    4  A    between atoms: C_13  and  C_15
REMARK    5  A    between atoms: C_16  and  C_17
REMARK    6  A    between atoms: N_19  and  C_20
REMARK    7  A    between atoms: C_20  and  C_22
REMARK    8  A    between atoms: C_20  and  C_23
REMARK    9  A    between atoms: C_23  and  C_24
REMARK                            x       y       z     vdW  Elec       q    Type
REMARK                         _______ _______ _______ _____ _____    ______ ____
ROOT
ATOM      1  C   UNL     1       2.724  -4.783   2.612  0.00  0.00    +0.214 C 
ATOM      2  O   UNL     1       2.033  -5.314   3.455  0.00  0.00    -0.276 OA
ATOM      3  N   UNL     1       4.038  -4.588   2.843  0.00  0.00    -0.312 N 
ATOM      4  H   UNL     1       4.591  -4.164   2.168  0.00  0.00    +0.149 HD
ENDROOT
BRANCH   3   5
ATOM      5  C   UNL     1       4.630  -5.018   4.112  0.00  0.00    +0.074 C 
ATOM      6  C   UNL     1       5.015  -6.496   4.020  0.00  0.00    +0.028 C 
BRANCH   5   7
ATOM      7  C   UNL     1       5.880  -4.183   4.400  0.00  0.00    +0.055 C 
BRANCH   7   8
ATOM      8  C   UNL     1       5.484  -2.744   4.612  0.00  0.00    -0.040 C 
ATOM      9  C   UNL     1       5.248  -2.131   5.794  0.00  0.00    -0.001 A 
ATOM     10  C   UNL     1       5.287  -2.603   7.184  0.00  0.00    +0.010 A 
ATOM     11  C   UNL     1       4.994  -1.735   8.179  0.00  0.00    +0.001 A 
ATOM     12  C   UNL     1       4.655  -0.401   7.918  0.00  0.00    +0.002 A 
ATOM     13  C   UNL     1       4.599   0.106   6.668  0.00  0.00    +0.026 A 
ATOM     14  C   UNL     1       4.888  -0.717   5.545  0.00  0.00    +0.043 A 
ATOM     15  N   UNL     1       4.901  -0.466   4.258  0.00  0.00    -0.380 N 
ATOM     16  C   UNL     1       5.277  -1.692   3.546  0.00  0.00    +0.144 C 
ATOM     17  H   UNL     1       4.699   0.389   3.846  0.00  0.00    +0.160 HD
ENDBRANCH   7   8
ENDBRANCH   5   7
ENDBRANCH   3   5
BRANCH   1  18
ATOM     18  C   UNL     1       2.115  -4.341   1.307  0.00  0.00    +0.111 C 
BRANCH  18  29
ATOM     19  C   UNL     1      -0.700   1.426  -0.525  0.00  0.00    +0.044 C 
ATOM     20  C   UNL     1      -0.510  -0.063  -0.392  0.00  0.00    -0.044 A 
ATOM     21  C   UNL     1      -0.470  -0.859  -1.522  0.00  0.00    +0.049 A 
ATOM     22  C   UNL     1      -0.298  -2.228  -1.398  0.00  0.00    +0.124 A 
ATOM     23  C   UNL     1      -0.165  -2.807  -0.140  0.00  0.00    +0.040 A 
ATOM     24  C   UNL     1      -0.199  -2.008   0.988  0.00  0.00    +0.139 A 
ATOM     25  C   UNL     1      -0.371  -0.633   0.857  0.00  0.00    +0.050 A 
ATOM     26  O   UNL     1      -0.053  -2.525   2.238  0.00  0.00    -0.425 OA
ATOM     27  C   UNL     1      -0.091  -3.866   2.366  0.00  0.00    +0.317 C 
ATOM     28  O   UNL     1      -0.666  -4.397   3.287  0.00  0.00    -0.250 OA
ATOM     29  C   UNL     1       0.622  -4.676   1.302  0.00  0.00    +0.114 C 
ATOM     30  C   UNL     1       0.009  -4.302  -0.051  0.00  0.00    +0.037 C 
ATOM     31  C   UNL     1       0.933  -4.774  -1.176  0.00  0.00    +0.013 C 
BRANCH  22  32
ATOM     32  O   UNL     1      -0.261  -3.009  -2.509  0.00  0.00    -0.506 OA
ATOM     33  H   UNL     1       0.610  -3.059  -2.926  0.00  0.00    +0.292 HD
ENDBRANCH  22  32
ENDBRANCH  18  29
ENDBRANCH   1  18
TORSDOF 6
