REMARK  Name = ZINC04230342
REMARK  12 active torsions:
REMARK  status: ('A' for Active; 'I' for Inactive)
REMARK    1  A    between atoms: C_1  and  C_2
REMARK    2  A    between atoms: C_2  and  O_3
REMARK    3  A    between atoms: O_3  and  C_4
REMARK    4  A    between atoms: C_4  and  C_6
REMARK    5  A    between atoms: C_10  and  N_11
REMARK    6  A    between atoms: C_12  and  C_14
REMARK    7  A    between atoms: N_16  and  N_17
REMARK    8  A    between atoms: C_18  and  C_19
REMARK    9  A    between atoms: C_22  and  C_25
REMARK   10  A    between atoms: C_25  and  O_27
REMARK   11  A    between atoms: O_27  and  C_28
REMARK   12  A    between atoms: C_30  and  C_34
REMARK                            x       y       z     vdW  Elec       q    Type
REMARK                         _______ _______ _______ _____ _____    ______ ____
ROOT
ATOM      1  N   UNL     1      -7.578   9.406   0.086  0.00  0.00    -0.271 N 
ATOM      2  C   UNL     1      -7.560   8.058   0.078  0.00  0.00    +0.305 C 
ATOM      3  O   UNL     1      -8.603   7.437   0.079  0.00  0.00    -0.265 OA
ATOM      4  H   UNL     1      -6.745   9.902   0.085  0.00  0.00    +0.156 HD
ENDROOT
BRANCH   1   9
ATOM      5  C   UNL     1      -9.008  11.453   0.103  0.00  0.00    +0.091 A 
ATOM      6  C   UNL     1     -10.387  11.909   0.110  0.00  0.00    -0.021 A 
ATOM      7  C   UNL     1     -11.317  10.929   0.108  0.00  0.00    -0.004 A 
ATOM      8  S   UNL     1     -10.388   9.422   0.089  0.00  0.00    -0.077 S 
ATOM      9  C   UNL     1      -8.785  10.081   0.094  0.00  0.00    +0.087 A 
ATOM     10  C   UNL     1     -12.805  11.097   0.116  0.00  0.00    +0.046 C 
ATOM     11  C   UNL     1     -13.127  12.547   0.504  0.00  0.00    -0.009 C 
ATOM     12  C   UNL     1     -12.252  13.487  -0.331  0.00  0.00    +0.008 C 
ATOM     13  C   UNL     1     -10.794  13.377   0.119  0.00  0.00    +0.037 C 
ATOM     14  C   UNL     1     -14.603  12.837   0.228  0.00  0.00    +0.008 C 
BRANCH   5  15
ATOM     15  C   UNL     1      -7.893  12.403   0.103  0.00  0.00    +0.342 C 
ATOM     16  O   UNL     1      -7.434  12.803  -0.950  0.00  0.00    -0.245 OA
BRANCH  15  17
ATOM     17  O   UNL     1      -7.375  12.835   1.272  0.00  0.00    -0.461 OA
BRANCH  17  19
ATOM     18  C   UNL     1      -5.822  14.148   2.610  0.00  0.00    +0.048 C 
ATOM     19  C   UNL     1      -6.272  13.776   1.196  0.00  0.00    +0.229 C 
ENDBRANCH  17  19
ENDBRANCH  15  17
ENDBRANCH   5  15
ENDBRANCH   1   9
BRANCH   2  20
ATOM     20  C   UNL     1      -6.259   7.330   0.069  0.00  0.00    +0.318 C 
ATOM     21  O   UNL     1      -5.215   7.952   0.069  0.00  0.00    -0.263 OA
ATOM     22  N   UNL     1      -6.240   5.983   0.062  0.00  0.00    -0.199 N 
ATOM     23  H   UNL     1      -7.074   5.487   0.062  0.00  0.00    +0.178 HD
BRANCH  22  24
ATOM     24  N   UNL     1      -5.018   5.299   0.053  0.00  0.00    -0.187 NA
ATOM     25  C   UNL     1      -5.000   4.000   0.046  0.00  0.00    +0.138 C 
BRANCH  25  26
ATOM     26  C   UNL     1      -3.715   3.281   0.037  0.00  0.00    -0.005 A 
ATOM     27  C   UNL     1      -3.696   1.882   0.029  0.00  0.00    +0.010 A 
ATOM     28  C   UNL     1      -2.503   1.215   0.021  0.00  0.00    +0.015 A 
ATOM     29  C   UNL     1      -1.302   1.931   0.019  0.00  0.00    +0.059 A 
ATOM     30  C   UNL     1      -1.321   3.329   0.032  0.00  0.00    +0.015 A 
ATOM     31  C   UNL     1      -2.513   3.996   0.036  0.00  0.00    +0.010 A 
BRANCH  29  32
ATOM     32  C   UNL     1      -0.014   1.211   0.009  0.00  0.00    +0.339 C 
ATOM     33  O   UNL     1       0.002  -0.004   0.002  0.00  0.00    -0.245 OA
BRANCH  32  34
ATOM     34  O   UNL     1       1.143   1.900   0.001  0.00  0.00    -0.464 OA
ATOM     35  C   UNL     1       2.372   1.126  -0.015  0.00  0.00    +0.280 C 
ENDBRANCH  32  34
ENDBRANCH  29  32
ENDBRANCH  25  26
ENDBRANCH  22  24
ENDBRANCH   2  20
TORSDOF 9
