REMARK  Name = ZINC62703835
REMARK  11 active torsions:
REMARK  status: ('A' for Active; 'I' for Inactive)
REMARK    1  A    between atoms: C_1  and  C_2
REMARK    2  A    between atoms: C_2  and  C_3
REMARK    3  A    between atoms: C_3  and  C_4
REMARK    4  A    between atoms: C_4  and  N_5
REMARK    5  A    between atoms: C_6  and  C_8
REMARK    6  A    between atoms: C_8  and  C_10
REMARK    7  A    between atoms: C_8  and  O_11
REMARK    8  A    between atoms: O_11  and  C_12
REMARK    9  A    between atoms: C_15  and  C_19
REMARK   10  A    between atoms: C_19  and  C_20
REMARK   11  A    between atoms: C_20  and  N_21
REMARK                            x       y       z     vdW  Elec       q    Type
REMARK                         _______ _______ _______ _____ _____    ______ ____
ROOT
ATOM      1  C   UNL     1       3.602  -6.319   4.286  0.00  0.00    +0.136 A 
ATOM      2  C   UNL     1       4.533  -5.515   4.927  0.00  0.00    +0.047 A 
ATOM      3  C   UNL     1       5.688  -6.073   5.441  0.00  0.00    +0.007 A 
ATOM      4  C   UNL     1       5.916  -7.431   5.316  0.00  0.00    -0.048 A 
ATOM      5  C   UNL     1       4.990  -8.234   4.678  0.00  0.00    +0.022 A 
ATOM      6  C   UNL     1       3.830  -7.682   4.167  0.00  0.00    +0.060 A 
ATOM      7 BR   UNL     1       2.560  -8.783   3.300  0.00  0.00    -0.047 Br
ENDROOT
BRANCH   1   8
ATOM      8  O   UNL     1       2.465  -5.772   3.780  0.00  0.00    -0.479 OA
BRANCH   8   9
ATOM      9  C   UNL     1       2.347  -4.349   3.837  0.00  0.00    +0.255 C 
ATOM     10  C   UNL     1       1.798  -3.938   5.205  0.00  0.00    +0.062 C 
BRANCH   9  12
ATOM     11  N   UNL     1       1.223  -2.559   2.554  0.00  0.00    -0.312 N 
ATOM     12  C   UNL     1       1.409  -3.878   2.756  0.00  0.00    +0.254 C 
ATOM     13  O   UNL     1       0.822  -4.686   2.069  0.00  0.00    -0.272 OA
ATOM     14  H   UNL     1       1.692  -1.912   3.103  0.00  0.00    +0.149 HD
BRANCH  11  15
ATOM     15  C   UNL     1       0.311  -2.101   1.502  0.00  0.00    +0.104 C 
BRANCH  15  16
ATOM     16  C   UNL     1       0.281  -0.571   1.484  0.00  0.00    +0.018 C 
BRANCH  16  18
ATOM     17  C   UNL     1      -0.701   1.437   0.367  0.00  0.00    +0.004 C 
ATOM     18  C   UNL     1      -0.671  -0.093   0.386  0.00  0.00    -0.002 C 
ENDBRANCH  16  18
ENDBRANCH  15  16
ENDBRANCH  11  15
ENDBRANCH   9  12
ENDBRANCH   8   9
ENDBRANCH   1   8
BRANCH   4  19
ATOM     19  C   UNL     1       7.177  -8.036   5.877  0.00  0.00    +0.015 C 
BRANCH  19  20
ATOM     20  C   UNL     1       6.935  -8.469   7.325  0.00  0.00    -0.082 C 
BRANCH  20  21
ATOM     21  N   UNL     1       8.164  -9.059   7.872  0.00  0.00    +0.378 N 
ATOM     22  H   UNL     1       8.426  -9.862   7.320  0.00  0.00    -0.090 HD
ATOM     23  H   UNL     1       8.906  -8.376   7.844  0.00  0.00    -0.090 HD
ATOM     24  H   UNL     1       8.004  -9.344   8.826  0.00  0.00    -0.090 HD
ENDBRANCH  20  21
ENDBRANCH  19  20
ENDBRANCH   4  19
TORSDOF 9
