REMARK  Name = ZINC00831059
REMARK  6 active torsions:
REMARK  status: ('A' for Active; 'I' for Inactive)
REMARK    1  A    between atoms: C_3  and  C_8
REMARK    2  A    between atoms: C_8  and  S_9
REMARK    3  A    between atoms: S_9  and  C_10
REMARK    4  A    between atoms: C_10  and  C_11
REMARK    5  A    between atoms: N_13  and  N_14
REMARK    6  A    between atoms: N_14  and  C_15
REMARK                            x       y       z     vdW  Elec       q    Type
REMARK                         _______ _______ _______ _____ _____    ______ ____
ROOT
ATOM      1  C   UNL     1       6.224   3.919   2.856  0.00  0.00    +0.239 C 
ATOM      2  O   UNL     1       5.736   3.366   3.818  0.00  0.00    -0.273 OA
ATOM      3  N   UNL     1       7.367   4.621   2.990  0.00  0.00    -0.236 N 
ATOM      4  H   UNL     1       7.758   5.063   2.221  0.00  0.00    +0.173 HD
ENDROOT
BRANCH   3   5
ATOM      5  N   UNL     1       7.991   4.711   4.242  0.00  0.00    -0.259 N 
ATOM      6  H   UNL     1       7.557   4.343   5.027  0.00  0.00    +0.170 HD
BRANCH   5   7
ATOM      7  C   UNL     1       9.182   5.303   4.353  0.00  0.00    +0.116 C 
ATOM      8  C   UNL     1      10.005   5.787   3.306  0.00  0.00    +0.025 A 
ATOM      9  C   UNL     1       9.870   5.811   1.913  0.00  0.00    +0.027 A 
ATOM     10  C   UNL     1      10.870   6.365   1.137  0.00  0.00    +0.019 A 
ATOM     11  C   UNL     1      12.004   6.896   1.733  0.00  0.00    +0.017 A 
ATOM     12  C   UNL     1      12.156   6.881   3.110  0.00  0.00    +0.025 A 
ATOM     13  C   UNL     1      11.165   6.330   3.917  0.00  0.00    +0.043 A 
ATOM     14  N   UNL     1      11.072   6.193   5.272  0.00  0.00    -0.280 N 
ATOM     15  C   UNL     1       9.940   5.607   5.616  0.00  0.00    +0.264 C 
ATOM     16  O   UNL     1       9.576   5.356   6.751  0.00  0.00    -0.268 OA
ATOM     17 BR   UNL     1      10.692   6.400  -0.745  0.00  0.00    -0.050 Br
ATOM     18  H   UNL     1      11.748   6.492   5.900  0.00  0.00    +0.155 HD
ENDBRANCH   5   7
ENDBRANCH   3   5
BRANCH   1  19
ATOM     19  C   UNL     1       5.553   3.822   1.510  0.00  0.00    +0.166 C 
BRANCH  19  20
ATOM     20  S   UNL     1       4.049   2.819   1.655  0.00  0.00    -0.147 S 
BRANCH  20  21
ATOM     21  C   UNL     1       3.370   2.800  -0.027  0.00  0.00    +0.104 C 
BRANCH  21  24
ATOM     22  C   UNL     1      -0.281   1.859   0.169  0.00  0.00    +0.001 A 
ATOM     23  C   UNL     1       0.884   2.602   0.188  0.00  0.00    +0.004 A 
ATOM     24  C   UNL     1       2.100   1.989  -0.047  0.00  0.00    -0.037 A 
ATOM     25  C   UNL     1       2.152   0.631  -0.302  0.00  0.00    +0.019 A 
ATOM     26  C   UNL     1       0.987  -0.114  -0.320  0.00  0.00    +0.018 A 
ATOM     27  C   UNL     1      -0.230   0.501  -0.085  0.00  0.00    +0.015 A 
ATOM     28 BR   UNL     1       1.056  -1.971  -0.669  0.00  0.00    -0.050 Br
ENDBRANCH  21  24
ENDBRANCH  20  21
ENDBRANCH  19  20
ENDBRANCH   1  19
TORSDOF 6
