REMARK  Name = ZINC59224434
REMARK  6 active torsions:
REMARK  status: ('A' for Active; 'I' for Inactive)
REMARK    1  A    between atoms: C_1  and  C_2
REMARK    2  A    between atoms: C_7  and  N_8
REMARK    3  A    between atoms: C_14  and  C_15
REMARK    4  A    between atoms: C_18  and  S_24
REMARK    5  A    between atoms: C_19  and  N_21
REMARK    6  A    between atoms: S_24  and  C_25
REMARK                            x       y       z     vdW  Elec       q    Type
REMARK                         _______ _______ _______ _____ _____    ______ ____
ROOT
ATOM      1  N   UNL     1      -0.459  -0.141   2.363  0.00  0.00    -0.225 NA
ATOM      2  C   UNL     1      -0.420  -0.794   3.510  0.00  0.00    +0.166 C 
ATOM      3  N   UNL     1      -0.357  -2.152   3.716  0.00  0.00    -0.260 N 
ATOM      4  C   UNL     1      -0.327  -2.592   4.965  0.00  0.00    +0.256 C 
ATOM      5  O   UNL     1      -0.271  -3.779   5.223  0.00  0.00    -0.269 OA
ATOM      6  C   UNL     1      -0.365  -1.565   6.031  0.00  0.00    +0.078 C 
ATOM      7  C   UNL     1      -0.346  -1.747   7.420  0.00  0.00    +0.028 C 
ATOM      8  S   UNL     1      -0.429  -0.126   5.162  0.00  0.00    -0.049 S 
ATOM      9  H   UNL     1      -0.335  -2.770   2.968  0.00  0.00    +0.157 HD
ENDROOT
BRANCH   1  16
ATOM     10  C   UNL     1       1.378   0.597   0.319  0.00  0.00    +0.046 C 
ATOM     11  C   UNL     1       0.363  -0.505   0.150  0.00  0.00    -0.025 A 
ATOM     12  C   UNL     1       0.299  -1.210  -1.030  0.00  0.00    +0.007 A 
ATOM     13  C   UNL     1      -0.633  -2.225  -1.187  0.00  0.00    +0.020 A 
ATOM     14  C   UNL     1      -1.511  -2.541  -0.159  0.00  0.00    +0.043 A 
ATOM     15  C   UNL     1      -1.464  -1.848   1.030  0.00  0.00    +0.048 A 
ATOM     16  C   UNL     1      -0.517  -0.821   1.202  0.00  0.00    +0.071 A 
ATOM     17 CL   UNL     1      -2.673  -3.813  -0.373  0.00  0.00    -0.083 Cl
ENDBRANCH   1  16
BRANCH   7  18
ATOM     18  C   UNL     1      -0.541  -0.651   8.273  0.00  0.00    -0.022 A 
ATOM     19  C   UNL     1      -1.197   0.511   7.799  0.00  0.00    +0.009 A 
ATOM     20  C   UNL     1      -1.383   1.568   8.629  0.00  0.00    +0.018 A 
ATOM     21  C   UNL     1      -0.926   1.512   9.957  0.00  0.00    +0.046 A 
ATOM     22  C   UNL     1      -0.274   0.360  10.433  0.00  0.00    +0.140 A 
ATOM     23  C   UNL     1      -0.087  -0.705   9.613  0.00  0.00    +0.041 A 
BRANCH  22  24
ATOM     24  N   UNL     1       0.205   0.307  11.833  0.00  0.00    +0.058 N 
ATOM     25  O   UNL     1       0.816  -0.770  12.280  0.00  0.00    -0.126 OA
ATOM     26  O   UNL     1       0.019   1.338  12.632  0.00  0.00    -0.126 OA
ENDBRANCH  22  24
BRANCH  21  27
ATOM     27  S   UNL     1      -1.171   2.888  11.030  0.00  0.00    -0.048 S 
BRANCH  27  28
ATOM     28  C   UNL     1       0.408   3.669  11.088  0.00  0.00    +0.189 A 
ATOM     29  N   UNL     1       1.469   3.330  10.381  0.00  0.00    -0.209 NA
ATOM     30  H   UNL     1       0.173   5.199  12.485  0.00  0.00    +0.191 HD
ATOM     31  C   UNL     1       2.483   4.136  10.680  0.00  0.00    +0.245 A 
ATOM     32  N   UNL     1       2.094   5.003  11.580  0.00  0.00    -0.160 NA
ATOM     33  N   UNL     1       0.746   4.727  11.861  0.00  0.00    -0.254 N 
ENDBRANCH  27  28
ENDBRANCH  21  27
ENDBRANCH   7  18
TORSDOF 5
