REMARK  Name = ZINC06442594
REMARK  7 active torsions:
REMARK  status: ('A' for Active; 'I' for Inactive)
REMARK    1  A    between atoms: C_1  and  C_2
REMARK    2  A    between atoms: C_7  and  C_15
REMARK    3  A    between atoms: C_13  and  C_14
REMARK    4  A    between atoms: C_15  and  C_17
REMARK    5  A    between atoms: C_15  and  N_60
REMARK    6  A    between atoms: N_21  and  C_22
REMARK    7  A    between atoms: C_22  and  C_23
REMARK                            x       y       z     vdW  Elec       q    Type
REMARK                         _______ _______ _______ _____ _____    ______ ____
ROOT
ATOM      1  C   UNL     1       1.667   6.426  -1.702  0.00  0.00    +0.039 C 
ENDROOT
BRANCH   1   8
ATOM      2  C   UNL     1       6.005  12.706   0.614  0.00  0.00    +0.044 C 
ATOM      3  C   UNL     1       5.120  11.505   0.400  0.00  0.00    -0.046 A 
ATOM      4  C   UNL     1       4.434  10.957   1.476  0.00  0.00    +0.004 A 
ATOM      5  C   UNL     1       3.627   9.869   1.303  0.00  0.00    +0.010 A 
ATOM      6  C   UNL     1       3.490   9.301   0.032  0.00  0.00    -0.001 A 
ATOM      7  C   UNL     1       2.633   8.134  -0.188  0.00  0.00    +0.017 A 
ATOM      8  C   UNL     1       2.540   7.627  -1.442  0.00  0.00    +0.011 A 
ATOM      9  C   UNL     1       3.261   8.215  -2.502  0.00  0.00    +0.251 A 
ATOM     10  O   UNL     1       3.167   7.740  -3.621  0.00  0.00    -0.268 OA
ATOM     11  N   UNL     1       4.046   9.290  -2.311  0.00  0.00    -0.322 N 
ATOM     12  H   UNL     1       4.525   9.672  -3.063  0.00  0.00    +0.169 HD
ATOM     13  C   UNL     1       4.184   9.854  -1.061  0.00  0.00    +0.052 A 
ATOM     14  C   UNL     1       5.000  10.963  -0.861  0.00  0.00    -0.024 A 
ATOM     15  C   UNL     1       5.750  11.568  -2.020  0.00  0.00    +0.046 C 
ENDBRANCH   1   8
BRANCH   1  21
ATOM     16  C   UNL     1      -0.083   7.934  -2.428  0.00  0.00    -0.077 C 
ATOM     17  C   UNL     1      -0.968   8.317  -3.616  0.00  0.00    -0.019 C 
ATOM     18  C   UNL     1      -1.896   7.147  -3.954  0.00  0.00    -0.004 C 
ATOM     19  C   UNL     1      -1.052   5.906  -4.256  0.00  0.00    -0.019 C 
ATOM     20  C   UNL     1      -0.165   5.593  -3.049  0.00  0.00    -0.077 C 
ATOM     21  N   UNL     1       0.721   6.748  -2.792  0.00  0.00    +0.389 N 
ATOM     22  H   UNL     1       1.254   6.956  -3.644  0.00  0.00    -0.080 HD
ENDBRANCH   1  21
BRANCH   1  23
ATOM     23  C   UNL     1       2.525   5.264  -2.130  0.00  0.00    +0.143 A 
ATOM     24  N   UNL     1       3.095   5.100  -3.299  0.00  0.00    -0.115 NA
ATOM     25  N   UNL     1       3.742   3.986  -3.273  0.00  0.00    -0.023 NA
ATOM     26  N   UNL     1       3.606   3.439  -2.116  0.00  0.00    -0.044 NA
ATOM     27  N   UNL     1       2.858   4.194  -1.384  0.00  0.00    -0.226 N 
BRANCH  27  28
ATOM     28  C   UNL     1       2.451   3.937  -0.001  0.00  0.00    +0.182 C 
BRANCH  28  29
ATOM     29  C   UNL     1       1.156   3.165   0.008  0.00  0.00    -0.026 A 
ATOM     30  C   UNL     1       1.175   1.783   0.000  0.00  0.00    +0.005 A 
ATOM     31  C   UNL     1      -0.013   1.076   0.008  0.00  0.00    +0.000 A 
ATOM     32  C   UNL     1      -1.219   1.751   0.017  0.00  0.00    +0.000 A 
ATOM     33  C   UNL     1      -1.238   3.133   0.030  0.00  0.00    +0.000 A 
ATOM     34  C   UNL     1      -0.050   3.840   0.023  0.00  0.00    +0.005 A 
ENDBRANCH  28  29
ENDBRANCH  27  28
ENDBRANCH   1  23
TORSDOF 5
