REMARK  Name = ZINC35781308
REMARK  9 active torsions:
REMARK  status: ('A' for Active; 'I' for Inactive)
REMARK    1  A    between atoms: C_1  and  C_2
REMARK    2  A    between atoms: C_2  and  C_3
REMARK    3  A    between atoms: C_2  and  C_28
REMARK    4  A    between atoms: C_2  and  O_30
REMARK    5  A    between atoms: C_3  and  N_4
REMARK    6  A    between atoms: N_4  and  C_5
REMARK    7  A    between atoms: N_4  and  C_11
REMARK    8  A    between atoms: C_5  and  C_6
REMARK    9  A    between atoms: C_11  and  C_12
REMARK                            x       y       z     vdW  Elec       q    Type
REMARK                         _______ _______ _______ _____ _____    ______ ____
ROOT
ATOM      1  C   UNL     1       2.735  -0.287   2.539  0.00  0.00    -0.002 C 
ENDROOT
BRANCH   1   2
ATOM      2  C   UNL     1       4.045   0.394   2.840  0.00  0.00    +0.094 A 
ATOM      3  N   UNL     1       4.754   0.020   3.936  0.00  0.00    -0.312 N 
ATOM      4  H   UNL     1       4.407  -0.680   4.510  0.00  0.00    +0.170 HD
ATOM      5  C   UNL     1       5.929   0.602   4.242  0.00  0.00    +0.260 A 
ATOM      6  O   UNL     1       6.554   0.255   5.229  0.00  0.00    -0.267 OA
ATOM      7  C   UNL     1       6.432   1.636   3.386  0.00  0.00    +0.075 A 
ATOM      8  C   UNL     1       7.676   2.399   3.524  0.00  0.00    -0.023 A 
ATOM      9  C   UNL     1       7.923   3.330   2.580  0.00  0.00    -0.004 A 
ATOM     10  S   UNL     1       6.545   3.238   1.466  0.00  0.00    -0.073 S 
ATOM     11  C   UNL     1       5.632   1.952   2.279  0.00  0.00    +0.116 A 
ATOM     12  N   UNL     1       4.481   1.329   2.038  0.00  0.00    -0.229 NA
ATOM     13  C   UNL     1       9.096   4.257   2.487  0.00  0.00    +0.043 C 
ATOM     14  C   UNL     1      10.391   3.452   2.660  0.00  0.00    +0.005 C 
ATOM     15  C   UNL     1      10.734   3.405   4.145  0.00  0.00    +0.001 C 
ATOM     16  C   UNL     1       9.453   3.386   4.977  0.00  0.00    +0.005 C 
ATOM     17  C   UNL     1       8.639   2.134   4.678  0.00  0.00    +0.037 C 
ENDBRANCH   1   2
BRANCH   1  18
ATOM     18  N   UNL     1       2.161   0.278   1.310  0.00  0.00    +0.391 N 
ATOM     19  H   UNL     1       2.125   1.283   1.387  0.00  0.00    -0.080 HD
BRANCH  18  20
ATOM     20  C   UNL     1       0.802  -0.247   1.118  0.00  0.00    -0.038 C 
BRANCH  20  22
ATOM     21  C   UNL     1      -0.114   1.553   2.588  0.00  0.00    +0.044 C 
ATOM     22  C   UNL     1      -0.206   0.900   1.208  0.00  0.00    +0.067 C 
BRANCH  22  23
ATOM     23  C   UNL     1      -1.598   0.363   0.998  0.00  0.00    -0.003 C 
ATOM     24  C   UNL     1      -2.327   0.805   0.003  0.00  0.00    +0.006 C 
ENDBRANCH  22  23
BRANCH  22  25
ATOM     25  O   UNL     1       0.087   1.871   0.201  0.00  0.00    -0.387 OA
ATOM     26  H   UNL     1      -0.012   1.542  -0.703  0.00  0.00    +0.210 HD
ENDBRANCH  22  25
ENDBRANCH  20  22
ENDBRANCH  18  20
BRANCH  18  27
ATOM     27  C   UNL     1       2.997  -0.097   0.162  0.00  0.00    -0.002 C 
BRANCH  27  28
ATOM     28  C   UNL     1       2.479   0.582  -1.080  0.00  0.00    +0.089 A 
ATOM     29  C   UNL     1       2.903   1.762  -1.566  0.00  0.00    +0.042 A 
ATOM     30  C   UNL     1       2.151   2.017  -2.736  0.00  0.00    +0.041 A 
ATOM     31  C   UNL     1       1.313   0.977  -2.894  0.00  0.00    +0.195 A 
ATOM     32  O   UNL     1       1.520   0.108  -1.891  0.00  0.00    -0.470 OA
ENDBRANCH  27  28
ENDBRANCH  18  27
ENDBRANCH   1  18
TORSDOF 8
