REMARK  Name = ZINC35056480
REMARK  7 active torsions:
REMARK  status: ('A' for Active; 'I' for Inactive)
REMARK    1  A    between atoms: C_1  and  C_2
REMARK    2  A    between atoms: N_4  and  C_5
REMARK    3  A    between atoms: C_7  and  O_30
REMARK    4  A    between atoms: C_15  and  C_17
REMARK    5  A    between atoms: C_15  and  C_18
REMARK    6  A    between atoms: C_20  and  S_22
REMARK    7  A    between atoms: S_22  and  C_23
REMARK                            x       y       z     vdW  Elec       q    Type
REMARK                         _______ _______ _______ _____ _____    ______ ____
ROOT
ATOM      1  C   UNL     1      -1.136  -2.158   0.001  0.00  0.00    +0.143 C 
ATOM      2  C   UNL     1      -2.438  -2.695  -0.593  0.00  0.00    +0.169 C 
ATOM      3  C   UNL     1      -3.628  -2.335   0.294  0.00  0.00    +0.183 C 
ATOM      4  C   UNL     1      -3.375  -2.664   1.758  0.00  0.00    +0.177 C 
ATOM      5  C   UNL     1      -3.559  -4.169   1.974  0.00  0.00    +0.197 C 
ATOM      6  O   UNL     1      -4.912  -4.482   1.653  0.00  0.00    -0.347 OA
ATOM      7  C   UNL     1      -5.373  -4.116   0.361  0.00  0.00    +0.165 C 
ATOM      8  O   UNL     1      -4.802  -2.955  -0.188  0.00  0.00    -0.341 OA
ATOM      9  C   UNL     1      -5.152  -5.304  -0.594  0.00  0.00    +0.074 C 
ATOM     10  C   UNL     1      -6.901  -3.900   0.459  0.00  0.00    +0.074 C 
ATOM     11  O   UNL     1      -2.099  -2.238   2.204  0.00  0.00    -0.356 OA
ATOM     12  C   UNL     1      -0.985  -2.681   1.432  0.00  0.00    +0.203 C 
ENDROOT
BRANCH   1  16
ATOM     13  C   UNL     1      -0.018   1.503   0.010  0.00  0.00    +0.109 C 
ATOM     14  C   UNL     1       0.002  -0.004   0.002  0.00  0.00    +0.210 C 
ATOM     15  O   UNL     1       1.060  -0.596  -0.011  0.00  0.00    -0.276 OA
ATOM     16  N   UNL     1      -1.156  -0.694   0.009  0.00  0.00    -0.307 N 
ATOM     17  H   UNL     1      -2.002  -0.220   0.020  0.00  0.00    +0.149 HD
ENDBRANCH   1  16
BRANCH   2  18
ATOM     18  O   UNL     1      -2.338  -4.108  -0.764  0.00  0.00    -0.387 OA
ATOM     19  H   UNL     1      -1.622  -4.383  -1.353  0.00  0.00    +0.210 HD
ENDBRANCH   2  18
BRANCH  12  20
ATOM     20  S   UNL     1       0.550  -2.034   2.153  0.00  0.00    -0.092 S 
BRANCH  20  21
ATOM     21  C   UNL     1       0.731  -2.941   3.653  0.00  0.00    +0.010 A 
ATOM     22  C   UNL     1      -0.212  -3.898   4.006  0.00  0.00    +0.016 A 
ATOM     23  C   UNL     1      -0.067  -4.607   5.182  0.00  0.00    +0.021 A 
ATOM     24  C   UNL     1       1.016  -4.364   6.009  0.00  0.00    +0.041 A 
ATOM     25  C   UNL     1       1.957  -3.411   5.660  0.00  0.00    +0.021 A 
ATOM     26  C   UNL     1       1.820  -2.703   4.482  0.00  0.00    +0.016 A 
ATOM     27 CL   UNL     1       1.194  -5.257   7.487  0.00  0.00    -0.084 Cl
ENDBRANCH  20  21
ENDBRANCH  12  20
TORSDOF 4
