REMARK  Name = ZINC12594630
REMARK  6 active torsions:
REMARK  status: ('A' for Active; 'I' for Inactive)
REMARK    1  A    between atoms: C_1  and  C_2
REMARK    2  A    between atoms: C_2  and  C_3
REMARK    3  A    between atoms: C_3  and  C_5
REMARK    4  A    between atoms: C_3  and  N_6
REMARK    5  A    between atoms: C_7  and  C_9
REMARK    6  A    between atoms: C_9  and  N_10
REMARK                            x       y       z     vdW  Elec       q    Type
REMARK                         _______ _______ _______ _____ _____    ______ ____
ROOT
ATOM      1  N   UNL     1       1.242  -0.492  -0.110  0.00  0.00    -0.215 N 
ATOM      2  C   UNL     1       2.160   0.500  -0.191  0.00  0.00    +0.251 C 
ATOM      3  O   UNL     1       3.346   0.336  -0.378  0.00  0.00    -0.272 OA
ATOM      4  C   UNL     1       1.396   1.778  -0.002  0.00  0.00    +0.138 C 
ATOM      5  C   UNL     1       1.589   2.761  -1.150  0.00  0.00    +0.040 C 
ATOM      6  C   UNL     1       3.046   2.937  -1.526  0.00  0.00    +0.003 C 
ATOM      7  C   UNL     1       3.865   3.700  -0.503  0.00  0.00    +0.005 C 
ATOM      8  C   UNL     1       4.130   2.842   0.732  0.00  0.00    +0.035 C 
ATOM      9  C   UNL     1       2.934   2.921   1.658  0.00  0.00    -0.042 A 
ATOM     10  C   UNL     1       1.703   2.436   1.323  0.00  0.00    -0.012 A 
ATOM     11  C   UNL     1       0.656   2.538   2.235  0.00  0.00    +0.006 A 
ATOM     12  C   UNL     1       0.855   3.128   3.466  0.00  0.00    +0.000 A 
ATOM     13  C   UNL     1       2.102   3.622   3.800  0.00  0.00    +0.000 A 
ATOM     14  C   UNL     1       3.140   3.519   2.896  0.00  0.00    +0.004 A 
ATOM     15  N   UNL     1      -0.016   1.341   0.009  0.00  0.00    -0.281 N 
ATOM     16  C   UNL     1       0.002  -0.004   0.002  0.00  0.00    +0.310 C 
ATOM     17  O   UNL     1      -0.994  -0.697   0.076  0.00  0.00    -0.252 OA
ATOM     18  H   UNL     1      -0.791   1.921   0.016  0.00  0.00    +0.152 HD
ENDROOT
BRANCH   1  19
ATOM     19  C   UNL     1       1.572  -1.918  -0.141  0.00  0.00    +0.213 C 
BRANCH  19  21
ATOM     20  N   UNL     1       1.836  -3.696  -1.841  0.00  0.00    -0.311 N 
ATOM     21  C   UNL     1       1.559  -2.405  -1.567  0.00  0.00    +0.231 C 
ATOM     22  O   UNL     1       1.300  -1.636  -2.469  0.00  0.00    -0.274 OA
ATOM     23  H   UNL     1       2.043  -4.311  -1.121  0.00  0.00    +0.149 HD
BRANCH  20  24
ATOM     24  C   UNL     1       1.823  -4.169  -3.228  0.00  0.00    +0.070 C 
ATOM     25  C   UNL     1       0.394  -4.544  -3.626  0.00  0.00    +0.028 C 
BRANCH  24  27
ATOM     26  C   UNL     1       4.177  -4.995  -3.078  0.00  0.00    +0.005 C 
ATOM     27  C   UNL     1       2.727  -5.397  -3.355  0.00  0.00    +0.018 C 
ENDBRANCH  24  27
ENDBRANCH  20  24
ENDBRANCH  19  21
ENDBRANCH   1  19
TORSDOF 4
