REMARK  Name = ZINC38161789
REMARK  15 active torsions:
REMARK  status: ('A' for Active; 'I' for Inactive)
REMARK    1  A    between atoms: C_1  and  C_2
REMARK    2  A    between atoms: C_3  and  C_24
REMARK    3  A    between atoms: C_9  and  O_23
REMARK    4  A    between atoms: C_10  and  C_13
REMARK    5  A    between atoms: C_13  and  N_14
REMARK    6  A    between atoms: N_14  and  C_15
REMARK    7  A    between atoms: N_14  and  C_19
REMARK    8  A    between atoms: C_15  and  C_16
REMARK    9  A    between atoms: C_16  and  C_17
REMARK   10  A    between atoms: C_16  and  C_18
REMARK   11  A    between atoms: C_19  and  C_20
REMARK   12  A    between atoms: C_20  and  C_21
REMARK   13  A    between atoms: C_20  and  C_22
REMARK   14  A    between atoms: C_27  and  O_30
REMARK   15  A    between atoms: O_30  and  C_31
REMARK                            x       y       z     vdW  Elec       q    Type
REMARK                         _______ _______ _______ _____ _____    ______ ____
ROOT
ATOM      1  C   UNL     1       0.579   2.480   0.170  0.00  0.00    +0.087 C 
ATOM      2  C   UNL     1       0.334   1.010   0.393  0.00  0.00    +0.114 A 
ATOM      3  C   UNL     1      -0.921   0.601   0.716  0.00  0.00    +0.067 A 
ATOM      4  C   UNL     1      -1.147  -0.838   0.949  0.00  0.00    +0.200 A 
ATOM      5  O   UNL     1      -2.267  -1.314   1.019  0.00  0.00    -0.286 OA
ATOM      6  C   UNL     1       0.066  -1.667   1.091  0.00  0.00    +0.065 A 
ATOM      7  C   UNL     1       0.000  -2.978   1.562  0.00  0.00    +0.019 A 
ATOM      8  C   UNL     1       1.146  -3.711   1.685  0.00  0.00    +0.046 A 
ATOM      9  C   UNL     1       2.377  -3.154   1.343  0.00  0.00    +0.122 A 
ATOM     10  C   UNL     1       2.457  -1.855   0.871  0.00  0.00    +0.020 A 
ATOM     11  C   UNL     1       1.301  -1.096   0.736  0.00  0.00    +0.144 A 
ATOM     12  O   UNL     1       1.357   0.164   0.259  0.00  0.00    -0.459 OA
ENDROOT
BRANCH   3  13
ATOM     13  C   UNL     1      -2.034   1.575   0.831  0.00  0.00    -0.011 A 
ATOM     14  C   UNL     1      -2.007   2.552   1.825  0.00  0.00    +0.012 A 
ATOM     15  C   UNL     1      -3.043   3.456   1.930  0.00  0.00    +0.046 A 
ATOM     16  C   UNL     1      -4.113   3.394   1.048  0.00  0.00    +0.120 A 
ATOM     17  C   UNL     1      -4.143   2.422   0.057  0.00  0.00    +0.046 A 
ATOM     18  C   UNL     1      -3.107   1.519  -0.057  0.00  0.00    +0.012 A 
BRANCH  16  19
ATOM     19  O   UNL     1      -5.133   4.286   1.154  0.00  0.00    -0.495 OA
ATOM     20  C   UNL     1      -6.201   4.164   0.213  0.00  0.00    +0.277 C 
ENDBRANCH  16  19
ENDBRANCH   3  13
BRANCH   9  21
ATOM     21  O   UNL     1       3.508  -3.892   1.474  0.00  0.00    -0.506 OA
ATOM     22  H   UNL     1       3.740  -4.401   0.685  0.00  0.00    +0.292 HD
ENDBRANCH   9  21
BRANCH  10  23
ATOM     23  C   UNL     1       3.794  -1.265   0.505  0.00  0.00    -0.036 C 
BRANCH  23  24
ATOM     24  N   UNL     1       4.322  -1.949  -0.683  0.00  0.00    +0.383 N 
ATOM     25  H   UNL     1       4.307  -2.947  -0.531  0.00  0.00    -0.081 HD
BRANCH  24  26
ATOM     26  C   UNL     1       3.492  -1.618  -1.849  0.00  0.00    -0.075 C 
BRANCH  26  27
ATOM     27  C   UNL     1       2.272  -2.541  -1.884  0.00  0.00    -0.034 C 
ATOM     28  C   UNL     1       1.357  -2.131  -3.040  0.00  0.00    +0.005 C 
ATOM     29  C   UNL     1       2.731  -3.986  -2.085  0.00  0.00    +0.005 C 
ENDBRANCH  26  27
ENDBRANCH  24  26
BRANCH  24  30
ATOM     30  C   UNL     1       5.704  -1.513  -0.926  0.00  0.00    -0.075 C 
BRANCH  30  31
ATOM     31  C   UNL     1       6.604  -2.014   0.206  0.00  0.00    -0.034 C 
ATOM     32  C   UNL     1       6.623  -3.543   0.203  0.00  0.00    +0.005 C 
ATOM     33  C   UNL     1       8.024  -1.485  -0.000  0.00  0.00    +0.005 C 
ENDBRANCH  30  31
ENDBRANCH  24  30
ENDBRANCH  23  24
ENDBRANCH  10  23
TORSDOF 9
