REMARK  Name = ZINC35165502
REMARK  14 active torsions:
REMARK  status: ('A' for Active; 'I' for Inactive)
REMARK    1  A    between atoms: C_1  and  C_2
REMARK    2  A    between atoms: C_2  and  C_3
REMARK    3  A    between atoms: C_2  and  C_4
REMARK    4  A    between atoms: C_7  and  C_10
REMARK    5  A    between atoms: C_12  and  C_32
REMARK    6  A    between atoms: C_17  and  C_30
REMARK    7  A    between atoms: C_17  and  O_31
REMARK    8  A    between atoms: C_18  and  C_20
REMARK    9  A    between atoms: C_20  and  O_22
REMARK   10  A    between atoms: O_22  and  C_23
REMARK   11  A    between atoms: C_23  and  C_24
REMARK   12  A    between atoms: C_32  and  O_34
REMARK   13  A    between atoms: O_34  and  C_35
REMARK   14  A    between atoms: C_35  and  C_36
REMARK                            x       y       z     vdW  Elec       q    Type
REMARK                         _______ _______ _______ _____ _____    ______ ____
ROOT
ATOM      1  C   UNL     1      -5.419  -2.005   0.043  0.00  0.00    +0.056 C 
ATOM      2  C   UNL     1      -6.159  -1.503  -1.201  0.00  0.00    +0.172 C 
ATOM      3  C   UNL     1      -7.528  -2.146  -1.238  0.00  0.00    +0.150 C 
ATOM      4  O   UNL     1      -8.523  -1.475  -1.375  0.00  0.00    -0.296 OA
ATOM      5  C   UNL     1      -7.619  -3.649  -1.100  0.00  0.00    +0.110 C 
ATOM      6  C   UNL     1      -6.826  -4.073   0.141  0.00  0.00    +0.083 C 
ATOM      7  C   UNL     1      -5.398  -3.534   0.040  0.00  0.00    +0.138 C 
ATOM      8  C   UNL     1      -7.497  -3.507   1.394  0.00  0.00    +0.042 C 
ENDROOT
BRANCH   1  12
ATOM      9  C   UNL     1      -1.412  -0.526   0.013  0.00  0.00    -0.045 A 
ATOM     10  C   UNL     1      -2.259  -0.204   1.056  0.00  0.00    +0.004 A 
ATOM     11  C   UNL     1      -3.556  -0.683   1.066  0.00  0.00    +0.004 A 
ATOM     12  C   UNL     1      -4.006  -1.482   0.032  0.00  0.00    -0.042 A 
ATOM     13  C   UNL     1      -3.159  -1.803  -1.012  0.00  0.00    +0.004 A 
ATOM     14  C   UNL     1      -1.863  -1.321  -1.024  0.00  0.00    +0.004 A 
BRANCH   9  16
ATOM     15  C   UNL     1      -0.019   1.526   0.010  0.00  0.00    +0.012 C 
ATOM     16  C   UNL     1       0.002  -0.004   0.002  0.00  0.00    +0.013 C 
ATOM     17  C   UNL     1       0.742  -0.511   1.242  0.00  0.00    +0.012 C 
ENDBRANCH   9  16
ENDBRANCH   1  12
BRANCH   7  18
ATOM     18  C   UNL     1      -4.592  -4.026   1.215  0.00  0.00    +0.314 C 
ATOM     19  O   UNL     1      -4.088  -3.235   1.976  0.00  0.00    -0.250 OA
BRANCH  18  20
ATOM     20  O   UNL     1      -4.435  -5.344   1.416  0.00  0.00    -0.460 OA
BRANCH  20  21
ATOM     21  C   UNL     1      -3.660  -5.739   2.550  0.00  0.00    +0.267 C 
BRANCH  21  22
ATOM     22  C   UNL     1      -3.594  -7.244   2.613  0.00  0.00    -0.010 A 
ATOM     23  C   UNL     1      -4.557  -7.949   3.310  0.00  0.00    +0.007 A 
ATOM     24  C   UNL     1      -4.496  -9.329   3.368  0.00  0.00    +0.000 A 
ATOM     25  C   UNL     1      -3.472 -10.003   2.729  0.00  0.00    +0.000 A 
ATOM     26  C   UNL     1      -2.510  -9.298   2.031  0.00  0.00    +0.000 A 
ATOM     27  C   UNL     1      -2.573  -7.918   1.969  0.00  0.00    +0.007 A 
ENDBRANCH  21  22
ENDBRANCH  20  21
ENDBRANCH  18  20
ENDBRANCH   7  18
BRANCH   6  28
ATOM     28  O   UNL     1      -6.792  -5.499   0.221  0.00  0.00    -0.388 OA
ATOM     29  H   UNL     1      -7.665  -5.910   0.286  0.00  0.00    +0.210 HD
ENDBRANCH   6  28
BRANCH   2  30
ATOM     30  C   UNL     1      -6.301  -0.004  -1.136  0.00  0.00    +0.318 C 
ATOM     31  O   UNL     1      -5.856   0.604  -0.192  0.00  0.00    -0.250 OA
BRANCH  30  32
ATOM     32  O   UNL     1      -6.921   0.655  -2.127  0.00  0.00    -0.459 OA
BRANCH  32  33
ATOM     33  C   UNL     1      -7.019   2.075  -2.000  0.00  0.00    +0.267 C 
BRANCH  33  34
ATOM     34  C   UNL     1      -7.741   2.638  -3.197  0.00  0.00    -0.010 A 
ATOM     35  C   UNL     1      -7.028   3.014  -4.320  0.00  0.00    +0.007 A 
ATOM     36  C   UNL     1      -7.689   3.531  -5.418  0.00  0.00    +0.000 A 
ATOM     37  C   UNL     1      -9.065   3.671  -5.394  0.00  0.00    +0.000 A 
ATOM     38  C   UNL     1      -9.778   3.293  -4.271  0.00  0.00    +0.000 A 
ATOM     39  C   UNL     1      -9.116   2.773  -3.175  0.00  0.00    +0.007 A 
ENDBRANCH  33  34
ENDBRANCH  32  33
ENDBRANCH  30  32
ENDBRANCH   2  30
TORSDOF 11
