REMARK  Name = ZINC39488021
REMARK  9 active torsions:
REMARK  status: ('A' for Active; 'I' for Inactive)
REMARK    1  A    between atoms: C_1  and  C_2
REMARK    2  A    between atoms: C_2  and  C_3
REMARK    3  A    between atoms: C_2  and  S_4
REMARK    4  A    between atoms: S_4  and  N_7
REMARK    5  A    between atoms: C_9  and  C_27
REMARK    6  A    between atoms: C_9  and  C_28
REMARK    7  A    between atoms: N_10  and  C_13
REMARK    8  A    between atoms: C_13  and  C_14
REMARK    9  A    between atoms: C_14  and  C_21
REMARK                            x       y       z     vdW  Elec       q    Type
REMARK                         _______ _______ _______ _____ _____    ______ ____
ROOT
ATOM      1  N   UNL     1      -2.078  -2.340   0.667  0.00  0.00    -0.157 N 
ATOM      2  C   UNL     1      -2.353  -3.064  -0.583  0.00  0.00    +0.166 C 
ATOM      3  C   UNL     1      -2.202  -4.547  -0.192  0.00  0.00    +0.079 C 
ATOM      4  N   UNL     1      -1.857  -4.501   1.237  0.00  0.00    -0.273 N 
ATOM      5  C   UNL     1      -1.804  -3.224   1.636  0.00  0.00    +0.325 C 
ATOM      6  O   UNL     1      -1.534  -2.896   2.776  0.00  0.00    -0.251 OA
ATOM      7  C   UNL     1      -3.519  -5.295  -0.403  0.00  0.00    +0.039 C 
ENDROOT
BRANCH   3   8
ATOM      8  C   UNL     1      -1.093  -5.192  -0.983  0.00  0.00    -0.023 A 
ATOM      9  C   UNL     1       0.052  -5.625  -0.341  0.00  0.00    +0.006 A 
ATOM     10  C   UNL     1       1.069  -6.217  -1.067  0.00  0.00    +0.000 A 
ATOM     11  C   UNL     1       0.941  -6.376  -2.434  0.00  0.00    +0.000 A 
ATOM     12  C   UNL     1      -0.205  -5.943  -3.075  0.00  0.00    +0.000 A 
ATOM     13  C   UNL     1      -1.223  -5.356  -2.349  0.00  0.00    +0.006 A 
ENDBRANCH   3   8
BRANCH   1  14
ATOM     14  S   UNL     1      -2.097  -0.694   0.848  0.00  0.00    +0.051 S 
ATOM     15  O   UNL     1      -2.270  -0.484   2.242  0.00  0.00    -0.155 OA
ATOM     16  O   UNL     1      -3.072  -0.239  -0.080  0.00  0.00    -0.155 OA
BRANCH  14  18
ATOM     17  C   UNL     1      -0.397   1.379   0.308  0.00  0.00    +0.033 C 
ATOM     18  C   UNL     1      -0.445  -0.150   0.334  0.00  0.00    +0.145 C 
ATOM     19  C   UNL     1       0.596  -0.676   1.324  0.00  0.00    +0.033 C 
ENDBRANCH  14  18
ENDBRANCH   1  14
BRANCH   4  20
ATOM     20  C   UNL     1      -1.607  -5.668   2.087  0.00  0.00    +0.117 C 
BRANCH  20  21
ATOM     21  C   UNL     1      -2.804  -5.889   3.015  0.00  0.00    -0.008 C 
ATOM     22  C   UNL     1      -4.013  -6.339   2.191  0.00  0.00    +0.025 C 
ATOM     23  C   UNL     1      -3.695  -7.675   1.516  0.00  0.00    +0.103 C 
ATOM     24  N   UNL     1      -3.376  -8.679   2.539  0.00  0.00    -0.219 NA
ATOM     25  C   UNL     1      -2.189  -8.290   3.312  0.00  0.00    +0.103 C 
ATOM     26  C   UNL     1      -2.462  -6.973   4.041  0.00  0.00    +0.025 C 
ATOM     27 CL   UNL     1      -3.172 -10.225   1.838  0.00  0.00    -0.021 Cl
BRANCH  21  28
ATOM     28  C   UNL     1      -3.135  -4.584   3.741  0.00  0.00    -0.003 C 
ATOM     29  C   UNL     1      -2.020  -4.255   4.736  0.00  0.00    +0.004 C 
ATOM     30  C   UNL     1      -2.352  -2.950   5.462  0.00  0.00    +0.000 C 
ATOM     31  C   UNL     1      -3.675  -3.107   6.214  0.00  0.00    +0.000 C 
ATOM     32  C   UNL     1      -4.790  -3.436   5.220  0.00  0.00    +0.000 C 
ATOM     33  C   UNL     1      -4.459  -4.741   4.493  0.00  0.00    +0.004 C 
ENDBRANCH  21  28
ENDBRANCH  20  21
ENDBRANCH   4  20
TORSDOF 6
