REMARK  Name = ZINC32905897
REMARK  3 active torsions:
REMARK  status: ('A' for Active; 'I' for Inactive)
REMARK    1  A    between atoms: C_5  and  C_7
REMARK    2  A    between atoms: C_8  and  C_9
REMARK    3  A    between atoms: N_11  and  C_12
REMARK                            x       y       z     vdW  Elec       q    Type
REMARK                         _______ _______ _______ _____ _____    ______ ____
ROOT
ATOM      1  C   UNL     1       2.471  -4.266  -0.050  0.00  0.00    +0.241 C 
ATOM      2  O   UNL     1       1.431  -4.897  -0.039  0.00  0.00    -0.270 OA
ATOM      3  N   UNL     1       3.653  -4.915  -0.058  0.00  0.00    -0.280 N 
ATOM      4  H   UNL     1       4.591  -4.347  -0.142  0.00  0.00    +0.155 HD
ENDROOT
BRANCH   3   5
ATOM      5  C   UNL     1       3.686  -6.309   0.040  0.00  0.00    +0.059 A 
ATOM      6  C   UNL     1       2.689  -7.071  -0.542  0.00  0.00    +0.025 A 
ATOM      7  C   UNL     1       2.718  -8.457  -0.453  0.00  0.00    +0.003 A 
ATOM      8  C   UNL     1       3.722  -9.092   0.218  0.00  0.00    +0.011 A 
ATOM      9  C   UNL     1       4.743  -8.345   0.823  0.00  0.00    +0.021 A 
ATOM     10  C   UNL     1       4.723  -6.941   0.732  0.00  0.00    +0.087 A 
ATOM     11  N   UNL     1       5.828  -6.489   1.407  0.00  0.00    -0.275 N 
ATOM     12  H   UNL     1       6.028  -5.409   1.474  0.00  0.00    +0.189 HD
ATOM     13  N   UNL     1       6.518  -7.601   1.906  0.00  0.00    -0.181 NA
ATOM     14  C   UNL     1       5.894  -8.692   1.571  0.00  0.00    +0.142 A 
ENDBRANCH   3   5
BRANCH   1  16
ATOM     15  C   UNL     1       1.257  -2.154  -0.045  0.00  0.00    +0.016 C 
ATOM     16  C   UNL     1       2.440  -2.803  -0.054  0.00  0.00    +0.068 C 
BRANCH  15  21
ATOM     17  C   UNL     1       2.381   1.423  -0.064  0.00  0.00    +0.001 A 
ATOM     18  C   UNL     1       1.166   2.088  -0.056  0.00  0.00    +0.003 A 
ATOM     19  C   UNL     1      -0.020   1.377  -0.044  0.00  0.00    +0.039 A 
ATOM     20  C   UNL     1      -0.000  -0.005  -0.041  0.00  0.00    +0.131 A 
ATOM     21  C   UNL     1       1.226  -0.684  -0.049  0.00  0.00    +0.010 A 
ATOM     22  C   UNL     1       2.419   0.046  -0.061  0.00  0.00    +0.011 A 
ATOM     23  F   UNL     1      -1.159  -0.700  -0.029  0.00  0.00    -0.205 F 
ENDBRANCH  15  21
ENDBRANCH   1  16
TORSDOF 3
