REMARK  Name = ZINC21039664
REMARK  12 active torsions:
REMARK  status: ('A' for Active; 'I' for Inactive)
REMARK    1  A    between atoms: C_1  and  C_2
REMARK    2  A    between atoms: C_2  and  C_3
REMARK    3  A    between atoms: C_3  and  C_5
REMARK    4  A    between atoms: C_3  and  S_6
REMARK    5  A    between atoms: S_6  and  C_7
REMARK    6  A    between atoms: C_13  and  C_15
REMARK    7  A    between atoms: C_15  and  S_16
REMARK    8  A    between atoms: S_16  and  C_17
REMARK    9  A    between atoms: N_23  and  N_24
REMARK   10  A    between atoms: C_25  and  C_26
REMARK   11  A    between atoms: C_29  and  O_32
REMARK   12  A    between atoms: O_32  and  C_33
REMARK                            x       y       z     vdW  Elec       q    Type
REMARK                         _______ _______ _______ _____ _____    ______ ____
ROOT
ATOM      1  C   UNL     1     -12.349  -3.616   0.401  0.00  0.00    +0.186 A 
ATOM      2  N   UNL     1     -13.253  -4.213   1.208  0.00  0.00    -0.252 N 
ATOM      3  H   UNL     1     -13.094  -4.563   2.098  0.00  0.00    +0.191 HD
ATOM      4  N   UNL     1     -14.467  -4.225   0.503  0.00  0.00    -0.134 NA
ATOM      5  C   UNL     1     -14.243  -3.655  -0.656  0.00  0.00    +0.255 A 
ATOM      6  N   UNL     1     -12.960  -3.281  -0.716  0.00  0.00    -0.187 NA
ATOM      7  N   UNL     1     -15.190  -3.464  -1.662  0.00  0.00    -0.204 N 
ATOM      8  H   UNL     1     -14.936  -3.031  -2.491  0.00  0.00    +0.177 HD
ENDROOT
BRANCH   7   9
ATOM      9  N   UNL     1     -16.509  -3.898  -1.474  0.00  0.00    -0.188 NA
ATOM     10  C   UNL     1     -17.391  -3.721  -2.410  0.00  0.00    +0.138 C 
BRANCH  10  11
ATOM     11  C   UNL     1     -18.779  -4.178  -2.212  0.00  0.00    -0.005 A 
ATOM     12  C   UNL     1     -19.148  -4.797  -1.015  0.00  0.00    +0.013 A 
ATOM     13  C   UNL     1     -20.447  -5.222  -0.834  0.00  0.00    +0.046 A 
ATOM     14  C   UNL     1     -21.387  -5.037  -1.839  0.00  0.00    +0.120 A 
ATOM     15  C   UNL     1     -21.024  -4.422  -3.031  0.00  0.00    +0.046 A 
ATOM     16  C   UNL     1     -19.729  -3.987  -3.218  0.00  0.00    +0.013 A 
BRANCH  14  17
ATOM     17  O   UNL     1     -22.666  -5.458  -1.657  0.00  0.00    -0.495 OA
ATOM     18  C   UNL     1     -23.581  -5.237  -2.731  0.00  0.00    +0.277 C 
ENDBRANCH  14  17
ENDBRANCH  10  11
ENDBRANCH   7   9
BRANCH   1  19
ATOM     19  S   UNL     1     -10.652  -3.331   0.779  0.00  0.00    -0.077 S 
BRANCH  19  20
ATOM     20  C   UNL     1     -10.007  -2.498  -0.698  0.00  0.00    +0.173 C 
BRANCH  20  27
ATOM     21  C   UNL     1      -3.926  -0.602  -1.300  0.00  0.00    +0.160 A 
ATOM     22  N   UNL     1      -4.488  -1.214  -0.269  0.00  0.00    -0.133 NA
ATOM     23  N   UNL     1      -5.707  -1.539  -0.270  0.00  0.00    -0.125 NA
ATOM     24  C   UNL     1      -6.498  -1.290  -1.300  0.00  0.00    +0.189 A 
ATOM     25  S   UNL     1      -5.337  -0.480  -2.396  0.00  0.00    -0.024 S 
ATOM     26  N   UNL     1      -7.850  -1.572  -1.479  0.00  0.00    -0.263 N 
ATOM     27  C   UNL     1      -8.544  -2.193  -0.505  0.00  0.00    +0.229 C 
ATOM     28  O   UNL     1      -7.991  -2.506   0.528  0.00  0.00    -0.275 OA
ATOM     29  H   UNL     1      -8.293  -1.321  -2.305  0.00  0.00    +0.157 HD
BRANCH  21  30
ATOM     30  S   UNL     1      -2.265  -0.057  -1.527  0.00  0.00    -0.094 S 
BRANCH  30  31
ATOM     31  C   UNL     1      -1.433  -0.534   0.013  0.00  0.00    +0.050 C 
ATOM     32  C   UNL     1      -1.413  -2.059   0.130  0.00  0.00    +0.019 C 
BRANCH  31  34
ATOM     33  C   UNL     1      -0.019   1.526   0.010  0.00  0.00    +0.005 C 
ATOM     34  C   UNL     1       0.002  -0.004   0.002  0.00  0.00    +0.011 C 
ENDBRANCH  31  34
ENDBRANCH  30  31
ENDBRANCH  21  30
ENDBRANCH  20  27
ENDBRANCH  19  20
ENDBRANCH   1  19
TORSDOF 9
