REMARK  Name = ZINC40113430
REMARK  7 active torsions:
REMARK  status: ('A' for Active; 'I' for Inactive)
REMARK    1  A    between atoms: C_1  and  C_2
REMARK    2  A    between atoms: C_2  and  N_3
REMARK    3  A    between atoms: C_11  and  C_13
REMARK    4  A    between atoms: C_14  and  C_15
REMARK    5  A    between atoms: C_14  and  C_17
REMARK    6  A    between atoms: N_19  and  C_20
REMARK    7  A    between atoms: C_23  and  C_26
REMARK                            x       y       z     vdW  Elec       q    Type
REMARK                         _______ _______ _______ _____ _____    ______ ____
ROOT
ATOM      1  C   UNL     1       6.266  -1.248  -1.090  0.00  0.00    +0.032 C 
ATOM      2  C   UNL     1       6.945  -1.504  -2.262  0.00  0.00    +0.114 C 
ENDROOT
BRANCH   1  11
ATOM      3  N   UNL     1       0.674  -0.691  -1.127  0.00  0.00    -0.330 N 
ATOM      4  C   UNL     1      -0.093  -1.103  -2.311  0.00  0.00    +0.105 C 
ATOM      5  C   UNL     1       0.436  -2.470  -2.762  0.00  0.00    +0.024 C 
ATOM      6  C   UNL     1       1.898  -2.319  -3.181  0.00  0.00    +0.038 C 
ATOM      7  C   UNL     1       2.685  -1.621  -2.103  0.00  0.00    -0.026 A 
ATOM      8  C   UNL     1       2.059  -0.838  -1.136  0.00  0.00    +0.033 A 
ATOM      9  C   UNL     1       2.811  -0.193  -0.154  0.00  0.00    +0.024 A 
ATOM     10  C   UNL     1       4.170  -0.319  -0.134  0.00  0.00    +0.010 A 
ATOM     11  C   UNL     1       4.810  -1.104  -1.105  0.00  0.00    -0.023 A 
ATOM     12  C   UNL     1       4.046  -1.760  -2.086  0.00  0.00    +0.013 A 
BRANCH   3  14
ATOM     13  C   UNL     1      -0.107   1.390  -0.107  0.00  0.00    +0.024 C 
ATOM     14  C   UNL     1      -0.007  -0.130   0.042  0.00  0.00    +0.102 C 
ENDBRANCH   3  14
ENDBRANCH   1  11
BRANCH   2  15
ATOM     15  C   UNL     1       8.379  -1.829  -2.224  0.00  0.00    +0.259 C 
ATOM     16  O   UNL     1       8.965  -1.873  -1.159  0.00  0.00    -0.269 OA
ATOM     17  N   UNL     1       9.043  -2.078  -3.370  0.00  0.00    -0.281 N 
ATOM     18  H   UNL     1       8.596  -1.969  -4.224  0.00  0.00    +0.155 HD
BRANCH  17  19
ATOM     19  C   UNL     1      10.378  -2.495  -3.328  0.00  0.00    +0.034 A 
ATOM     20  C   UNL     1      11.226  -2.220  -4.393  0.00  0.00    +0.023 A 
ATOM     21  C   UNL     1      12.544  -2.633  -4.348  0.00  0.00    +0.005 A 
ATOM     22  C   UNL     1      13.018  -3.319  -3.246  0.00  0.00    -0.050 A 
ATOM     23  C   UNL     1      12.176  -3.594  -2.184  0.00  0.00    +0.005 A 
ATOM     24  C   UNL     1      10.859  -3.179  -2.220  0.00  0.00    +0.023 A 
ATOM     25  C   UNL     1      14.456  -3.769  -3.201  0.00  0.00    +0.044 C 
ENDBRANCH  17  19
ENDBRANCH   2  15
BRANCH   2  26
ATOM     26  C   UNL     1       6.255  -1.452  -3.515  0.00  0.00    +0.104 C 
ATOM     27  N   UNL     1       5.708  -1.411  -4.510  0.00  0.00    -0.191 NA
ENDBRANCH   2  26
TORSDOF 5
