REMARK  Name = ZINC36353497
REMARK  3 active torsions:
REMARK  status: ('A' for Active; 'I' for Inactive)
REMARK    1  A    between atoms: N_16  and  C_21
REMARK    2  A    between atoms: C_17  and  O_20
REMARK    3  A    between atoms: C_21  and  C_22
REMARK                            x       y       z     vdW  Elec       q    Type
REMARK                         _______ _______ _______ _____ _____    ______ ____
ROOT
ATOM      1  C   UNL     1      -0.016   1.358   0.009  0.00  0.00    +0.001 A 
ATOM      2  C   UNL     1       1.160   2.105   0.002  0.00  0.00    +0.002 A 
ATOM      3  C   UNL     1       2.385   1.514   0.012  0.00  0.00    +0.026 A 
ATOM      4  C   UNL     1       2.476   0.107   0.040  0.00  0.00    +0.050 A 
ATOM      5  N   UNL     1       3.642  -0.510   0.126  0.00  0.00    -0.352 N 
ATOM      6  C   UNL     1       3.724  -1.964   0.249  0.00  0.00    +0.215 C 
ATOM      7  C   UNL     1       3.896  -2.368   1.681  0.00  0.00    +0.026 A 
ATOM      8  C   UNL     1       3.087  -2.190   2.783  0.00  0.00    +0.010 A 
ATOM      9  C   UNL     1       3.549  -2.696   3.993  0.00  0.00    +0.001 A 
ATOM     10  C   UNL     1       4.763  -3.345   4.084  0.00  0.00    +0.002 A 
ATOM     11  C   UNL     1       5.582  -3.528   2.980  0.00  0.00    +0.024 A 
ATOM     12  C   UNL     1       5.129  -3.025   1.759  0.00  0.00    +0.041 A 
ATOM     13  N   UNL     1       5.734  -3.064   0.515  0.00  0.00    -0.281 N 
ATOM     14  C   UNL     1       4.982  -2.466  -0.431  0.00  0.00    +0.266 C 
ATOM     15  O   UNL     1       5.260  -2.351  -1.606  0.00  0.00    -0.271 OA
ATOM     16  N   UNL     1       2.554  -2.615  -0.338  0.00  0.00    -0.263 N 
ATOM     17  C   UNL     1       1.315  -2.073  -0.139  0.00  0.00    +0.192 C 
ATOM     18  C   UNL     1       1.234  -0.676  -0.026  0.00  0.00    +0.055 A 
ATOM     19  C   UNL     1       0.002  -0.004   0.002  0.00  0.00    +0.015 A 
ATOM     20  H   UNL     1       6.596  -3.473   0.344  0.00  0.00    +0.155 HD
ATOM     21  H   UNL     1       4.459   0.012   0.105  0.00  0.00    +0.162 HD
ENDROOT
BRANCH  17  22
ATOM     22  O   UNL     1       0.218  -2.847  -0.055  0.00  0.00    -0.495 OA
ATOM     23  H   UNL     1      -0.601  -2.353   0.087  0.00  0.00    +0.293 HD
ENDBRANCH  17  22
BRANCH  16  24
ATOM     24  C   UNL     1       2.708  -3.837  -1.131  0.00  0.00    +0.146 C 
BRANCH  24  25
ATOM     25  C   UNL     1       2.607  -5.039  -0.228  0.00  0.00    -0.026 A 
ATOM     26  C   UNL     1       3.745  -5.551   0.367  0.00  0.00    +0.009 A 
ATOM     27  C   UNL     1       3.658  -6.654   1.196  0.00  0.00    +0.050 A 
ATOM     28  C   UNL     1       2.429  -7.248   1.433  0.00  0.00    +0.166 A 
ATOM     29  C   UNL     1       1.283  -6.732   0.834  0.00  0.00    +0.167 A 
ATOM     30  C   UNL     1       1.377  -5.623   0.008  0.00  0.00    +0.054 A 
ATOM     31  O   UNL     1       0.211  -7.484   1.219  0.00  0.00    -0.453 OA
ATOM     32  C   UNL     1       0.767  -8.709   1.733  0.00  0.00    +0.466 C 
ATOM     33  O   UNL     1       2.075  -8.324   2.195  0.00  0.00    -0.453 OA
ENDBRANCH  24  25
ENDBRANCH  16  24
TORSDOF 3
