REMARK  Name = ZINC24473245
REMARK  8 active torsions:
REMARK  status: ('A' for Active; 'I' for Inactive)
REMARK    1  A    between atoms: C_1  and  C_2
REMARK    2  A    between atoms: C_3  and  C_7
REMARK    3  A    between atoms: C_10  and  S_18
REMARK    4  A    between atoms: N_11  and  C_12
REMARK    5  A    between atoms: S_18  and  C_19
REMARK    6  A    between atoms: C_19  and  C_20
REMARK    7  A    between atoms: N_22  and  C_23
REMARK    8  A    between atoms: C_23  and  C_30
REMARK                            x       y       z     vdW  Elec       q    Type
REMARK                         _______ _______ _______ _____ _____    ______ ____
ROOT
ATOM      1  C   UNL     1      -2.220   9.739  -1.153  0.00  0.00    +0.173 A 
ATOM      2  N   UNL     1      -1.583   9.437  -0.046  0.00  0.00    -0.128 NA
ATOM      3  N   UNL     1      -1.495   8.161   0.078  0.00  0.00    -0.122 NA
ATOM      4  C   UNL     1      -2.071   7.566  -0.941  0.00  0.00    +0.197 A 
ATOM      5  N   UNL     1      -2.550   8.550  -1.766  0.00  0.00    -0.270 N 
ENDROOT
BRANCH   1   8
ATOM      6  C   UNL     1      -1.457  12.441   0.241  0.00  0.00    +0.087 C 
ATOM      7  C   UNL     1      -2.200  12.280  -1.060  0.00  0.00    +0.112 A 
ATOM      8  C   UNL     1      -2.523  11.098  -1.651  0.00  0.00    +0.060 A 
ATOM      9  C   UNL     1      -3.229  11.452  -2.889  0.00  0.00    +0.053 A 
ATOM     10  C   UNL     1      -3.272  12.794  -2.921  0.00  0.00    +0.196 A 
ATOM     11  O   UNL     1      -2.655  13.277  -1.832  0.00  0.00    -0.467 OA
ENDBRANCH   1   8
BRANCH   5  12
ATOM     12  C   UNL     1      -3.234   8.381  -2.978  0.00  0.00    +0.051 A 
ATOM     13  C   UNL     1      -2.663   8.818  -4.165  0.00  0.00    +0.026 A 
ATOM     14  C   UNL     1      -3.337   8.646  -5.358  0.00  0.00    +0.002 A 
ATOM     15  C   UNL     1      -4.585   8.050  -5.369  0.00  0.00    +0.000 A 
ATOM     16  C   UNL     1      -5.159   7.619  -4.187  0.00  0.00    +0.002 A 
ATOM     17  C   UNL     1      -4.487   7.783  -2.992  0.00  0.00    +0.026 A 
ENDBRANCH   5  12
BRANCH   4  18
ATOM     18  S   UNL     1      -2.198   5.829  -1.203  0.00  0.00    -0.076 S 
BRANCH  18  19
ATOM     19  C   UNL     1      -1.345   5.225   0.275  0.00  0.00    +0.173 C 
BRANCH  19  20
ATOM     20  C   UNL     1      -1.330   3.718   0.266  0.00  0.00    +0.224 C 
ATOM     21  O   UNL     1      -1.845   3.112  -0.649  0.00  0.00    -0.275 OA
ATOM     22  N   UNL     1      -0.743   3.044   1.275  0.00  0.00    -0.308 N 
ATOM     23  H   UNL     1      -0.276   3.594   2.105  0.00  0.00    +0.149 HD
BRANCH  22  24
ATOM     24  C   UNL     1      -0.729   1.579   1.267  0.00  0.00    +0.052 C 
ATOM     25  C   UNL     1       0.016   1.069   2.511  0.00  0.00    +0.049 C 
ATOM     26  C   UNL     1      -0.890   1.311   3.752  0.00  0.00    +0.168 C 
ATOM     27  S   UNL     1      -2.535   0.845   3.063  0.00  0.00    -0.029 S 
ATOM     28  O   UNL     1      -2.776  -0.529   3.332  0.00  0.00    -0.174 OA
ATOM     29  O   UNL     1      -3.494   1.814   3.463  0.00  0.00    -0.174 OA
ATOM     30  C   UNL     1      -2.184   1.052   1.270  0.00  0.00    +0.191 C 
ATOM     31  C   UNL     1      -0.013   1.086   0.008  0.00  0.00    +0.033 C 
ENDBRANCH  22  24
ENDBRANCH  19  20
ENDBRANCH  18  19
ENDBRANCH   4  18
TORSDOF 6
