REMARK  Name = ZINC66606929
REMARK  8 active torsions:
REMARK  status: ('A' for Active; 'I' for Inactive)
REMARK    1  A    between atoms: C_1  and  C_2
REMARK    2  A    between atoms: C_2  and  C_3
REMARK    3  A    between atoms: N_5  and  C_6
REMARK    4  A    between atoms: C_6  and  C_8
REMARK    5  A    between atoms: C_6  and  C_14
REMARK    6  A    between atoms: N_16  and  N_17
REMARK    7  A    between atoms: N_28  and  C_29
REMARK    8  A    between atoms: C_29  and  C_30
REMARK                            x       y       z     vdW  Elec       q    Type
REMARK                         _______ _______ _______ _____ _____    ______ ____
ROOT
ATOM      1  C   UNL     1      -3.046  -3.740  -0.589  0.00  0.00    +0.254 C 
ATOM      2  O   UNL     1      -2.021  -4.249  -0.992  0.00  0.00    -0.272 OA
ATOM      3  N   UNL     1      -4.213  -4.407  -0.686  0.00  0.00    -0.232 N 
ATOM      4  H   UNL     1      -5.032  -4.000  -0.364  0.00  0.00    +0.173 HD
ENDROOT
BRANCH   3   5
ATOM      5  N   UNL     1      -4.242  -5.689  -1.251  0.00  0.00    -0.234 N 
ATOM      6  C   UNL     1      -5.430  -6.369  -1.349  0.00  0.00    +0.216 A 
ATOM      7  N   UNL     1      -6.519  -5.788  -0.910  0.00  0.00    -0.214 NA
ATOM      8  C   UNL     1      -7.724  -6.402  -0.977  0.00  0.00    +0.080 A 
ATOM      9  C   UNL     1      -8.888  -5.785  -0.509  0.00  0.00    +0.028 A 
ATOM     10  C   UNL     1     -10.083  -6.442  -0.597  0.00  0.00    +0.002 A 
ATOM     11  C   UNL     1     -10.159  -7.716  -1.144  0.00  0.00    +0.001 A 
ATOM     12  C   UNL     1      -9.038  -8.346  -1.610  0.00  0.00    +0.015 A 
ATOM     13  C   UNL     1      -7.806  -7.699  -1.533  0.00  0.00    +0.065 A 
ATOM     14  C   UNL     1      -6.568  -8.325  -2.017  0.00  0.00    +0.263 A 
ATOM     15  O   UNL     1      -6.574  -9.440  -2.506  0.00  0.00    -0.267 OA
ATOM     16  N   UNL     1      -5.422  -7.615  -1.905  0.00  0.00    -0.280 N 
ATOM     17  H   UNL     1      -3.422  -6.096  -1.573  0.00  0.00    +0.173 HD
BRANCH  16  18
ATOM     18  C   UNL     1      -4.161  -8.191  -2.378  0.00  0.00    +0.125 C 
ATOM     19  C   UNL     1      -3.498  -8.971  -1.240  0.00  0.00    +0.027 C 
ENDBRANCH  16  18
ENDBRANCH   3   5
BRANCH   1  20
ATOM     20  C   UNL     1      -3.014  -2.361   0.018  0.00  0.00    +0.191 C 
BRANCH  20  21
ATOM     21  C   UNL     1      -3.515  -2.426   1.438  0.00  0.00    -0.018 A 
ATOM     22  C   UNL     1      -2.672  -2.848   2.449  0.00  0.00    +0.006 A 
ATOM     23  C   UNL     1      -3.131  -2.908   3.752  0.00  0.00    +0.000 A 
ATOM     24  C   UNL     1      -4.433  -2.546   4.043  0.00  0.00    +0.000 A 
ATOM     25  C   UNL     1      -5.276  -2.123   3.032  0.00  0.00    +0.000 A 
ATOM     26  C   UNL     1      -4.815  -2.059   1.730  0.00  0.00    +0.006 A 
ENDBRANCH  20  21
BRANCH  20  29
ATOM     27  C   UNL     1      -1.412  -0.526   0.013  0.00  0.00    +0.214 C 
ATOM     28  O   UNL     1      -2.344   0.250   0.026  0.00  0.00    -0.276 OA
ATOM     29  N   UNL     1      -1.640  -1.854   0.008  0.00  0.00    -0.300 N 
ATOM     30  H   UNL     1      -0.894  -2.474  -0.003  0.00  0.00    +0.150 HD
BRANCH  27  32
ATOM     31  C   UNL     1      -0.019   1.526   0.010  0.00  0.00    +0.013 C 
ATOM     32  C   UNL     1       0.002  -0.004   0.002  0.00  0.00    +0.092 C 
ENDBRANCH  27  32
ENDBRANCH  20  29
ENDBRANCH   1  20
TORSDOF 6
