REMARK  Name = ZINC23612683
REMARK  6 active torsions:
REMARK  status: ('A' for Active; 'I' for Inactive)
REMARK    1  A    between atoms: C_1  and  C_2
REMARK    2  A    between atoms: C_5  and  C_11
REMARK    3  A    between atoms: C_6  and  C_10
REMARK    4  A    between atoms: C_12  and  C_13
REMARK    5  A    between atoms: C_12  and  C_15
REMARK    6  A    between atoms: N_23  and  C_24
REMARK                            x       y       z     vdW  Elec       q    Type
REMARK                         _______ _______ _______ _____ _____    ______ ____
ROOT
ATOM      1  C   UNL     1      -1.227   2.108   0.084  0.00  0.00    +0.050 C 
ATOM      2  C   UNL     1      -0.018   1.430   0.034  0.00  0.00    +0.096 C 
ENDROOT
BRANCH   1   7
ATOM      3  C   UNL     1      -5.513   2.990   3.891  0.00  0.00    +0.053 C 
ATOM      4  C   UNL     1      -4.982   2.227   2.704  0.00  0.00    +0.007 A 
ATOM      5  C   UNL     1      -3.814   2.360   2.074  0.00  0.00    +0.104 A 
ATOM      6  N   UNL     1      -3.499   1.561   1.001  0.00  0.00    -0.293 N 
ATOM      7  C   UNL     1      -2.434   1.391   0.099  0.00  0.00    +0.071 A 
ATOM      8  C   UNL     1      -2.802   0.374  -0.770  0.00  0.00    +0.065 A 
ATOM      9  N   UNL     1      -4.013  -0.042  -0.422  0.00  0.00    -0.226 NA
ATOM     10  C   UNL     1      -4.435   0.645   0.610  0.00  0.00    +0.178 A 
ATOM     11  S   UNL     1      -5.752   0.911   1.775  0.00  0.00    -0.055 S 
ATOM     12  C   UNL     1      -1.972  -0.163  -1.908  0.00  0.00    +0.068 C 
ENDBRANCH   1   7
BRANCH   2  13
ATOM     13  C   UNL     1       1.246   2.182   0.013  0.00  0.00    +0.156 A 
ATOM     14  N   UNL     1       1.348   3.488  -0.084  0.00  0.00    -0.227 NA
ATOM     15  C   UNL     1       2.656   3.845  -0.074  0.00  0.00    +0.090 A 
ATOM     16  C   UNL     1       3.315   5.077  -0.149  0.00  0.00    +0.030 A 
ATOM     17  C   UNL     1       4.690   5.119  -0.114  0.00  0.00    +0.002 A 
ATOM     18  C   UNL     1       5.429   3.950  -0.004  0.00  0.00    +0.002 A 
ATOM     19  C   UNL     1       4.795   2.727   0.071  0.00  0.00    +0.028 A 
ATOM     20  C   UNL     1       3.410   2.663   0.037  0.00  0.00    +0.074 A 
ATOM     21  N   UNL     1       2.497   1.626   0.096  0.00  0.00    -0.266 N 
BRANCH  21  22
ATOM     22  C   UNL     1       2.808   0.200   0.220  0.00  0.00    +0.450 C 
ATOM     23  F   UNL     1       3.690  -0.176  -0.799  0.00  0.00    -0.185 F 
ATOM     24  F   UNL     1       3.403  -0.041   1.464  0.00  0.00    -0.185 F 
ENDBRANCH  21  22
ENDBRANCH   2  13
BRANCH   2  25
ATOM     25  C   UNL     1      -0.001  -0.002  -0.002  0.00  0.00    +0.103 C 
ATOM     26  N   UNL     1       0.013  -1.137  -0.030  0.00  0.00    -0.191 NA
ENDBRANCH   2  25
TORSDOF 4
