REMARK  Name = ZINC00606550
REMARK  3 active torsions:
REMARK  status: ('A' for Active; 'I' for Inactive)
REMARK    1  A    between atoms: C_10  and  C_18
REMARK    2  A    between atoms: C_18  and  N_55
REMARK    3  A    between atoms: C_21  and  N_24
REMARK                            x       y       z     vdW  Elec       q    Type
REMARK                         _______ _______ _______ _____ _____    ______ ____
ROOT
ATOM      1  C   UNL     1       5.181  11.877  -4.052  0.00  0.00    +0.000 A 
ATOM      2  C   UNL     1       5.104  11.830  -2.672  0.00  0.00    +0.000 A 
ATOM      3  C   UNL     1       4.854  10.628  -2.031  0.00  0.00    +0.005 A 
ATOM      4  C   UNL     1       4.686   9.461  -2.732  0.00  0.00    -0.035 A 
ATOM      5  C   UNL     1       4.762   9.532  -4.160  0.00  0.00    -0.036 A 
ATOM      6  C   UNL     1       5.010  10.723  -4.798  0.00  0.00    +0.004 A 
ATOM      7  C   UNL     1       4.529   8.106  -4.666  0.00  0.00    +0.051 C 
ATOM      8  C   UNL     1       5.242   7.278  -3.528  0.00  0.00    +0.027 C 
ATOM      9  C   UNL     1       4.409   7.994  -2.396  0.00  0.00    +0.007 C 
ATOM     10  C   UNL     1       2.994   7.750  -2.927  0.00  0.00    -0.034 A 
ATOM     11  C   UNL     1       3.067   7.818  -4.314  0.00  0.00    -0.036 A 
ATOM     12  C   UNL     1       1.939   7.636  -5.076  0.00  0.00    +0.006 A 
ATOM     13  C   UNL     1       0.727   7.383  -4.457  0.00  0.00    +0.020 A 
ATOM     14  C   UNL     1       0.653   7.315  -3.077  0.00  0.00    +0.041 A 
ATOM     15  C   UNL     1       1.793   7.499  -2.310  0.00  0.00    +0.024 A 
ATOM     16 CL   UNL     1      -0.869   6.998  -2.305  0.00  0.00    -0.084 Cl
ENDROOT
BRANCH   9  17
ATOM     17  C   UNL     1       4.683   7.559  -0.955  0.00  0.00    -0.062 C 
BRANCH  17  23
ATOM     18  C   UNL     1       4.842   5.639   0.511  0.00  0.00    -0.077 C 
ATOM     19  C   UNL     1       4.970   4.114   0.539  0.00  0.00    +0.003 C 
ATOM     20  C   UNL     1       3.710   3.490  -0.070  0.00  0.00    +0.070 C 
ATOM     21  C   UNL     1       3.528   4.016  -1.496  0.00  0.00    +0.003 C 
ATOM     22  C   UNL     1       3.442   5.544  -1.465  0.00  0.00    -0.077 C 
ATOM     23  N   UNL     1       4.694   6.083  -0.891  0.00  0.00    +0.381 N 
ATOM     24  H   UNL     1       5.489   5.731  -1.438  0.00  0.00    -0.082 HD
BRANCH  20  25
ATOM     25  N   UNL     1       3.852   2.033  -0.099  0.00  0.00    -0.311 N 
ATOM     26  C   UNL     1       2.725   1.228  -0.102  0.00  0.00    +0.215 A 
ATOM     27  N   UNL     1       1.527   1.793  -0.078  0.00  0.00    -0.223 NA
ATOM     28  C   UNL     1       0.431   1.053  -0.080  0.00  0.00    +0.116 A 
ATOM     29  C   UNL     1       0.547  -0.328  -0.108  0.00  0.00    +0.039 A 
ATOM     30  C   UNL     1       1.815  -0.886  -0.133  0.00  0.00    +0.116 A 
ATOM     31  N   UNL     1       2.871  -0.088  -0.129  0.00  0.00    -0.223 NA
ATOM     32  H   UNL     1       4.734   1.631  -0.117  0.00  0.00    +0.149 HD
ENDBRANCH  20  25
ENDBRANCH  17  23
ENDBRANCH   9  17
TORSDOF 3
