REMARK  Name = ZINC18141585
REMARK  7 active torsions:
REMARK  status: ('A' for Active; 'I' for Inactive)
REMARK    1  A    between atoms: C_1  and  C_2
REMARK    2  A    between atoms: C_5  and  C_8
REMARK    3  A    between atoms: N_16  and  C_19
REMARK    4  A    between atoms: C_20  and  C_27
REMARK    5  A    between atoms: C_22  and  C_26
REMARK    6  A    between atoms: C_24  and  C_25
REMARK    7  A    between atoms: N_29  and  C_30
REMARK                            x       y       z     vdW  Elec       q    Type
REMARK                         _______ _______ _______ _____ _____    ______ ____
ROOT
ATOM      1  C   UNL     1       0.059  -4.275  -0.021  0.00  0.00    +0.157 C 
ATOM      2  C   UNL     1      -1.344  -4.843   0.296  0.00  0.00    +0.145 C 
ATOM      3  C   UNL     1      -1.273  -5.146   1.818  0.00  0.00    +0.249 C 
ATOM      4  C   UNL     1      -1.352  -6.655   1.878  0.00  0.00    +0.259 C 
ATOM      5  O   UNL     1      -1.321  -7.318   2.893  0.00  0.00    -0.272 OA
ATOM      6  N   UNL     1      -1.461  -7.144   0.638  0.00  0.00    -0.207 N 
ATOM      7  C   UNL     1      -1.477  -6.207  -0.344  0.00  0.00    +0.235 C 
ATOM      8  O   UNL     1      -1.577  -6.416  -1.534  0.00  0.00    -0.274 OA
ATOM      9  O   UNL     1       0.029  -4.704   2.242  0.00  0.00    -0.257 OA
ATOM     10  N   UNL     1       0.889  -4.796   1.092  0.00  0.00    -0.244 N 
ENDROOT
BRANCH   6  11
ATOM     11  C   UNL     1      -1.558  -8.516   0.370  0.00  0.00    +0.050 A 
ATOM     12  C   UNL     1      -0.409  -9.268   0.165  0.00  0.00    -0.028 A 
ATOM     13  C   UNL     1      -0.508 -10.620  -0.099  0.00  0.00    +0.008 A 
ATOM     14  C   UNL     1      -1.750 -11.225  -0.160  0.00  0.00    -0.050 A 
ATOM     15  C   UNL     1      -2.896 -10.479   0.044  0.00  0.00    +0.008 A 
ATOM     16  C   UNL     1      -2.803  -9.128   0.314  0.00  0.00    -0.028 A 
ATOM     17  C   UNL     1      -4.053  -8.316   0.541  0.00  0.00    +0.046 C 
ATOM     18  C   UNL     1      -1.854 -12.701  -0.448  0.00  0.00    +0.044 C 
ATOM     19  C   UNL     1       0.945  -8.610   0.231  0.00  0.00    +0.046 C 
ENDBRANCH   6  11
BRANCH   1  24
ATOM     20  C   UNL     1      -0.018   1.503   0.010  0.00  0.00    +0.044 C 
ATOM     21  C   UNL     1       0.002  -0.004   0.002  0.00  0.00    -0.050 A 
ATOM     22  C   UNL     1       0.006  -0.689  -1.199  0.00  0.00    +0.004 A 
ATOM     23  C   UNL     1       0.025  -2.071  -1.206  0.00  0.00    +0.006 A 
ATOM     24  C   UNL     1       0.040  -2.768  -0.013  0.00  0.00    -0.022 A 
ATOM     25  C   UNL     1       0.037  -2.084   1.188  0.00  0.00    +0.006 A 
ATOM     26  C   UNL     1       0.023  -0.702   1.195  0.00  0.00    +0.004 A 
ENDBRANCH   1  24
BRANCH  10  27
ATOM     27  C   UNL     1       2.205  -5.261   1.032  0.00  0.00    +0.065 A 
ATOM     28  C   UNL     1       2.889  -5.262  -0.177  0.00  0.00    +0.028 A 
ATOM     29  C   UNL     1       4.190  -5.722  -0.233  0.00  0.00    +0.002 A 
ATOM     30  C   UNL     1       4.812  -6.180   0.914  0.00  0.00    +0.000 A 
ATOM     31  C   UNL     1       4.135  -6.180   2.120  0.00  0.00    +0.002 A 
ATOM     32  C   UNL     1       2.835  -5.716   2.183  0.00  0.00    +0.028 A 
ENDBRANCH  10  27
TORSDOF 3
