REMARK  Name = ZINC15069084
REMARK  9 active torsions:
REMARK  status: ('A' for Active; 'I' for Inactive)
REMARK    1  A    between atoms: C_1  and  N_69
REMARK    2  A    between atoms: C_2  and  C_3
REMARK    3  A    between atoms: C_2  and  N_69
REMARK    4  A    between atoms: C_7  and  O_9
REMARK    5  A    between atoms: O_9  and  C_10
REMARK    6  A    between atoms: C_10  and  C_11
REMARK    7  A    between atoms: C_18  and  C_20
REMARK    8  A    between atoms: C_30  and  C_31
REMARK    9  A    between atoms: C_30  and  N_69
REMARK                            x       y       z     vdW  Elec       q    Type
REMARK                         _______ _______ _______ _____ _____    ______ ____
ROOT
ATOM      1  C   UNL     1      -1.135   1.889  -0.037  0.00  0.00    -0.060 A 
ATOM      2  C   UNL     1      -1.151   3.268   0.070  0.00  0.00    +0.002 A 
ATOM      3  C   UNL     1       0.037   3.970   0.162  0.00  0.00    +0.004 A 
ATOM      4  C   UNL     1       1.242   3.295   0.152  0.00  0.00    +0.045 A 
ATOM      5  C   UNL     1       1.260   1.911   0.051  0.00  0.00    +0.121 A 
ATOM      6  C   UNL     1       0.067   1.209  -0.041  0.00  0.00    +0.047 A 
ENDROOT
BRANCH   1   7
ATOM      7  C   UNL     1      -2.432   1.128  -0.142  0.00  0.00    -0.043 C 
BRANCH   7   9
ATOM      8  C   UNL     1      -3.268   1.982   1.963  0.00  0.00    -0.095 C 
ATOM      9  N   UNL     1      -2.884   0.765   1.217  0.00  0.00    +0.383 N 
ATOM     10  H   UNL     1      -2.114   0.300   1.712  0.00  0.00    -0.081 HD
BRANCH   9  11
ATOM     11  C   UNL     1      -4.032  -0.162   1.137  0.00  0.00    -0.043 C 
BRANCH  11  12
ATOM     12  C   UNL     1      -4.331  -0.686   2.518  0.00  0.00    -0.063 A 
ATOM     13  C   UNL     1      -5.242  -0.010   3.328  0.00  0.00    +0.004 A 
ATOM     14  C   UNL     1      -5.535  -0.456   4.579  0.00  0.00    +0.028 A 
ATOM     15  C   UNL     1      -4.912  -1.617   5.069  0.00  0.00    +0.071 A 
ATOM     16  C   UNL     1      -3.987  -2.303   4.244  0.00  0.00    +0.001 A 
ATOM     17  C   UNL     1      -3.712  -1.817   2.955  0.00  0.00    +0.011 A 
ATOM     18  C   UNL     1      -3.365  -3.466   4.736  0.00  0.00    +0.011 A 
ATOM     19  C   UNL     1      -3.684  -3.883   5.997  0.00  0.00    +0.020 A 
ATOM     20  C   UNL     1      -4.602  -3.161   6.756  0.00  0.00    +0.111 A 
ATOM     21  N   UNL     1      -5.180  -2.079   6.295  0.00  0.00    -0.255 NA
ENDBRANCH  11  12
ENDBRANCH   9  11
ENDBRANCH   7   9
ENDBRANCH   1   7
BRANCH   5  22
ATOM     22  O   UNL     1       2.445   1.245   0.041  0.00  0.00    -0.492 OA
BRANCH  22  23
ATOM     23  C   UNL     1       3.633   2.032   0.139  0.00  0.00    +0.234 C 
BRANCH  23  24
ATOM     24  C   UNL     1       4.857   1.114   0.112  0.00  0.00    +0.044 C 
ATOM     25  C   UNL     1       6.131   1.962   0.091  0.00  0.00    +0.010 C 
ATOM     26  C   UNL     1       7.354   1.045   0.031  0.00  0.00    +0.019 C 
ATOM     27  C   UNL     1       7.385   0.158   1.280  0.00  0.00    +0.108 C 
ATOM     28  N   UNL     1       6.103  -0.553   1.386  0.00  0.00    -0.297 N 
ATOM     29  C   UNL     1       4.858   0.228   1.362  0.00  0.00    +0.115 C 
ATOM     30  C   UNL     1       6.069  -1.895   1.504  0.00  0.00    +0.253 C 
ATOM     31  O   UNL     1       5.009  -2.464   1.682  0.00  0.00    -0.270 OA
BRANCH  30  32
ATOM     32  C   UNL     1       7.315  -2.672   1.417  0.00  0.00    +0.117 A 
ATOM     33  C   UNL     1       8.161  -2.782   2.503  0.00  0.00    +0.105 A 
ATOM     34  N   UNL     1       9.300  -3.513   2.387  0.00  0.00    -0.314 N 
ATOM     35  H   UNL     1       9.908  -3.599   3.176  0.00  0.00    +0.170 HD
ATOM     36  C   UNL     1       9.629  -4.122   1.237  0.00  0.00    +0.327 A 
ATOM     37  O   UNL     1      10.662  -4.760   1.183  0.00  0.00    -0.247 OA
ATOM     38  N   UNL     1       8.852  -4.049   0.142  0.00  0.00    -0.274 N 
ATOM     39  H   UNL     1       9.132  -4.517  -0.697  0.00  0.00    +0.173 HD
ATOM     40  C   UNL     1       7.699  -3.350   0.168  0.00  0.00    +0.266 A 
ATOM     41  O   UNL     1       6.991  -3.280  -0.820  0.00  0.00    -0.267 OA
ENDBRANCH  30  32
ENDBRANCH  23  24
ENDBRANCH  22  23
ENDBRANCH   5  22
TORSDOF 8
