REMARK  Name = ZINC15860104
REMARK  10 active torsions:
REMARK  status: ('A' for Active; 'I' for Inactive)
REMARK    1  A    between atoms: C_1  and  C_2
REMARK    2  A    between atoms: C_5  and  C_7
REMARK    3  A    between atoms: C_7  and  C_9
REMARK    4  A    between atoms: C_7  and  N_44
REMARK    5  A    between atoms: C_9  and  N_10
REMARK    6  A    between atoms: C_11  and  C_13
REMARK    7  A    between atoms: C_13  and  O_14
REMARK    8  A    between atoms: O_14  and  C_15
REMARK    9  A    between atoms: C_22  and  N_44
REMARK   10  A    between atoms: C_23  and  N_44
REMARK                            x       y       z     vdW  Elec       q    Type
REMARK                         _______ _______ _______ _____ _____    ______ ____
ROOT
ATOM      1  N   UNL     1       0.359  -0.281  -2.226  0.00  0.00    -0.314 N 
ATOM      2  C   UNL     1       1.228  -1.008  -2.956  0.00  0.00    +0.251 C 
ATOM      3  O   UNL     1       2.034  -0.451  -3.671  0.00  0.00    -0.272 OA
ATOM      4  H   UNL     1      -0.285  -0.726  -1.654  0.00  0.00    +0.149 HD
ENDROOT
BRANCH   1   5
ATOM      5  C   UNL     1       0.388   1.182  -2.296  0.00  0.00    +0.096 C 
BRANCH   5   6
ATOM      6  C   UNL     1      -0.603   1.761  -1.285  0.00  0.00    +0.016 C 
BRANCH   6  11
ATOM      7  C   UNL     1       1.233   6.386  -0.461  0.00  0.00    +0.086 C 
ATOM      8  C   UNL     1       0.319   5.274  -0.906  0.00  0.00    +0.102 A 
ATOM      9  C   UNL     1      -0.864   5.429  -1.528  0.00  0.00    +0.044 A 
ATOM     10  C   UNL     1      -1.376   4.133  -1.764  0.00  0.00    +0.043 A 
ATOM     11  C   UNL     1      -0.480   3.263  -1.264  0.00  0.00    +0.093 A 
ATOM     12  O   UNL     1       0.546   3.960  -0.749  0.00  0.00    -0.466 OA
ENDBRANCH   6  11
BRANCH   6  15
ATOM     13  C   UNL     1       1.042   1.611   0.485  0.00  0.00    -0.096 C 
ATOM     14  C   UNL     1      -1.318   1.660   1.026  0.00  0.00    -0.096 C 
ATOM     15  N   UNL     1      -0.309   1.198   0.050  0.00  0.00    +0.384 N 
ATOM     16  H   UNL     1      -0.343   0.173  -0.006  0.00  0.00    -0.082 HD
ENDBRANCH   6  15
ENDBRANCH   5   6
ENDBRANCH   1   5
BRANCH   2  17
ATOM     17  C   UNL     1       1.199  -2.513  -2.883  0.00  0.00    +0.324 C 
BRANCH  17  18
ATOM     18  O   UNL     1       2.207  -3.051  -3.740  0.00  0.00    -0.483 OA
BRANCH  18  19
ATOM     19  C   UNL     1       2.315  -4.405  -3.792  0.00  0.00    +0.121 A 
ATOM     20  C   UNL     1       1.472  -5.199  -3.029  0.00  0.00    +0.047 A 
ATOM     21  C   UNL     1       1.579  -6.575  -3.087  0.00  0.00    +0.019 A 
ATOM     22  C   UNL     1       2.535  -7.161  -3.897  0.00  0.00    +0.018 A 
ATOM     23  C   UNL     1       3.381  -6.371  -4.654  0.00  0.00    +0.019 A 
ATOM     24  C   UNL     1       3.273  -4.995  -4.604  0.00  0.00    +0.047 A 
ATOM     25 BR   UNL     1       2.685  -9.045  -3.970  0.00  0.00    -0.050 Br
ENDBRANCH  18  19
ENDBRANCH  17  18
ENDBRANCH   2  17
TORSDOF 7
