REMARK  Name = ZINC19716014
REMARK  6 active torsions:
REMARK  status: ('A' for Active; 'I' for Inactive)
REMARK    1  A    between atoms: C_1  and  C_2
REMARK    2  A    between atoms: C_2  and  C_31
REMARK    3  A    between atoms: C_6  and  C_11
REMARK    4  A    between atoms: C_11  and  N_12
REMARK    5  A    between atoms: N_20  and  C_24
REMARK    6  A    between atoms: C_24  and  C_25
REMARK                            x       y       z     vdW  Elec       q    Type
REMARK                         _______ _______ _______ _____ _____    ______ ____
ROOT
ATOM      1  N   UNL     1      -3.761  -1.139   6.127  0.00  0.00    +0.382 N 
ATOM      2  C   UNL     1      -2.855  -0.002   5.919  0.00  0.00    -0.076 C 
ATOM      3  C   UNL     1      -2.165  -0.142   4.559  0.00  0.00    +0.017 C 
ATOM      4  C   UNL     1      -3.222  -0.205   3.461  0.00  0.00    +0.109 C 
ATOM      5  C   UNL     1      -4.199  -1.346   3.726  0.00  0.00    +0.017 C 
ATOM      6  C   UNL     1      -4.823  -1.168   5.113  0.00  0.00    -0.076 C 
ATOM      7  C   UNL     1      -2.574  -0.372   2.107  0.00  0.00    +0.247 C 
ATOM      8  O   UNL     1      -1.881  -1.295   1.733  0.00  0.00    -0.273 OA
ATOM      9  N   UNL     1      -2.927   0.722   1.401  0.00  0.00    -0.220 N 
ATOM     10  C   UNL     1      -3.706   1.541   2.119  0.00  0.00    +0.310 C 
ATOM     11  O   UNL     1      -4.153   2.590   1.697  0.00  0.00    -0.252 OA
ATOM     12  N   UNL     1      -3.938   1.073   3.360  0.00  0.00    -0.285 N 
ATOM     13  H   UNL     1      -4.513   1.450   4.218  0.00  0.00    +0.151 HD
ATOM     14  H   UNL     1      -3.170  -2.061   6.018  0.00  0.00    -0.081 HD
ENDROOT
BRANCH   1  15
ATOM     15  C   UNL     1      -4.328  -1.120   7.482  0.00  0.00    -0.043 C 
BRANCH  15  21
ATOM     16  C   UNL     1      -5.423  -7.623   7.354  0.00  0.00    +0.056 C 
ATOM     17  C   UNL     1      -5.729  -6.944   8.690  0.00  0.00    +0.109 C 
ATOM     18  C   UNL     1      -4.574  -6.001   9.103  0.00  0.00    +0.086 C 
ATOM     19  C   UNL     1      -5.034  -4.673   8.533  0.00  0.00    -0.002 A 
ATOM     20  C   UNL     1      -4.371  -3.490   8.293  0.00  0.00    +0.009 A 
ATOM     21  C   UNL     1      -5.049  -2.417   7.744  0.00  0.00    -0.063 A 
ATOM     22  C   UNL     1      -6.393  -2.537   7.440  0.00  0.00    +0.005 A 
ATOM     23  C   UNL     1      -7.058  -3.722   7.676  0.00  0.00    +0.046 A 
ATOM     24  C   UNL     1      -6.384  -4.806   8.233  0.00  0.00    +0.125 A 
ATOM     25  O   UNL     1      -6.843  -6.045   8.561  0.00  0.00    -0.486 OA
ATOM     26  C   UNL     1      -5.993  -7.987   9.778  0.00  0.00    +0.056 C 
ENDBRANCH  15  21
ENDBRANCH   1  15
BRANCH   9  27
ATOM     27  C   UNL     1      -2.514   0.980   0.019  0.00  0.00    +0.153 C 
BRANCH  27  28
ATOM     28  C   UNL     1      -1.219   1.751   0.017  0.00  0.00    -0.030 A 
ATOM     29  C   UNL     1      -0.013   1.076   0.008  0.00  0.00    +0.005 A 
ATOM     30  C   UNL     1       1.175   1.783   0.000  0.00  0.00    +0.000 A 
ATOM     31  C   UNL     1       1.156   3.165   0.008  0.00  0.00    +0.000 A 
ATOM     32  C   UNL     1      -0.050   3.840   0.022  0.00  0.00    +0.000 A 
ATOM     33  C   UNL     1      -1.238   3.133   0.030  0.00  0.00    +0.005 A 
ENDBRANCH  27  28
ENDBRANCH   9  27
TORSDOF 4
