REMARK  Name = ZINC42663879
REMARK  8 active torsions:
REMARK  status: ('A' for Active; 'I' for Inactive)
REMARK    1  A    between atoms: C_1  and  C_2
REMARK    2  A    between atoms: C_2  and  N_3
REMARK    3  A    between atoms: N_3  and  C_4
REMARK    4  A    between atoms: C_4  and  C_5
REMARK    5  A    between atoms: C_12  and  C_14
REMARK    6  A    between atoms: C_14  and  C_15
REMARK    7  A    between atoms: C_15  and  C_17
REMARK    8  A    between atoms: C_15  and  N_22
REMARK                            x       y       z     vdW  Elec       q    Type
REMARK                         _______ _______ _______ _____ _____    ______ ____
ROOT
ATOM      1  C   UNL     1      -1.274  -0.497   2.484  0.00  0.00    +0.123 C 
ENDROOT
BRANCH   1   3
ATOM      2  N   UNL     1      -1.372  -0.511   0.012  0.00  0.00    -0.297 N 
ATOM      3  C   UNL     1      -1.993  -0.751   1.184  0.00  0.00    +0.218 C 
ATOM      4  O   UNL     1      -3.131  -1.171   1.193  0.00  0.00    -0.276 OA
BRANCH   2   6
ATOM      5  C   UNL     1      -0.019   1.526   0.010  0.00  0.00    +0.024 C 
ATOM      6  C   UNL     1       0.002  -0.004   0.002  0.00  0.00    +0.105 C 
ENDBRANCH   2   6
BRANCH   2   7
ATOM      7  C   UNL     1      -2.072  -0.758  -1.251  0.00  0.00    +0.143 C 
BRANCH   7   8
ATOM      8  C   UNL     1      -1.820  -2.175  -1.696  0.00  0.00    -0.027 A 
ATOM      9  C   UNL     1      -0.734  -2.464  -2.502  0.00  0.00    +0.005 A 
ATOM     10  C   UNL     1      -0.501  -3.764  -2.911  0.00  0.00    +0.003 A 
ATOM     11  C   UNL     1      -1.355  -4.777  -2.515  0.00  0.00    +0.038 A 
ATOM     12  C   UNL     1      -2.443  -4.489  -1.708  0.00  0.00    +0.124 A 
ATOM     13  C   UNL     1      -2.671  -3.187  -1.294  0.00  0.00    +0.043 A 
ATOM     14  F   UNL     1      -3.278  -5.478  -1.322  0.00  0.00    -0.205 F 
ENDBRANCH   7   8
ENDBRANCH   2   7
ENDBRANCH   1   3
BRANCH   1  15
ATOM     15  C   UNL     1      -2.196  -0.847   3.654  0.00  0.00    +0.120 C 
BRANCH  15  16
ATOM     16  N   UNL     1      -3.343   0.064   3.662  0.00  0.00    -0.292 N 
ATOM     17  C   UNL     1      -3.148   1.391   3.787  0.00  0.00    +0.298 C 
ATOM     18  O   UNL     1      -2.021   1.833   3.893  0.00  0.00    -0.253 OA
ATOM     19  N   UNL     1      -4.204   2.230   3.794  0.00  0.00    -0.313 N 
ATOM     20  H   UNL     1      -4.243  -0.289   3.577  0.00  0.00    +0.151 HD
ATOM     21  H   UNL     1      -5.103   1.877   3.709  0.00  0.00    +0.146 HD
ATOM     22  H   UNL     1      -4.064   3.185   3.884  0.00  0.00    +0.146 HD
ENDBRANCH  15  16
BRANCH  15  23
ATOM     23  C   UNL     1      -1.437  -0.711   4.949  0.00  0.00    +0.010 A 
ATOM     24  C   UNL     1      -0.860  -1.676   5.706  0.00  0.00    +0.013 A 
ATOM     25  C   UNL     1      -0.208  -1.315   6.870  0.00  0.00    +0.008 A 
ATOM     26  C   UNL     1      -0.166  -0.006   7.221  0.00  0.00    +0.045 A 
ATOM     27  S   UNL     1      -1.060   0.764   5.881  0.00  0.00    -0.100 S 
ENDBRANCH  15  23
ENDBRANCH   1  15
TORSDOF 7
