REMARK  Name = ZINC05787861
REMARK  7 active torsions:
REMARK  status: ('A' for Active; 'I' for Inactive)
REMARK    1  A    between atoms: C_1  and  C_2
REMARK    2  A    between atoms: C_3  and  C_20
REMARK    3  A    between atoms: C_4  and  C_10
REMARK    4  A    between atoms: C_13  and  C_16
REMARK    5  A    between atoms: C_16  and  O_18
REMARK    6  A    between atoms: O_18  and  C_19
REMARK    7  A    between atoms: C_20  and  C_22
REMARK                            x       y       z     vdW  Elec       q    Type
REMARK                         _______ _______ _______ _____ _____    ______ ____
ROOT
ATOM      1  C   UNL     1       0.493  -2.024   0.252  0.00  0.00    +0.061 C 
ATOM      2  C   UNL     1       0.816  -0.559   0.109  0.00  0.00    +0.015 C 
ATOM      3  C   UNL     1       2.099  -0.176  -0.086  0.00  0.00    +0.041 C 
ATOM      4  C   UNL     1       2.378   1.307  -0.224  0.00  0.00    +0.138 C 
ATOM      5  N   UNL     1       1.222   2.214  -0.135  0.00  0.00    -0.315 N 
ATOM      6  C   UNL     1       0.001   1.679   0.062  0.00  0.00    +0.135 C 
ATOM      7  S   UNL     1      -1.353   2.723   0.160  0.00  0.00    -0.019 S 
ATOM      8  N   UNL     1      -0.190   0.359   0.177  0.00  0.00    -0.300 N 
ATOM      9  H   UNL     1       1.337   3.174  -0.215  0.00  0.00    +0.149 HD
ATOM     10  H   UNL     1      -1.094   0.038   0.318  0.00  0.00    +0.154 HD
ENDROOT
BRANCH   4  11
ATOM     11  C   UNL     1       3.044   1.532  -1.557  0.00  0.00    -0.023 A 
ATOM     12  C   UNL     1       2.296   1.467  -2.720  0.00  0.00    +0.006 A 
ATOM     13  C   UNL     1       2.898   1.678  -3.943  0.00  0.00    +0.015 A 
ATOM     14  C   UNL     1       4.267   1.945  -4.007  0.00  0.00    +0.059 A 
ATOM     15  C   UNL     1       5.016   2.004  -2.830  0.00  0.00    +0.015 A 
ATOM     16  C   UNL     1       4.401   1.797  -1.613  0.00  0.00    +0.006 A 
BRANCH  14  17
ATOM     17  C   UNL     1       4.920   2.165  -5.314  0.00  0.00    +0.339 C 
ATOM     18  O   UNL     1       6.111   2.397  -5.367  0.00  0.00    -0.245 OA
BRANCH  17  19
ATOM     19  O   UNL     1       4.194   2.108  -6.447  0.00  0.00    -0.464 OA
ATOM     20  C   UNL     1       4.901   2.334  -7.695  0.00  0.00    +0.280 C 
ENDBRANCH  17  19
ENDBRANCH  14  17
ENDBRANCH   4  11
BRANCH   3  21
ATOM     21  C   UNL     1       3.144  -1.127  -0.157  0.00  0.00    +0.193 C 
ATOM     22  O   UNL     1       3.182  -1.921  -1.079  0.00  0.00    -0.287 OA
BRANCH  21  23
ATOM     23  C   UNL     1       4.190  -1.157   0.890  0.00  0.00    +0.022 A 
ATOM     24  C   UNL     1       4.105  -0.301   1.989  0.00  0.00    +0.012 A 
ATOM     25  C   UNL     1       5.082  -0.337   2.963  0.00  0.00    +0.001 A 
ATOM     26  C   UNL     1       6.148  -1.212   2.847  0.00  0.00    +0.000 A 
ATOM     27  C   UNL     1       6.239  -2.059   1.757  0.00  0.00    +0.001 A 
ATOM     28  C   UNL     1       5.268  -2.036   0.778  0.00  0.00    +0.012 A 
ENDBRANCH  21  23
ENDBRANCH   3  21
TORSDOF 5
