REMARK  Name = ZINC60101705
REMARK  4 active torsions:
REMARK  status: ('A' for Active; 'I' for Inactive)
REMARK    1  A    between atoms: C_1  and  C_2
REMARK    2  A    between atoms: C_5  and  C_25
REMARK    3  A    between atoms: C_6  and  N_8
REMARK    4  A    between atoms: C_9  and  C_11
REMARK                            x       y       z     vdW  Elec       q    Type
REMARK                         _______ _______ _______ _____ _____    ______ ____
ROOT
ATOM      1  C   UNL     1       0.280  -2.900   4.854  0.00  0.00    +0.169 C 
ATOM      2  C   UNL     1       1.471  -3.870   4.864  0.00  0.00    +0.056 C 
ATOM      3  C   UNL     1       2.581  -2.939   5.415  0.00  0.00    +0.100 C 
ATOM      4  C   UNL     1       1.834  -1.915   6.239  0.00  0.00    +0.221 C 
ATOM      5  O   UNL     1       2.354  -1.103   6.974  0.00  0.00    -0.275 OA
ATOM      6  N   UNL     1       0.496  -2.035   6.039  0.00  0.00    -0.246 N 
ATOM      7  C   UNL     1      -0.700  -1.651   6.680  0.00  0.00    +0.053 A 
ATOM      8  C   UNL     1      -0.866  -0.533   7.511  0.00  0.00    +0.044 A 
ATOM      9  C   UNL     1      -2.082  -0.260   8.096  0.00  0.00    +0.043 A 
ATOM     10  C   UNL     1      -3.179  -1.077   7.884  0.00  0.00    +0.021 A 
ATOM     11  C   UNL     1      -3.043  -2.185   7.063  0.00  0.00    +0.018 A 
ATOM     12  C   UNL     1      -1.830  -2.453   6.476  0.00  0.00    +0.032 A 
ATOM     13  S   UNL     1      -1.274  -3.732   5.365  0.00  0.00    -0.088 S 
ATOM     14 CL   UNL     1      -2.243   1.134   9.118  0.00  0.00    -0.083 Cl
ENDROOT
BRANCH   1  16
ATOM     15  N   UNL     1       0.052  -2.797   2.393  0.00  0.00    -0.283 N 
ATOM     16  C   UNL     1       0.150  -2.135   3.562  0.00  0.00    +0.252 C 
ATOM     17  O   UNL     1       0.134  -0.922   3.575  0.00  0.00    -0.272 OA
ATOM     18  H   UNL     1      -0.016  -3.765   2.388  0.00  0.00    +0.155 HD
BRANCH  15  24
ATOM     19  C   UNL     1       1.264   1.227  -0.158  0.00  0.00    +0.044 C 
ATOM     20  C   UNL     1       0.628  -0.137  -0.079  0.00  0.00    -0.049 A 
ATOM     21  C   UNL     1       0.039  -0.690  -1.201  0.00  0.00    +0.004 A 
ATOM     22  C   UNL     1      -0.546  -1.941  -1.133  0.00  0.00    +0.005 A 
ATOM     23  C   UNL     1      -0.543  -2.643   0.057  0.00  0.00    -0.029 A 
ATOM     24  C   UNL     1       0.048  -2.090   1.185  0.00  0.00    +0.037 A 
ATOM     25  C   UNL     1       0.639  -0.835   1.112  0.00  0.00    +0.027 A 
ATOM     26  C   UNL     1      -1.181  -4.006   0.131  0.00  0.00    +0.045 C 
ENDBRANCH  15  24
ENDBRANCH   1  16
TORSDOF 2
