REMARK  Name = ZINC21526063
REMARK  14 active torsions:
REMARK  status: ('A' for Active; 'I' for Inactive)
REMARK    1  A    between atoms: C_1  and  C_2
REMARK    2  A    between atoms: C_2  and  C_3
REMARK    3  A    between atoms: C_3  and  N_4
REMARK    4  A    between atoms: N_4  and  C_5
REMARK    5  A    between atoms: N_4  and  C_8
REMARK    6  A    between atoms: C_5  and  C_6
REMARK    7  A    between atoms: C_6  and  C_7
REMARK    8  A    between atoms: C_8  and  C_9
REMARK    9  A    between atoms: C_9  and  N_10
REMARK   10  A    between atoms: C_19  and  C_20
REMARK   11  A    between atoms: C_19  and  C_21
REMARK   12  A    between atoms: N_23  and  C_24
REMARK   13  A    between atoms: C_31  and  C_33
REMARK   14  A    between atoms: C_33  and  C_34
REMARK                            x       y       z     vdW  Elec       q    Type
REMARK                         _______ _______ _______ _____ _____    ______ ____
ROOT
ATOM      1  N   UNL     1       0.597  -1.018   1.756  0.00  0.00    -0.282 N 
ATOM      2  C   UNL     1      -0.016  -1.023   2.962  0.00  0.00    +0.264 C 
ATOM      3  O   UNL     1       0.589  -1.271   3.989  0.00  0.00    -0.268 OA
ATOM      4  C   UNL     1      -1.451  -0.714   2.965  0.00  0.00    +0.106 A 
ATOM      5  C   UNL     1      -2.305  -0.470   3.999  0.00  0.00    +0.048 A 
ATOM      6  C   UNL     1      -3.555  -0.216   3.448  0.00  0.00    +0.038 A 
ATOM      7  C   UNL     1      -3.478  -0.306   2.050  0.00  0.00    +0.057 A 
ATOM      8  N   UNL     1      -2.162  -0.625   1.772  0.00  0.00    -0.333 N 
ATOM      9  C   UNL     1      -1.528  -0.866   0.474  0.00  0.00    +0.157 C 
ATOM     10  C   UNL     1      -0.049  -0.487   0.561  0.00  0.00    +0.128 C 
ATOM     11  C   UNL     1       0.070   1.038   0.572  0.00  0.00    +0.043 C 
ATOM     12  C   UNL     1      -4.676  -0.066   1.361  0.00  0.00    +0.037 A 
ATOM     13  C   UNL     1      -5.804   0.227   2.041  0.00  0.00    -0.008 A 
ATOM     14  S   UNL     1      -5.258   0.188   3.739  0.00  0.00    -0.092 S 
ENDROOT
BRANCH  10  15
ATOM     15  C   UNL     1       0.661  -1.022  -0.655  0.00  0.00    +0.238 C 
ATOM     16  O   UNL     1       0.993  -0.268  -1.544  0.00  0.00    -0.273 OA
ATOM     17  N   UNL     1       0.927  -2.340  -0.755  0.00  0.00    -0.311 N 
ATOM     18  H   UNL     1       0.553  -3.036   0.010  0.00  0.00    +0.149 HD
BRANCH  17  19
ATOM     19  C   UNL     1       1.714  -2.845  -1.883  0.00  0.00    +0.073 C 
ATOM     20  C   UNL     1       0.809  -3.004  -3.106  0.00  0.00    +0.022 C 
ATOM     21  C   UNL     1       1.632  -3.532  -4.284  0.00  0.00    +0.002 C 
ATOM     22  C   UNL     1       2.237  -4.888  -3.916  0.00  0.00    +0.000 C 
ATOM     23  C   UNL     1       3.142  -4.729  -2.693  0.00  0.00    +0.002 C 
ATOM     24  C   UNL     1       2.319  -4.201  -1.516  0.00  0.00    +0.022 C 
ENDBRANCH  17  19
ENDBRANCH  10  15
BRANCH  13  25
ATOM     25  C   UNL     1      -7.181   0.515   1.501  0.00  0.00    +0.039 C 
ATOM     26  C   UNL     1      -7.969  -0.791   1.389  0.00  0.00    +0.009 C 
ENDBRANCH  13  25
BRANCH   1  27
ATOM     27  C   UNL     1       1.952  -1.564   1.646  0.00  0.00    +0.091 C 
BRANCH  27  28
ATOM     28  C   UNL     1       2.971  -0.458   1.925  0.00  0.00    -0.060 C 
BRANCH  28  29
ATOM     29  N   UNL     1       4.330  -0.983   1.730  0.00  0.00    +0.381 N 
ATOM     30  H   UNL     1       4.381  -1.972   2.208  0.00  0.00    -0.082 HD
BRANCH  29  31
ATOM     31  C   UNL     1       4.628  -1.155   0.302  0.00  0.00    -0.079 C 
BRANCH  31  33
ATOM     32  C   UNL     1       4.875   0.028  -1.884  0.00  0.00    +0.002 C 
ATOM     33  C   UNL     1       4.655   0.213  -0.382  0.00  0.00    -0.022 C 
ENDBRANCH  31  33
ENDBRANCH  29  31
BRANCH  29  34
ATOM     34  C   UNL     1       5.326  -0.117   2.375  0.00  0.00    -0.079 C 
BRANCH  34  35
ATOM     35  C   UNL     1       6.704  -0.777   2.294  0.00  0.00    -0.022 C 
ATOM     36  C   UNL     1       7.716   0.057   3.082  0.00  0.00    +0.002 C 
ENDBRANCH  34  35
ENDBRANCH  29  34
ENDBRANCH  28  29
ENDBRANCH  27  28
ENDBRANCH   1  27
TORSDOF 10
