REMARK  Name = ZINC05663856
REMARK  8 active torsions:
REMARK  status: ('A' for Active; 'I' for Inactive)
REMARK    1  A    between atoms: C_1  and  C_2
REMARK    2  A    between atoms: C_5  and  S_8
REMARK    3  A    between atoms: S_8  and  O_11
REMARK    4  A    between atoms: O_11  and  C_12
REMARK    5  A    between atoms: C_12  and  C_13
REMARK    6  A    between atoms: C_13  and  O_14
REMARK    7  A    between atoms: O_14  and  C_15
REMARK    8  A    between atoms: C_18  and  O_31
REMARK                            x       y       z     vdW  Elec       q    Type
REMARK                         _______ _______ _______ _____ _____    ______ ____
ROOT
ATOM      1  C   UNL     1       1.213  -0.696  -0.013  0.00  0.00    +0.132 A 
ATOM      2  C   UNL     1       0.002  -0.004   0.002  0.00  0.00    +0.050 A 
ATOM      3  C   UNL     1      -0.017   1.372   0.010  0.00  0.00    +0.050 A 
ATOM      4  C   UNL     1       1.175   2.097   0.002  0.00  0.00    +0.129 A 
ATOM      5  C   UNL     1       2.397   1.422  -0.013  0.00  0.00    +0.078 A 
ATOM      6  C   UNL     1       2.416   0.011  -0.020  0.00  0.00    +0.078 A 
ATOM      7  C   UNL     1       3.707  -0.702  -0.033  0.00  0.00    +0.198 C 
ATOM      8  O   UNL     1       3.750  -1.890  -0.286  0.00  0.00    -0.286 OA
ATOM      9  C   UNL     1       4.948   0.046   0.265  0.00  0.00    +0.033 A 
ATOM     10  C   UNL     1       6.132  -0.629   0.541  0.00  0.00    +0.012 A 
ATOM     11  C   UNL     1       7.283   0.088   0.818  0.00  0.00    +0.001 A 
ATOM     12  C   UNL     1       7.265   1.471   0.823  0.00  0.00    +0.001 A 
ATOM     13  C   UNL     1       6.095   2.158   0.551  0.00  0.00    +0.012 A 
ATOM     14  C   UNL     1       4.929   1.453   0.271  0.00  0.00    +0.033 A 
ATOM     15  C   UNL     1       3.668   2.170  -0.020  0.00  0.00    +0.198 C 
ATOM     16  O   UNL     1       3.679   3.361  -0.264  0.00  0.00    -0.286 OA
ENDROOT
BRANCH   4  17
ATOM     17  O   UNL     1       1.147   3.452   0.009  0.00  0.00    -0.506 OA
ATOM     18  H   UNL     1       1.147   3.842   0.894  0.00  0.00    +0.292 HD
ENDBRANCH   4  17
BRANCH   1  19
ATOM     19  O   UNL     1       1.222  -2.052  -0.021  0.00  0.00    -0.489 OA
BRANCH  19  20
ATOM     20  C   UNL     1      -0.047  -2.709  -0.013  0.00  0.00    +0.259 C 
BRANCH  20  21
ATOM     21  C   UNL     1       0.163  -4.224  -0.023  0.00  0.00    +0.234 C 
BRANCH  21  22
ATOM     22  O   UNL     1       0.803  -4.625   1.190  0.00  0.00    -0.231 OA
BRANCH  22  23
ATOM     23  S   UNL     1       1.063  -6.121   1.288  0.00  0.00    +0.112 S 
ATOM     24  O   UNL     1       1.503  -6.371   2.616  0.00  0.00    -0.142 OA
ATOM     25  O   UNL     1      -0.071  -6.768   0.727  0.00  0.00    -0.142 OA
BRANCH  23  30
ATOM     26  C   UNL     1       5.724  -7.366  -2.335  0.00  0.00    +0.044 C 
ATOM     27  C   UNL     1       4.560  -7.055  -1.430  0.00  0.00    -0.050 A 
ATOM     28  C   UNL     1       4.783  -6.721  -0.108  0.00  0.00    +0.005 A 
ATOM     29  C   UNL     1       3.715  -6.436   0.723  0.00  0.00    +0.030 A 
ATOM     30  C   UNL     1       2.424  -6.484   0.230  0.00  0.00    +0.117 A 
ATOM     31  C   UNL     1       2.201  -6.823  -1.092  0.00  0.00    +0.030 A 
ATOM     32  C   UNL     1       3.269  -7.104  -1.923  0.00  0.00    +0.005 A 
ENDBRANCH  23  30
ENDBRANCH  22  23
ENDBRANCH  21  22
ENDBRANCH  20  21
ENDBRANCH  19  20
ENDBRANCH   1  19
TORSDOF 7
