REMARK  Name = ZINC30721925
REMARK  8 active torsions:
REMARK  status: ('A' for Active; 'I' for Inactive)
REMARK    1  A    between atoms: C_3  and  O_33
REMARK    2  A    between atoms: C_6  and  C_7
REMARK    3  A    between atoms: N_8  and  N_9
REMARK    4  A    between atoms: C_10  and  C_12
REMARK    5  A    between atoms: C_12  and  S_13
REMARK    6  A    between atoms: S_13  and  C_14
REMARK    7  A    between atoms: C_17  and  C_26
REMARK    8  A    between atoms: N_18  and  C_19
REMARK                            x       y       z     vdW  Elec       q    Type
REMARK                         _______ _______ _______ _____ _____    ______ ____
ROOT
ATOM      1  C   UNL     1      -0.205   1.420  -1.697  0.00  0.00    +0.197 A 
ATOM      2  N   UNL     1      -0.291   0.214  -2.214  0.00  0.00    -0.122 NA
ATOM      3  N   UNL     1       0.855  -0.159  -2.659  0.00  0.00    -0.128 NA
ATOM      4  C   UNL     1       1.745   0.785  -2.455  0.00  0.00    +0.169 A 
ATOM      5  N   UNL     1       1.094   1.827  -1.832  0.00  0.00    -0.270 N 
ENDROOT
BRANCH   5   6
ATOM      6  C   UNL     1       1.647   3.048  -1.422  0.00  0.00    +0.051 A 
ATOM      7  C   UNL     1       2.143   3.938  -2.365  0.00  0.00    +0.028 A 
ATOM      8  C   UNL     1       2.682   5.144  -1.959  0.00  0.00    +0.022 A 
ATOM      9  C   UNL     1       2.738   5.459  -0.613  0.00  0.00    +0.041 A 
ATOM     10  C   UNL     1       2.249   4.572   0.329  0.00  0.00    +0.022 A 
ATOM     11  C   UNL     1       1.704   3.368  -0.072  0.00  0.00    +0.028 A 
ATOM     12 CL   UNL     1       3.423   6.971  -0.106  0.00  0.00    -0.084 Cl
ENDBRANCH   5   6
BRANCH   4  13
ATOM     13  C   UNL     1       3.176   0.738  -2.824  0.00  0.00    +0.020 A 
ATOM     14  C   UNL     1       4.069   1.664  -2.284  0.00  0.00    +0.013 A 
ATOM     15  C   UNL     1       5.404   1.613  -2.628  0.00  0.00    +0.021 A 
ATOM     16  C   UNL     1       5.856   0.651  -3.516  0.00  0.00    +0.041 A 
ATOM     17  C   UNL     1       4.973  -0.268  -4.059  0.00  0.00    +0.021 A 
ATOM     18  C   UNL     1       3.638  -0.229  -3.719  0.00  0.00    +0.013 A 
ATOM     19 CL   UNL     1       7.536   0.597  -3.951  0.00  0.00    -0.084 Cl
ENDBRANCH   4  13
BRANCH   1  20
ATOM     20  S   UNL     1      -1.520   2.343  -0.973  0.00  0.00    -0.076 S 
BRANCH  20  21
ATOM     21  C   UNL     1      -2.879   1.164  -1.173  0.00  0.00    +0.174 C 
BRANCH  21  23
ATOM     22  N   UNL     1      -5.293   1.052  -0.647  0.00  0.00    -0.206 N 
ATOM     23  C   UNL     1      -4.145   1.756  -0.608  0.00  0.00    +0.242 C 
ATOM     24  O   UNL     1      -4.129   2.865  -0.118  0.00  0.00    -0.273 OA
ATOM     25  H   UNL     1      -5.307   0.046  -1.092  0.00  0.00    +0.177 HD
BRANCH  22  27
ATOM     26  C   UNL     1      -7.548   0.882  -0.052  0.00  0.00    +0.138 C 
ATOM     27  N   UNL     1      -6.470   1.602  -0.122  0.00  0.00    -0.188 NA
BRANCH  26  33
ATOM     28  C   UNL     1      -8.599  -1.363  -0.262  0.00  0.00    +0.013 A 
ATOM     29  C   UNL     1      -8.505  -2.738  -0.274  0.00  0.00    +0.046 A 
ATOM     30  C   UNL     1      -7.277  -3.354  -0.075  0.00  0.00    +0.117 A 
ATOM     31  C   UNL     1      -6.136  -2.589   0.132  0.00  0.00    +0.046 A 
ATOM     32  C   UNL     1      -6.220  -1.213   0.140  0.00  0.00    +0.013 A 
ATOM     33  C   UNL     1      -7.454  -0.589  -0.060  0.00  0.00    -0.005 A 
BRANCH  30  34
ATOM     34  O   UNL     1      -7.190  -4.710  -0.083  0.00  0.00    -0.507 OA
ATOM     35  H   UNL     1      -6.217  -5.200   0.074  0.00  0.00    +0.292 HD
ENDBRANCH  30  34
ENDBRANCH  26  33
ENDBRANCH  22  27
ENDBRANCH  21  23
ENDBRANCH  20  21
ENDBRANCH   1  20
TORSDOF 8
