REMARK  Name = ZINC03846860
REMARK  7 active torsions:
REMARK  status: ('A' for Active; 'I' for Inactive)
REMARK    1  A    between atoms: C_1  and  C_2
REMARK    2  A    between atoms: C_2  and  O_4
REMARK    3  A    between atoms: O_4  and  C_5
REMARK    4  A    between atoms: C_9  and  C_31
REMARK    5  A    between atoms: C_21  and  C_30
REMARK    6  A    between atoms: C_26  and  C_27
REMARK    7  A    between atoms: C_26  and  O_29
REMARK                            x       y       z     vdW  Elec       q    Type
REMARK                         _______ _______ _______ _____ _____    ______ ____
ROOT
ATOM      1  C   UNL     1       0.088   5.965   2.390  0.00  0.00    +0.177 C 
ATOM      2  C   UNL     1       0.259   5.102   3.659  0.00  0.00    +0.045 C 
ATOM      3  C   UNL     1      -0.127   3.683   3.258  0.00  0.00    +0.011 C 
ATOM      4  C   UNL     1      -1.426   3.634   2.477  0.00  0.00    -0.026 C 
ATOM      5  C   UNL     1      -2.210   4.902   2.354  0.00  0.00    -0.001 C 
ATOM      6  C   UNL     1      -1.412   6.199   2.259  0.00  0.00    +0.048 C 
ATOM      7  C   UNL     1      -3.280   4.921   1.266  0.00  0.00    +0.004 C 
ATOM      8  C   UNL     1      -2.843   4.259  -0.035  0.00  0.00    +0.004 C 
ATOM      9  C   UNL     1      -2.444   2.823   0.303  0.00  0.00    -0.004 C 
ATOM     10  C   UNL     1      -1.194   2.900   1.176  0.00  0.00    -0.001 C 
ATOM     11  C   UNL     1      -0.579   1.518   1.321  0.00  0.00    +0.005 C 
ATOM     12  C   UNL     1       0.016   1.058  -0.023  0.00  0.00    +0.011 C 
ATOM     13  C   UNL     1      -0.717   1.667  -1.187  0.00  0.00    +0.011 C 
ATOM     14  C   UNL     1      -2.195   1.944  -0.877  0.00  0.00    +0.002 C 
ATOM     15  C   UNL     1      -2.754   2.367  -2.236  0.00  0.00    +0.008 C 
ATOM     16  C   UNL     1      -2.000   1.453  -3.240  0.00  0.00    +0.049 C 
ATOM     17  C   UNL     1      -0.848   0.783  -2.446  0.00  0.00    +0.132 C 
ATOM     18  C   UNL     1       0.005   2.944  -1.655  0.00  0.00    +0.015 C 
ATOM     19  C   UNL     1      -2.314   2.715   3.312  0.00  0.00    +0.012 C 
ENDROOT
BRANCH  17  20
ATOM     20  C   UNL     1      -1.197  -0.602  -2.128  0.00  0.00    -0.070 C 
ATOM     21  C   UNL     1      -1.477  -1.714  -1.874  0.00  0.00    +0.007 C 
ENDBRANCH  17  20
BRANCH  17  22
ATOM     22  O   UNL     1       0.365   0.839  -3.198  0.00  0.00    -0.376 OA
ATOM     23  H   UNL     1       0.353   0.305  -4.004  0.00  0.00    +0.211 HD
ENDBRANCH  17  22
BRANCH   1  24
ATOM     24  O   UNL     1       0.779   7.231   2.551  0.00  0.00    -0.462 OA
BRANCH  24  26
ATOM     25  C   UNL     1       2.813   8.589   2.210  0.00  0.00    +0.136 C 
ATOM     26  C   UNL     1       2.033   7.306   2.078  0.00  0.00    +0.304 C 
ATOM     27  O   UNL     1       2.536   6.345   1.547  0.00  0.00    -0.251 OA
ENDBRANCH  24  26
ENDBRANCH   1  24
TORSDOF 4
