REMARK  Name = ZINC63540924
REMARK  12 active torsions:
REMARK  status: ('A' for Active; 'I' for Inactive)
REMARK    1  A    between atoms: C_1  and  C_2
REMARK    2  A    between atoms: C_15  and  C_30
REMARK    3  A    between atoms: N_17  and  C_18
REMARK    4  A    between atoms: C_18  and  C_19
REMARK    5  A    between atoms: C_19  and  C_21
REMARK    6  A    between atoms: C_19  and  O_29
REMARK    7  A    between atoms: C_21  and  O_22
REMARK    8  A    between atoms: O_22  and  C_23
REMARK    9  A    between atoms: C_33  and  O_38
REMARK   10  A    between atoms: C_34  and  O_36
REMARK   11  A    between atoms: O_36  and  C_37
REMARK   12  A    between atoms: O_38  and  C_39
REMARK                            x       y       z     vdW  Elec       q    Type
REMARK                         _______ _______ _______ _____ _____    ______ ____
ROOT
ATOM      1  C   UNL     1       0.303   1.996   0.003  0.00  0.00    -0.013 C 
ATOM      2  C   UNL     1       0.045   0.496  -0.155  0.00  0.00    -0.067 C 
ATOM      3  C   UNL     1      -1.474   0.239  -0.162  0.00  0.00    +0.018 C 
ATOM      4  C   UNL     1      -1.643  -1.259  -0.097  0.00  0.00    -0.041 C 
ATOM      5  C   UNL     1      -2.370  -2.110  -0.807  0.00  0.00    -0.001 A 
ATOM      6  C   UNL     1      -3.399  -1.900  -1.838  0.00  0.00    +0.010 A 
ATOM      7  C   UNL     1      -3.933  -3.022  -2.389  0.00  0.00    +0.001 A 
ATOM      8  C   UNL     1      -3.550  -4.316  -2.023  0.00  0.00    +0.002 A 
ATOM      9  C   UNL     1      -2.621  -4.602  -1.076  0.00  0.00    +0.026 A 
ATOM     10  C   UNL     1      -1.997  -3.504  -0.417  0.00  0.00    +0.043 A 
ATOM     11  N   UNL     1      -1.110  -3.489   0.536  0.00  0.00    -0.379 N 
ATOM     12  C   UNL     1      -0.872  -2.099   0.917  0.00  0.00    +0.097 C 
ATOM     13  C   UNL     1       0.594  -1.683   0.783  0.00  0.00    -0.010 C 
ATOM     14  N   UNL     1       0.674  -0.223   0.955  0.00  0.00    +0.389 N 
ATOM     15  H   UNL     1      -0.681  -4.266   0.926  0.00  0.00    +0.160 HD
ATOM     16  H   UNL     1       0.214   0.034   1.816  0.00  0.00    -0.080 HD
ENDROOT
BRANCH  13  17
ATOM     17  C   UNL     1       1.415  -2.367   1.845  0.00  0.00    -0.055 A 
ATOM     18  C   UNL     1       1.425  -1.871   3.136  0.00  0.00    +0.006 A 
ATOM     19  C   UNL     1       2.177  -2.494   4.114  0.00  0.00    +0.049 A 
ATOM     20  C   UNL     1       2.922  -3.620   3.802  0.00  0.00    +0.161 A 
ATOM     21  C   UNL     1       2.912  -4.120   2.503  0.00  0.00    +0.162 A 
ATOM     22  C   UNL     1       2.153  -3.492   1.529  0.00  0.00    +0.051 A 
BRANCH  21  23
ATOM     23  O   UNL     1       3.643  -5.224   2.192  0.00  0.00    -0.491 OA
ATOM     24  C   UNL     1       3.584  -5.680   0.839  0.00  0.00    +0.277 C 
ENDBRANCH  21  23
BRANCH  20  25
ATOM     25  O   UNL     1       3.663  -4.235   4.763  0.00  0.00    -0.491 OA
ATOM     26  C   UNL     1       3.626  -3.666   6.073  0.00  0.00    +0.277 C 
ENDBRANCH  20  25
ENDBRANCH  13  17
BRANCH  14  27
ATOM     27  C   UNL     1       2.088   0.168   1.037  0.00  0.00    -0.042 C 
BRANCH  27  28
ATOM     28  C   UNL     1       2.764  -0.080  -0.313  0.00  0.00    +0.135 C 
BRANCH  28  29
ATOM     29  O   UNL     1       2.809  -1.484  -0.573  0.00  0.00    -0.390 OA
ATOM     30  H   UNL     1       3.387  -1.977   0.025  0.00  0.00    +0.210 HD
ENDBRANCH  28  29
BRANCH  28  31
ATOM     31  C   UNL     1       4.189   0.478  -0.279  0.00  0.00    +0.258 C 
BRANCH  31  32
ATOM     32  O   UNL     1       4.780   0.352  -1.574  0.00  0.00    -0.489 OA
BRANCH  32  33
ATOM     33  C   UNL     1       6.054   0.804  -1.717  0.00  0.00    +0.121 A 
ATOM     34  C   UNL     1       6.723   1.352  -0.632  0.00  0.00    +0.045 A 
ATOM     35  C   UNL     1       8.018   1.810  -0.780  0.00  0.00    +0.004 A 
ATOM     36  C   UNL     1       8.647   1.723  -2.008  0.00  0.00    +0.000 A 
ATOM     37  C   UNL     1       7.982   1.178  -3.091  0.00  0.00    +0.004 A 
ATOM     38  C   UNL     1       6.689   0.713  -2.947  0.00  0.00    +0.045 A 
ENDBRANCH  32  33
ENDBRANCH  31  32
ENDBRANCH  28  31
ENDBRANCH  27  28
ENDBRANCH  14  27
TORSDOF 9
