REMARK  Name = ZINC08557877
REMARK  10 active torsions:
REMARK  status: ('A' for Active; 'I' for Inactive)
REMARK    1  A    between atoms: C_1  and  C_2
REMARK    2  A    between atoms: C_5  and  C_8
REMARK    3  A    between atoms: C_15  and  N_37
REMARK    4  A    between atoms: C_16  and  C_35
REMARK    5  A    between atoms: C_17  and  C_19
REMARK    6  A    between atoms: C_22  and  O_27
REMARK    7  A    between atoms: C_23  and  O_25
REMARK    8  A    between atoms: O_25  and  C_26
REMARK    9  A    between atoms: O_27  and  C_28
REMARK   10  A    between atoms: C_28  and  C_30
REMARK                            x       y       z     vdW  Elec       q    Type
REMARK                         _______ _______ _______ _____ _____    ______ ____
ROOT
ATOM      1  C   UNL     1      -0.206  -4.825   0.086  0.00  0.00    +0.100 A 
ATOM      2  C   UNL     1       0.695  -5.425   0.971  0.00  0.00    +0.054 A 
ATOM      3  C   UNL     1       0.586  -6.779   0.830  0.00  0.00    +0.223 A 
ATOM      4  N   UNL     1      -0.352  -7.020  -0.109  0.00  0.00    -0.246 N 
ATOM      5  H   UNL     1      -0.641  -7.894  -0.416  0.00  0.00    +0.192 HD
ATOM      6  N   UNL     1      -0.840  -5.784  -0.561  0.00  0.00    -0.171 NA
ATOM      7  O   UNL     1       1.333  -7.652   1.551  0.00  0.00    -0.423 OA
ATOM      8  C   UNL     1       2.392  -7.160   2.225  0.00  0.00    +0.200 C 
ATOM      9  C   UNL     1       2.601  -5.842   2.439  0.00  0.00    +0.098 C 
ATOM     10  C   UNL     1       1.651  -4.782   1.941  0.00  0.00    +0.102 C 
ENDROOT
BRANCH   1  15
ATOM     11  C   UNL     1      -1.022   0.836  -0.597  0.00  0.00    +0.044 C 
ATOM     12  C   UNL     1      -0.808  -0.645  -0.418  0.00  0.00    -0.050 A 
ATOM     13  C   UNL     1       0.475  -1.146  -0.292  0.00  0.00    +0.004 A 
ATOM     14  C   UNL     1       0.676  -2.502  -0.128  0.00  0.00    +0.010 A 
ATOM     15  C   UNL     1      -0.416  -3.366  -0.090  0.00  0.00    +0.003 A 
ATOM     16  C   UNL     1      -1.706  -2.856  -0.218  0.00  0.00    +0.010 A 
ATOM     17  C   UNL     1      -1.897  -1.498  -0.376  0.00  0.00    +0.004 A 
ENDBRANCH   1  15
BRANCH  10  18
ATOM     18  C   UNL     1       0.883  -4.201   3.101  0.00  0.00    -0.031 A 
ATOM     19  C   UNL     1       0.157  -5.032   3.933  0.00  0.00    +0.008 A 
ATOM     20  C   UNL     1      -0.549  -4.504   4.998  0.00  0.00    +0.050 A 
ATOM     21  C   UNL     1      -0.529  -3.139   5.234  0.00  0.00    +0.173 A 
ATOM     22  C   UNL     1       0.203  -2.302   4.397  0.00  0.00    +0.163 A 
ATOM     23  C   UNL     1       0.912  -2.838   3.334  0.00  0.00    +0.054 A 
BRANCH  22  24
ATOM     24  O   UNL     1       0.226  -0.961   4.624  0.00  0.00    -0.491 OA
ATOM     25  C   UNL     1       1.086  -0.177   3.794  0.00  0.00    +0.277 C 
ENDBRANCH  22  24
BRANCH  21  26
ATOM     26  O   UNL     1      -1.223  -2.618   6.281  0.00  0.00    -0.418 OA
BRANCH  26  27
ATOM     27  C   UNL     1      -2.425  -2.060   6.029  0.00  0.00    +0.351 C 
ATOM     28  O   UNL     1      -2.898  -2.113   4.909  0.00  0.00    -0.244 OA
BRANCH  27  29
ATOM     29  C   UNL     1      -3.160  -1.389   7.102  0.00  0.00    +0.097 A 
ATOM     30  C   UNL     1      -4.398  -0.763   7.057  0.00  0.00    +0.022 A 
ATOM     31  C   UNL     1      -4.834  -0.217   8.239  0.00  0.00    +0.008 A 
ATOM     32  C   UNL     1      -4.051  -0.321   9.342  0.00  0.00    +0.046 A 
ATOM     33  S   UNL     1      -2.702  -1.170   8.811  0.00  0.00    -0.090 S 
ENDBRANCH  27  29
ENDBRANCH  26  27
ENDBRANCH  21  26
ENDBRANCH  10  18
BRANCH   8  34
ATOM     34  N   UNL     1       3.312  -8.049   2.722  0.00  0.00    -0.328 N 
ATOM     35  H   UNL     1       3.190  -9.002   2.584  0.00  0.00    +0.145 HD
ATOM     36  H   UNL     1       4.085  -7.725   3.211  0.00  0.00    +0.145 HD
ENDBRANCH   8  34
BRANCH   9  37
ATOM     37  C   UNL     1       3.767  -5.437   3.166  0.00  0.00    +0.101 C 
ATOM     38  N   UNL     1       4.691  -5.116   3.743  0.00  0.00    -0.191 NA
ENDBRANCH   9  37
TORSDOF 8
