REMARK  Name = ZINC13498710
REMARK  14 active torsions:
REMARK  status: ('A' for Active; 'I' for Inactive)
REMARK    1  A    between atoms: C_1  and  C_2
REMARK    2  A    between atoms: C_2  and  C_3
REMARK    3  A    between atoms: C_2  and  C_4
REMARK    4  A    between atoms: C_4  and  C_6
REMARK    5  A    between atoms: C_4  and  N_69
REMARK    6  A    between atoms: N_10  and  C_11
REMARK    7  A    between atoms: C_11  and  C_12
REMARK    8  A    between atoms: C_11  and  C_13
REMARK    9  A    between atoms: C_11  and  C_14
REMARK   10  A    between atoms: C_15  and  C_16
REMARK   11  A    between atoms: C_15  and  N_69
REMARK   12  A    between atoms: C_21  and  O_28
REMARK   13  A    between atoms: O_28  and  C_29
REMARK   14  A    between atoms: C_30  and  N_69
REMARK                            x       y       z     vdW  Elec       q    Type
REMARK                         _______ _______ _______ _____ _____    ______ ____
ROOT
ATOM      1  N   UNL     1      -0.643  -1.177  -1.169  0.00  0.00    +0.391 N 
ATOM      2  H   UNL     1      -0.028  -1.935  -0.851  0.00  0.00    -0.080 HD
ENDROOT
BRANCH   1   3
ATOM      3  C   UNL     1      -0.089  -0.599  -2.412  0.00  0.00    -0.067 C 
ATOM      4  C   UNL     1      -0.341  -1.562  -3.591  0.00  0.00    -0.015 C 
ATOM      5  C   UNL     1       0.949  -1.462  -4.444  0.00  0.00    -0.002 C 
ATOM      6  C   UNL     1       2.060  -1.349  -3.371  0.00  0.00    -0.002 C 
ATOM      7  C   UNL     1       1.437  -0.464  -2.272  0.00  0.00    -0.015 C 
ENDBRANCH   1   3
BRANCH   1   8
ATOM      8  C   UNL     1      -0.711  -0.140  -0.117  0.00  0.00    +0.006 C 
BRANCH   8   9
ATOM      9  C   UNL     1       0.673   0.406   0.122  0.00  0.00    +0.139 A 
ATOM     10  N   UNL     1       1.735  -0.278   0.474  0.00  0.00    -0.115 NA
ATOM     11  N   UNL     1       2.721   0.544   0.577  0.00  0.00    -0.023 NA
ATOM     12  N   UNL     1       2.317   1.735   0.300  0.00  0.00    -0.043 NA
ATOM     13  N   UNL     1       1.060   1.691   0.014  0.00  0.00    -0.226 N 
BRANCH  13  14
ATOM     14  C   UNL     1       0.213   2.825  -0.363  0.00  0.00    +0.059 C 
ATOM     15  C   UNL     1      -0.930   2.966   0.644  0.00  0.00    +0.036 C 
ATOM     16  C   UNL     1       1.049   4.107  -0.367  0.00  0.00    +0.036 C 
ATOM     17  C   UNL     1      -0.365   2.589  -1.760  0.00  0.00    +0.036 C 
ENDBRANCH  13  14
ENDBRANCH   8   9
BRANCH   8  19
ATOM     18  C   UNL     1      -0.335  -1.944   1.571  0.00  0.00    +0.006 C 
ATOM     19  C   UNL     1      -1.238  -0.775   1.171  0.00  0.00    -0.024 C 
ATOM     20  C   UNL     1      -1.244   0.270   2.289  0.00  0.00    +0.006 C 
ENDBRANCH   8  19
ENDBRANCH   1   8
BRANCH   1  21
ATOM     21  C   UNL     1      -1.991  -1.726  -1.424  0.00  0.00    -0.036 C 
BRANCH  21  22
ATOM     22  C   UNL     1      -2.899  -0.662  -1.984  0.00  0.00    +0.001 A 
ATOM     23  C   UNL     1      -3.138  -0.611  -3.319  0.00  0.00    +0.017 A 
ATOM     24  C   UNL     1      -4.027   0.431  -3.830  0.00  0.00    -0.001 A 
ATOM     25  C   UNL     1      -4.315   0.530  -5.197  0.00  0.00    +0.013 A 
ATOM     26  C   UNL     1      -5.143   1.516  -5.646  0.00  0.00    +0.046 A 
ATOM     27  C   UNL     1      -5.707   2.428  -4.755  0.00  0.00    +0.122 A 
ATOM     28  C   UNL     1      -5.436   2.347  -3.400  0.00  0.00    +0.072 A 
ATOM     29  C   UNL     1      -4.594   1.349  -2.925  0.00  0.00    +0.053 A 
ATOM     30  N   UNL     1      -4.306   1.246  -1.580  0.00  0.00    -0.322 N 
ATOM     31  H   UNL     1      -4.697   1.879  -0.957  0.00  0.00    +0.169 HD
ATOM     32  C   UNL     1      -3.491   0.281  -1.119  0.00  0.00    +0.251 A 
ATOM     33  O   UNL     1      -3.258   0.221   0.076  0.00  0.00    -0.268 OA
BRANCH  27  34
ATOM     34  O   UNL     1      -6.529   3.404  -5.219  0.00  0.00    -0.495 OA
ATOM     35  C   UNL     1      -6.769   3.433  -6.628  0.00  0.00    +0.277 C 
ENDBRANCH  27  34
ENDBRANCH  21  22
ENDBRANCH   1  21
TORSDOF 8
