REMARK  Name = ZINC12956052
REMARK  6 active torsions:
REMARK  status: ('A' for Active; 'I' for Inactive)
REMARK    1  A    between atoms: C_1  and  C_2
REMARK    2  A    between atoms: C_4  and  O_28
REMARK    3  A    between atoms: C_6  and  O_27
REMARK    4  A    between atoms: C_8  and  O_26
REMARK    5  A    between atoms: C_10  and  O_13
REMARK    6  A    between atoms: O_13  and  C_14
REMARK                            x       y       z     vdW  Elec       q    Type
REMARK                         _______ _______ _______ _____ _____    ______ ____
ROOT
ATOM      1  C   UNL     1       2.165  -0.022  -1.250  0.00  0.00    +0.041 C 
ATOM      2  C   UNL     1       0.712  -0.499  -1.261  0.00  0.00    +0.150 C 
ATOM      3  C   UNL     1       0.002  -0.004   0.002  0.00  0.00    +0.174 C 
ATOM      4  C   UNL     1      -1.435  -0.535   0.013  0.00  0.00    +0.180 C 
ATOM      5  C   UNL     1      -1.402  -2.064  -0.074  0.00  0.00    +0.214 C 
ATOM      6  C   UNL     1      -0.638  -2.480  -1.334  0.00  0.00    +0.339 C 
ATOM      7  O   UNL     1       0.679  -1.927  -1.295  0.00  0.00    -0.334 OA
ENDROOT
BRANCH   5   8
ATOM      8  O   UNL     1      -0.747  -2.595   1.079  0.00  0.00    -0.383 OA
ATOM      9  H   UNL     1      -0.690  -3.560   1.091  0.00  0.00    +0.210 HD
ENDBRANCH   5   8
BRANCH   4  10
ATOM     10  O   UNL     1      -2.082  -0.139   1.224  0.00  0.00    -0.386 OA
ATOM     11  H   UNL     1      -2.997  -0.443   1.298  0.00  0.00    +0.210 HD
ENDBRANCH   4  10
BRANCH   3  12
ATOM     12  O   UNL     1      -0.017   1.425   0.010  0.00  0.00    -0.387 OA
ATOM     13  H   UNL     1       0.861   1.830   0.004  0.00  0.00    +0.210 HD
ENDBRANCH   3  12
BRANCH   6  14
ATOM     14  O   UNL     1      -1.325  -1.994  -2.490  0.00  0.00    -0.459 OA
BRANCH  14  15
ATOM     15  C   UNL     1      -0.898  -2.450  -3.700  0.00  0.00    +0.150 A 
ATOM     16  C   UNL     1       0.112  -3.311  -3.920  0.00  0.00    +0.130 A 
ATOM     17  N   UNL     1       0.245  -3.537  -5.270  0.00  0.00    -0.358 N 
ATOM     18  H   UNL     1       0.903  -4.123  -5.675  0.00  0.00    +0.165 HD
ATOM     19  C   UNL     1      -0.693  -2.803  -5.961  0.00  0.00    +0.052 A 
ATOM     20  C   UNL     1      -1.449  -2.091  -5.011  0.00  0.00    +0.061 A 
ATOM     21  C   UNL     1      -2.485  -1.253  -5.431  0.00  0.00    +0.068 A 
ATOM     22  C   UNL     1      -2.759  -1.129  -6.776  0.00  0.00    +0.037 A 
ATOM     23  C   UNL     1      -2.012  -1.832  -7.712  0.00  0.00    +0.019 A 
ATOM     24  C   UNL     1      -0.987  -2.662  -7.314  0.00  0.00    +0.027 A 
ATOM     25 BR   UNL     1      -4.159   0.005  -7.349  0.00  0.00    -0.049 Br
ATOM     26 CL   UNL     1      -3.421  -0.372  -4.264  0.00  0.00    -0.082 Cl
ENDBRANCH  14  15
ENDBRANCH   6  14
TORSDOF 5
