REMARK  Name = ZINC08919913
REMARK  11 active torsions:
REMARK  status: ('A' for Active; 'I' for Inactive)
REMARK    1  A    between atoms: C_1  and  C_2
REMARK    2  A    between atoms: C_2  and  C_3
REMARK    3  A    between atoms: C_3  and  C_4
REMARK    4  A    between atoms: C_3  and  C_5
REMARK    5  A    between atoms: C_3  and  C_6
REMARK    6  A    between atoms: C_15  and  O_31
REMARK    7  A    between atoms: C_17  and  C_20
REMARK    8  A    between atoms: C_22  and  O_29
REMARK    9  A    between atoms: C_23  and  O_27
REMARK   10  A    between atoms: O_27  and  C_28
REMARK   11  A    between atoms: O_29  and  C_30
REMARK                            x       y       z     vdW  Elec       q    Type
REMARK                         _______ _______ _______ _____ _____    ______ ____
ROOT
ATOM      1  C   UNL     1       5.471   1.174  -7.039  0.00  0.00    -0.000 C 
ATOM      2  C   UNL     1       5.657  -0.248  -6.502  0.00  0.00    +0.009 C 
ATOM      3  C   UNL     1       4.989  -0.379  -5.132  0.00  0.00    +0.037 C 
ATOM      4  C   UNL     1       5.497   0.739  -4.229  0.00  0.00    -0.023 A 
ATOM      5  C   UNL     1       6.087   1.839  -4.752  0.00  0.00    -0.004 A 
ATOM      6  S   UNL     1       6.511   2.840  -3.350  0.00  0.00    -0.078 S 
ATOM      7  C   UNL     1       5.921   1.821  -2.109  0.00  0.00    +0.080 A 
ATOM      8  C   UNL     1       5.392   0.713  -2.781  0.00  0.00    +0.068 A 
ATOM      9  C   UNL     1       4.785  -0.361  -1.952  0.00  0.00    +0.220 C 
ATOM     10  N   UNL     1       4.602  -0.118  -0.683  0.00  0.00    -0.223 NA
ATOM     11  C   UNL     1       4.856   1.163  -0.037  0.00  0.00    +0.224 C 
ATOM     12  N   UNL     1       5.901   1.931  -0.739  0.00  0.00    -0.313 N 
ATOM     13  C   UNL     1       6.326   2.135  -6.200  0.00  0.00    +0.046 C 
ATOM     14  H   UNL     1       6.538   2.483  -0.261  0.00  0.00    +0.149 HD
ENDROOT
BRANCH  11  15
ATOM     15  C   UNL     1       3.582   1.967  -0.021  0.00  0.00    -0.001 A 
ATOM     16  C   UNL     1       2.359   1.321  -0.013  0.00  0.00    +0.056 A 
ATOM     17  C   UNL     1       1.186   2.059   0.002  0.00  0.00    +0.163 A 
ATOM     18  C   UNL     1       1.241   3.449   0.003  0.00  0.00    +0.175 A 
ATOM     19  C   UNL     1       2.470   4.090   0.000  0.00  0.00    +0.063 A 
ATOM     20  C   UNL     1       3.638   3.348  -0.014  0.00  0.00    +0.026 A 
ATOM     21 BR   UNL     1       2.551   5.980   0.009  0.00  0.00    -0.046 Br
BRANCH  18  22
ATOM     22  O   UNL     1       0.093   4.177   0.012  0.00  0.00    -0.490 OA
ATOM     23  C   UNL     1      -0.446   4.523   1.290  0.00  0.00    +0.277 C 
ENDBRANCH  18  22
BRANCH  17  24
ATOM     24  O   UNL     1      -0.017   1.425   0.010  0.00  0.00    -0.491 OA
ATOM     25  C   UNL     1       0.002  -0.004   0.002  0.00  0.00    +0.277 C 
ENDBRANCH  17  24
ENDBRANCH  11  15
BRANCH   1  26
ATOM     26  C   UNL     1       5.917   1.233  -8.501  0.00  0.00    -0.032 C 
ATOM     27  C   UNL     1       7.393   0.842  -8.600  0.00  0.00    +0.011 C 
ATOM     28  C   UNL     1       5.076   0.261  -9.331  0.00  0.00    +0.011 C 
BRANCH  26  30
ATOM     29  C   UNL     1       6.176   2.713 -10.497  0.00  0.00    +0.004 C 
ATOM     30  C   UNL     1       5.729   2.654  -9.035  0.00  0.00    +0.003 C 
ENDBRANCH  26  30
ENDBRANCH   1  26
BRANCH   9  31
ATOM     31  O   UNL     1       4.434  -1.549  -2.494  0.00  0.00    -0.492 OA
ATOM     32  H   UNL     1       4.049  -2.172  -1.863  0.00  0.00    +0.294 HD
ENDBRANCH   9  31
TORSDOF 6
