REMARK  Name = ZINC66784287
REMARK  7 active torsions:
REMARK  status: ('A' for Active; 'I' for Inactive)
REMARK    1  A    between atoms: C_1  and  C_2
REMARK    2  A    between atoms: C_3  and  C_13
REMARK    3  A    between atoms: C_6  and  O_11
REMARK    4  A    between atoms: O_11  and  C_12
REMARK    5  A    between atoms: N_15  and  N_16
REMARK    6  A    between atoms: C_17  and  C_19
REMARK    7  A    between atoms: C_19  and  C_20
REMARK                            x       y       z     vdW  Elec       q    Type
REMARK                         _______ _______ _______ _____ _____    ______ ____
ROOT
ATOM      1  C   UNL     1      -2.507  -0.371   0.012  0.00  0.00    +0.264 C 
ATOM      2  O   UNL     1      -3.094  -0.187  -1.037  0.00  0.00    -0.269 OA
ATOM      3  N   UNL     1      -3.146  -0.180   1.184  0.00  0.00    -0.230 N 
ATOM      4  H   UNL     1      -2.678  -0.326   2.021  0.00  0.00    +0.173 HD
ENDROOT
BRANCH   1   7
ATOM      5  C   UNL     1      -0.018   1.503   0.010  0.00  0.00    +0.087 C 
ATOM      6  C   UNL     1       0.002  -0.004   0.002  0.00  0.00    +0.115 A 
ATOM      7  C   UNL     1      -1.101  -0.801   0.003  0.00  0.00    +0.087 A 
ATOM      8  C   UNL     1      -0.593  -2.188  -0.007  0.00  0.00    +0.036 A 
ATOM      9  C   UNL     1      -1.195  -3.441  -0.011  0.00  0.00    +0.058 A 
ATOM     10  C   UNL     1      -0.407  -4.577  -0.021  0.00  0.00    +0.121 A 
ATOM     11  C   UNL     1       0.979  -4.465  -0.027  0.00  0.00    +0.049 A 
ATOM     12  C   UNL     1       1.582  -3.225  -0.023  0.00  0.00    +0.050 A 
ATOM     13  C   UNL     1       0.805  -2.073  -0.013  0.00  0.00    +0.136 A 
ATOM     14  O   UNL     1       1.107  -0.758  -0.013  0.00  0.00    -0.459 OA
BRANCH  10  15
ATOM     15  O   UNL     1      -0.988  -5.807  -0.024  0.00  0.00    -0.495 OA
ATOM     16  C   UNL     1      -0.114  -6.937  -0.035  0.00  0.00    +0.277 C 
ENDBRANCH  10  15
ENDBRANCH   1   7
BRANCH   3  17
ATOM     17  N   UNL     1      -4.485   0.230   1.193  0.00  0.00    -0.234 N 
ATOM     18  C   UNL     1      -5.124   0.421   2.364  0.00  0.00    +0.233 C 
ATOM     19  O   UNL     1      -4.539   0.238   3.410  0.00  0.00    -0.274 OA
ATOM     20  H   UNL     1      -4.953   0.376   0.356  0.00  0.00    +0.173 HD
BRANCH  18  21
ATOM     21  C   UNL     1      -6.565   0.862   2.374  0.00  0.00    +0.135 C 
BRANCH  21  22
ATOM     22  C   UNL     1      -7.038   1.001   3.798  0.00  0.00    -0.003 A 
ATOM     23  C   UNL     1      -7.693  -0.048   4.414  0.00  0.00    +0.007 A 
ATOM     24  C   UNL     1      -8.127   0.080   5.720  0.00  0.00    +0.000 A 
ATOM     25  C   UNL     1      -7.907   1.257   6.411  0.00  0.00    +0.003 A 
ATOM     26  C   UNL     1      -7.252   2.307   5.797  0.00  0.00    +0.038 A 
ATOM     27  C   UNL     1      -6.812   2.178   4.490  0.00  0.00    +0.127 A 
ATOM     28  F   UNL     1      -6.167   3.203   3.890  0.00  0.00    -0.205 F 
ENDBRANCH  21  22
ENDBRANCH  18  21
ENDBRANCH   3  17
TORSDOF 5
