REMARK  Name = ZINC17222358
REMARK  2 active torsions:
REMARK  status: ('A' for Active; 'I' for Inactive)
REMARK    1  A    between atoms: C_4  and  C_7
REMARK    2  A    between atoms: N_12  and  C_13
REMARK                            x       y       z     vdW  Elec       q    Type
REMARK                         _______ _______ _______ _____ _____    ______ ____
ROOT
ATOM      1  C   UNL     1       3.698  -0.688  -0.037  0.00  0.00    +0.080 A 
ATOM      2  C   UNL     1       3.727  -2.056  -0.050  0.00  0.00    +0.076 A 
ATOM      3  S   UNL     1       5.491  -2.349  -0.067  0.00  0.00    -0.060 S 
ATOM      4  C   UNL     1       6.002  -0.637  -0.056  0.00  0.00    +0.163 A 
ATOM      5  N   UNL     1       4.838  -0.015  -0.045  0.00  0.00    -0.225 NA
ATOM      6  N   UNL     1       7.283  -0.103  -0.061  0.00  0.00    -0.299 N 
ATOM      7  H   UNL     1       7.408   0.859  -0.052  0.00  0.00    +0.154 HD
ENDROOT
BRANCH   6   8
ATOM      8  C   UNL     1       8.355  -0.922  -0.077  0.00  0.00    +0.092 C 
ATOM      9  C   UNL     1       9.633  -0.389  -0.082  0.00  0.00    +0.120 C 
ATOM     10  C   UNL     1      10.866  -1.222  -0.105  0.00  0.00    +0.205 C 
ATOM     11  O   UNL     1      10.905  -2.323  -0.625  0.00  0.00    -0.286 OA
ATOM     12  C   UNL     1      12.043  -0.605   0.554  0.00  0.00    +0.065 A 
ATOM     13  C   UNL     1      13.196  -1.359   0.773  0.00  0.00    +0.015 A 
ATOM     14  C   UNL     1      14.290  -0.775   1.375  0.00  0.00    +0.001 A 
ATOM     15  C   UNL     1      14.243   0.556   1.759  0.00  0.00    +0.004 A 
ATOM     16  C   UNL     1      13.106   1.308   1.551  0.00  0.00    +0.047 A 
ATOM     17  C   UNL     1      11.988   0.737   0.951  0.00  0.00    +0.143 A 
ATOM     18  O   UNL     1      10.873   1.488   0.788  0.00  0.00    -0.422 OA
ATOM     19  C   UNL     1       9.908   1.070  -0.070  0.00  0.00    +0.349 C 
ATOM     20  O   UNL     1       9.301   1.843  -0.786  0.00  0.00    -0.244 OA
ENDBRANCH   6   8
BRANCH   1  24
ATOM     21  C   UNL     1      -0.017   1.379   0.010  0.00  0.00    +0.000 A 
ATOM     22  C   UNL     1       1.169   2.092   0.002  0.00  0.00    +0.001 A 
ATOM     23  C   UNL     1       2.377   1.427  -0.013  0.00  0.00    +0.010 A 
ATOM     24  C   UNL     1       2.402   0.033  -0.021  0.00  0.00    +0.001 A 
ATOM     25  C   UNL     1       1.205  -0.680  -0.013  0.00  0.00    +0.010 A 
ATOM     26  C   UNL     1       0.002  -0.004   0.002  0.00  0.00    +0.001 A 
ENDBRANCH   1  24
TORSDOF 2
