REMARK  Name = ZINC59894324
REMARK  11 active torsions:
REMARK  status: ('A' for Active; 'I' for Inactive)
REMARK    1  A    between atoms: C_1  and  O_2
REMARK    2  A    between atoms: O_2  and  C_3
REMARK    3  A    between atoms: C_5  and  C_14
REMARK    4  A    between atoms: C_8  and  O_9
REMARK    5  A    between atoms: O_9  and  C_10
REMARK    6  A    between atoms: C_10  and  C_11
REMARK    7  A    between atoms: C_15  and  C_16
REMARK    8  A    between atoms: N_18  and  C_19
REMARK    9  A    between atoms: C_19  and  C_20
REMARK   10  A    between atoms: C_20  and  C_22
REMARK   11  A    between atoms: C_20  and  N_29
REMARK                            x       y       z     vdW  Elec       q    Type
REMARK                         _______ _______ _______ _____ _____    ______ ____
ROOT
ATOM      1  C   UNL     1       3.777   0.541  -6.220  0.00  0.00    +0.237 C 
ATOM      2  O   UNL     1       3.946   1.733  -6.041  0.00  0.00    -0.271 OA
ATOM      3  N   UNL     1       4.247  -0.046  -7.338  0.00  0.00    -0.313 N 
ATOM      4  H   UNL     1       4.112  -0.996  -7.480  0.00  0.00    +0.149 HD
ENDROOT
BRANCH   1   6
ATOM      5  C   UNL     1       2.592   0.335  -4.101  0.00  0.00    +0.013 C 
ATOM      6  C   UNL     1       3.063  -0.254  -5.221  0.00  0.00    +0.068 C 
BRANCH   5   9
ATOM      7  C   UNL     1       0.713  -0.612  -0.996  0.00  0.00    +0.162 A 
ATOM      8  C   UNL     1       1.386   0.144  -1.935  0.00  0.00    +0.057 A 
ATOM      9  C   UNL     1       1.875  -0.464  -3.097  0.00  0.00    -0.021 A 
ATOM     10  C   UNL     1       1.679  -1.835  -3.300  0.00  0.00    +0.012 A 
ATOM     11  C   UNL     1       1.006  -2.581  -2.358  0.00  0.00    +0.050 A 
ATOM     12  C   UNL     1       0.526  -1.978  -1.203  0.00  0.00    +0.163 A 
BRANCH   7  14
ATOM     13  C   UNL     1       0.463   1.378   0.282  0.00  0.00    +0.277 C 
ATOM     14  O   UNL     1       0.236  -0.025   0.135  0.00  0.00    -0.491 OA
ENDBRANCH   7  14
BRANCH  12  15
ATOM     15  O   UNL     1      -0.131  -2.720  -0.275  0.00  0.00    -0.479 OA
BRANCH  15  16
ATOM     16  C   UNL     1      -0.287  -4.114  -0.550  0.00  0.00    +0.324 C 
BRANCH  16  17
ATOM     17  C   UNL     1      -1.035  -4.769   0.582  0.00  0.00    +0.248 C 
ATOM     18  O   UNL     1      -1.399  -4.108   1.531  0.00  0.00    -0.272 OA
ATOM     19  N   UNL     1      -1.300  -6.090   0.540  0.00  0.00    -0.327 N 
ATOM     20  H   UNL     1      -1.009  -6.619  -0.220  0.00  0.00    +0.145 HD
ATOM     21  H   UNL     1      -1.782  -6.512   1.268  0.00  0.00    +0.145 HD
ENDBRANCH  16  17
ENDBRANCH  15  16
ENDBRANCH  12  15
ENDBRANCH   5   9
ENDBRANCH   1   6
BRANCH   3  22
ATOM     22  C   UNL     1       4.962   0.750  -8.339  0.00  0.00    +0.094 C 
BRANCH  22  23
ATOM     23  C   UNL     1       5.502  -0.172  -9.434  0.00  0.00    -0.020 C 
BRANCH  23  24
ATOM     24  C   UNL     1       6.545  -1.088  -8.849  0.00  0.00    -0.058 A 
ATOM     25  C   UNL     1       7.833  -0.627  -8.643  0.00  0.00    +0.002 A 
ATOM     26  C   UNL     1       8.791  -1.467  -8.107  0.00  0.00    +0.002 A 
ATOM     27  C   UNL     1       8.462  -2.769  -7.777  0.00  0.00    +0.020 A 
ATOM     28  C   UNL     1       7.175  -3.231  -7.982  0.00  0.00    +0.041 A 
ATOM     29  C   UNL     1       6.215  -2.388  -8.514  0.00  0.00    +0.022 A 
ATOM     30 CL   UNL     1       6.761  -4.865  -7.568  0.00  0.00    -0.084 Cl
ENDBRANCH  23  24
BRANCH  23  31
ATOM     31  N   UNL     1       6.103   0.637 -10.502  0.00  0.00    +0.385 N 
ATOM     32  C   UNL     1       6.620  -0.243 -11.582  0.00  0.00    -0.078 C 
ATOM     33  C   UNL     1       6.681   0.700 -12.809  0.00  0.00    -0.020 C 
ATOM     34  C   UNL     1       5.421   1.578 -12.634  0.00  0.00    -0.020 C 
ATOM     35  C   UNL     1       5.075   1.491 -11.136  0.00  0.00    -0.078 C 
ATOM     36  H   UNL     1       6.848   1.207 -10.131  0.00  0.00    -0.081 HD
ENDBRANCH  23  31
ENDBRANCH  22  23
ENDBRANCH   3  22
TORSDOF 10
