REMARK  Name = ZINC32984916
REMARK  6 active torsions:
REMARK  status: ('A' for Active; 'I' for Inactive)
REMARK    1  A    between atoms: C_1  and  C_2
REMARK    2  A    between atoms: C_2  and  C_26
REMARK    3  A    between atoms: N_17  and  C_18
REMARK    4  A    between atoms: C_18  and  C_19
REMARK    5  A    between atoms: C_19  and  C_20
REMARK    6  A    between atoms: N_28  and  C_29
REMARK                            x       y       z     vdW  Elec       q    Type
REMARK                         _______ _______ _______ _____ _____    ______ ____
ROOT
ATOM      1  C   UNL     1      -0.974  -1.507  -2.393  0.00  0.00    +0.040 C 
ATOM      2  C   UNL     1      -1.919  -0.777  -1.437  0.00  0.00    +0.096 C 
ATOM      3  C   UNL     1      -3.140  -1.655  -1.161  0.00  0.00    -0.042 C 
ATOM      4  N   UNL     1      -3.950  -1.036  -0.101  0.00  0.00    +0.392 N 
ATOM      5  C   UNL     1      -5.242  -1.725   0.027  0.00  0.00    -0.042 C 
ATOM      6  C   UNL     1      -6.024  -1.169   1.187  0.00  0.00    -0.061 A 
ATOM      7  C   UNL     1      -7.387  -1.423   1.246  0.00  0.00    +0.002 A 
ATOM      8  C   UNL     1      -8.143  -0.936   2.294  0.00  0.00    +0.000 A 
ATOM      9  C   UNL     1      -7.540  -0.193   3.291  0.00  0.00    +0.000 A 
ATOM     10  C   UNL     1      -6.184   0.062   3.233  0.00  0.00    +0.004 A 
ATOM     11  C   UNL     1      -5.425  -0.425   2.180  0.00  0.00    -0.047 A 
ATOM     12  C   UNL     1      -3.950  -0.116   2.153  0.00  0.00    +0.029 C 
ATOM     13  C   UNL     1      -3.236  -1.062   1.183  0.00  0.00    +0.024 C 
ATOM     14  C   UNL     1      -1.812  -0.620   1.009  0.00  0.00    +0.203 C 
ATOM     15  O   UNL     1      -1.165  -0.359   2.001  0.00  0.00    -0.277 OA
ATOM     16  N   UNL     1      -1.223  -0.496  -0.184  0.00  0.00    -0.290 N 
ATOM     17  H   UNL     1      -4.134   0.013  -0.379  0.00  0.00    -0.080 HD
ENDROOT
BRANCH   2  18
ATOM     18  C   UNL     1      -2.365   0.519  -2.064  0.00  0.00    +0.235 C 
ATOM     19  O   UNL     1      -2.330   0.652  -3.269  0.00  0.00    -0.274 OA
ATOM     20  N   UNL     1      -2.803   1.529  -1.287  0.00  0.00    -0.311 N 
ATOM     21  H   UNL     1      -2.909   1.381  -0.202  0.00  0.00    +0.149 HD
BRANCH  20  22
ATOM     22  C   UNL     1      -3.136   2.823  -1.886  0.00  0.00    +0.073 C 
ATOM     23  C   UNL     1      -1.838   3.635  -2.077  0.00  0.00    +0.022 C 
ATOM     24  C   UNL     1      -2.085   4.693  -3.118  0.00  0.00    +0.002 C 
ATOM     25  C   UNL     1      -2.498   6.042  -2.499  0.00  0.00    +0.000 C 
ATOM     26  C   UNL     1      -3.497   5.886  -1.337  0.00  0.00    +0.000 C 
ATOM     27  C   UNL     1      -4.555   4.854  -1.621  0.00  0.00    +0.002 C 
ATOM     28  C   UNL     1      -4.096   3.506  -1.031  0.00  0.00    +0.022 C 
ENDBRANCH  20  22
ENDBRANCH   2  18
BRANCH  16  29
ATOM     29  C   UNL     1       0.177  -0.067  -0.236  0.00  0.00    +0.113 C 
BRANCH  29  30
ATOM     30  C   UNL     1       1.090  -1.279  -0.038  0.00  0.00    +0.054 C 
BRANCH  30  31
ATOM     31  C   UNL     1       2.528  -0.854  -0.183  0.00  0.00    -0.046 A 
ATOM     32  C   UNL     1       3.139  -0.894  -1.423  0.00  0.00    +0.004 A 
ATOM     33  C   UNL     1       4.457  -0.499  -1.557  0.00  0.00    +0.000 A 
ATOM     34  C   UNL     1       5.167  -0.074  -0.449  0.00  0.00    +0.000 A 
ATOM     35  C   UNL     1       4.558  -0.039   0.791  0.00  0.00    +0.000 A 
ATOM     36  C   UNL     1       3.238  -0.429   0.924  0.00  0.00    +0.004 A 
ENDBRANCH  30  31
ENDBRANCH  29  30
ENDBRANCH  16  29
TORSDOF 5
