REMARK  Name = ZINC04162549
REMARK  6 active torsions:
REMARK  status: ('A' for Active; 'I' for Inactive)
REMARK    1  A    between atoms: C_1  and  N_2
REMARK    2  A    between atoms: C_6  and  C_23
REMARK    3  A    between atoms: C_8  and  C_16
REMARK    4  A    between atoms: C_10  and  C_11
REMARK    5  A    between atoms: C_10  and  O_15
REMARK    6  A    between atoms: C_16  and  C_18
REMARK                            x       y       z     vdW  Elec       q    Type
REMARK                         _______ _______ _______ _____ _____    ______ ____
ROOT
ATOM      1  C   UNL     1       3.253   7.285   0.623  0.00  0.00    +0.137 C 
ATOM      2  N   UNL     1       2.525   6.029   0.423  0.00  0.00    -0.253 N 
ATOM      3  C   UNL     1       2.809   5.267  -0.644  0.00  0.00    +0.305 C 
ATOM      4  O   UNL     1       3.660   5.649  -1.424  0.00  0.00    -0.253 OA
ATOM      5  N   UNL     1       2.191   4.101  -0.884  0.00  0.00    -0.292 N 
ATOM      6  C   UNL     1       1.150   3.592   0.010  0.00  0.00    +0.120 C 
ATOM      7  C   UNL     1       1.415   4.101   1.431  0.00  0.00    +0.145 C 
ATOM      8  C   UNL     1       1.503   5.631   1.393  0.00  0.00    +0.245 C 
ATOM      9  H   UNL     1       2.440   3.584  -1.667  0.00  0.00    +0.151 HD
ENDROOT
BRANCH   6  10
ATOM     10  C   UNL     1       1.171   2.086   0.002  0.00  0.00    -0.026 A 
ATOM     11  C   UNL     1      -0.017   1.378   0.010  0.00  0.00    +0.007 A 
ATOM     12  C   UNL     1       0.002  -0.004   0.002  0.00  0.00    +0.020 A 
ATOM     13  C   UNL     1       1.210  -0.679  -0.013  0.00  0.00    +0.041 A 
ATOM     14  C   UNL     1       2.398   0.030  -0.021  0.00  0.00    +0.020 A 
ATOM     15  C   UNL     1       2.378   1.412  -0.013  0.00  0.00    +0.007 A 
ATOM     16 CL   UNL     1       1.234  -2.415  -0.022  0.00  0.00    -0.084 Cl
ENDBRANCH   6  10
BRANCH   8  17
ATOM     17  C   UNL     1       0.150   6.212   0.977  0.00  0.00    +0.436 C 
ATOM     18  F   UNL     1      -0.196   5.728  -0.289  0.00  0.00    -0.166 F 
ATOM     19  F   UNL     1      -0.826   5.831   1.904  0.00  0.00    -0.166 F 
ATOM     20  F   UNL     1       0.235   7.608   0.936  0.00  0.00    -0.166 F 
ENDBRANCH   8  17
BRANCH   8  21
ATOM     21  O   UNL     1       1.856   6.121   2.688  0.00  0.00    -0.364 OA
ATOM     22  H   UNL     1       1.935   7.084   2.736  0.00  0.00    +0.212 HD
ENDBRANCH   8  21
BRANCH   7  23
ATOM     23  C   UNL     1       2.714   3.531   1.938  0.00  0.00    +0.180 C 
ATOM     24  O   UNL     1       3.741   4.171   1.831  0.00  0.00    -0.291 OA
BRANCH  23  25
ATOM     25  C   UNL     1       2.738   2.253   2.539  0.00  0.00    +0.055 A 
ATOM     26  C   UNL     1       3.818   1.549   3.062  0.00  0.00    +0.019 A 
ATOM     27  C   UNL     1       3.558   0.315   3.595  0.00  0.00    +0.008 A 
ATOM     28  C   UNL     1       2.283  -0.161   3.580  0.00  0.00    +0.046 A 
ATOM     29  S   UNL     1       1.391   1.116   2.818  0.00  0.00    -0.094 S 
ENDBRANCH  23  25
ENDBRANCH   7  23
TORSDOF 5
