REMARK  Name = ZINC35264132
REMARK  13 active torsions:
REMARK  status: ('A' for Active; 'I' for Inactive)
REMARK    1  A    between atoms: C_1  and  C_2
REMARK    2  A    between atoms: C_3  and  C_35
REMARK    3  A    between atoms: C_8  and  C_23
REMARK    4  A    between atoms: C_10  and  C_11
REMARK    5  A    between atoms: C_11  and  C_12
REMARK    6  A    between atoms: C_27  and  O_29
REMARK    7  A    between atoms: O_29  and  C_30
REMARK    8  A    between atoms: C_30  and  C_31
REMARK    9  A    between atoms: C_31  and  C_32
REMARK   10  A    between atoms: C_32  and  C_33
REMARK   11  A    between atoms: C_32  and  C_34
REMARK   12  A    between atoms: C_35  and  O_37
REMARK   13  A    between atoms: O_37  and  C_38
REMARK                            x       y       z     vdW  Elec       q    Type
REMARK                         _______ _______ _______ _____ _____    ______ ____
ROOT
ATOM      1  C   UNL     1       0.295   1.551   0.158  0.00  0.00    +0.067 C 
ATOM      2  C   UNL     1       0.205   0.048   0.111  0.00  0.00    +0.062 A 
ATOM      3  C   UNL     1       0.118  -0.644  -1.091  0.00  0.00    +0.120 A 
ATOM      4  S   UNL     1       0.043  -2.326  -0.497  0.00  0.00    -0.045 S 
ATOM      5  C   UNL     1       0.126  -1.996   1.151  0.00  0.00    +0.169 A 
ATOM      6  N   UNL     1       0.210  -0.678   1.199  0.00  0.00    -0.229 NA
ATOM      7  N   UNL     1       0.113  -2.891   2.204  0.00  0.00    -0.232 N 
ATOM      8  C   UNL     1       0.029  -4.352   2.094  0.00  0.00    +0.152 C 
ATOM      9  C   UNL     1       0.050  -4.882   3.509  0.00  0.00    +0.077 C 
ATOM     10  C   UNL     1       0.138  -3.807   4.328  0.00  0.00    +0.250 C 
ATOM     11  O   UNL     1       0.182  -3.852   5.679  0.00  0.00    -0.282 OA
ATOM     12  C   UNL     1       0.182  -2.577   3.510  0.00  0.00    +0.293 C 
ATOM     13  O   UNL     1       0.267  -1.448   3.953  0.00  0.00    -0.266 OA
ENDROOT
BRANCH   8  14
ATOM     14  C   UNL     1      -1.255  -4.747   1.411  0.00  0.00    -0.019 A 
ATOM     15  C   UNL     1      -2.445  -4.145   1.776  0.00  0.00    +0.006 A 
ATOM     16  C   UNL     1      -3.624  -4.505   1.151  0.00  0.00    +0.004 A 
ATOM     17  C   UNL     1      -3.617  -5.469   0.161  0.00  0.00    +0.045 A 
ATOM     18  C   UNL     1      -2.424  -6.074  -0.206  0.00  0.00    +0.121 A 
ATOM     19  C   UNL     1      -1.241  -5.706   0.418  0.00  0.00    +0.051 A 
BRANCH  18  20
ATOM     20  O   UNL     1      -2.414  -7.022  -1.180  0.00  0.00    -0.492 OA
BRANCH  20  21
ATOM     21  C   UNL     1      -3.668  -7.346  -1.783  0.00  0.00    +0.229 C 
BRANCH  21  22
ATOM     22  C   UNL     1      -3.459  -8.425  -2.848  0.00  0.00    +0.044 C 
BRANCH  22  23
ATOM     23  C   UNL     1      -4.802  -8.772  -3.494  0.00  0.00    -0.014 C 
ATOM     24  C   UNL     1      -5.334  -7.553  -4.250  0.00  0.00    +0.007 C 
ATOM     25  C   UNL     1      -4.613  -9.936  -4.469  0.00  0.00    +0.007 C 
ENDBRANCH  22  23
ENDBRANCH  21  22
ENDBRANCH  20  21
ENDBRANCH  18  20
ENDBRANCH   8  14
BRANCH   9  26
ATOM     26  C   UNL     1      -0.013  -6.288   3.917  0.00  0.00    +0.195 C 
ATOM     27  O   UNL     1      -0.977  -6.700   4.534  0.00  0.00    -0.287 OA
BRANCH  26  28
ATOM     28  C   UNL     1       1.095  -7.206   3.578  0.00  0.00    +0.022 A 
ATOM     29  C   UNL     1       2.257  -6.713   2.981  0.00  0.00    +0.012 A 
ATOM     30  C   UNL     1       3.287  -7.575   2.667  0.00  0.00    +0.001 A 
ATOM     31  C   UNL     1       3.172  -8.926   2.943  0.00  0.00    +0.000 A 
ATOM     32  C   UNL     1       2.023  -9.422   3.535  0.00  0.00    +0.001 A 
ATOM     33  C   UNL     1       0.988  -8.570   3.859  0.00  0.00    +0.012 A 
ENDBRANCH  26  28
ENDBRANCH   9  26
BRANCH   3  34
ATOM     34  C   UNL     1       0.094  -0.135  -2.461  0.00  0.00    +0.347 C 
ATOM     35  O   UNL     1       0.156   1.062  -2.667  0.00  0.00    -0.244 OA
BRANCH  34  36
ATOM     36  O   UNL     1       0.004  -0.994  -3.498  0.00  0.00    -0.464 OA
ATOM     37  C   UNL     1      -0.014  -0.428  -4.810  0.00  0.00    +0.280 C 
ENDBRANCH  34  36
ENDBRANCH   3  34
TORSDOF 9
