REMARK  Name = ZINC35552646
REMARK  5 active torsions:
REMARK  status: ('A' for Active; 'I' for Inactive)
REMARK    1  A    between atoms: C_1  and  C_2
REMARK    2  A    between atoms: C_2  and  C_3
REMARK    3  A    between atoms: C_3  and  C_5
REMARK    4  A    between atoms: C_3  and  C_6
REMARK    5  A    between atoms: C_26  and  C_28
REMARK                            x       y       z     vdW  Elec       q    Type
REMARK                         _______ _______ _______ _____ _____    ______ ____
ROOT
ATOM      1  C   UNL     1       0.429  -3.355  -1.474  0.00  0.00    +0.135 A 
ATOM      2  N   UNL     1       1.716  -3.657  -1.484  0.00  0.00    -0.216 NA
ATOM      3  C   UNL     1       2.150  -4.897  -1.327  0.00  0.00    +0.133 A 
ATOM      4  C   UNL     1       1.203  -5.942  -1.141  0.00  0.00    +0.051 A 
ATOM      5  C   UNL     1       1.452  -7.376  -0.948  0.00  0.00    -0.025 A 
ATOM      6  C   UNL     1       0.368  -8.163  -0.797  0.00  0.00    -0.004 A 
ATOM      7  S   UNL     1      -1.023  -7.065  -0.889  0.00  0.00    -0.073 S 
ATOM      8  C   UNL     1      -0.147  -5.544  -1.141  0.00  0.00    +0.114 A 
ATOM      9  N   UNL     1      -0.494  -4.281  -1.300  0.00  0.00    -0.224 NA
ATOM     10  C   UNL     1       0.331  -9.647  -0.605  0.00  0.00    +0.043 C 
ATOM     11  C   UNL     1       1.315 -10.040   0.504  0.00  0.00    +0.005 C 
ATOM     12  C   UNL     1       2.676 -10.307  -0.133  0.00  0.00    +0.001 C 
ATOM     13  C   UNL     1       2.875  -9.392  -1.340  0.00  0.00    +0.005 C 
ATOM     14  C   UNL     1       2.873  -7.930  -0.910  0.00  0.00    +0.037 C 
ATOM     15  N   UNL     1       3.505  -5.173  -1.344  0.00  0.00    -0.312 N 
ATOM     16  C   UNL     1       4.218  -5.344  -2.618  0.00  0.00    +0.125 C 
ATOM     17  C   UNL     1       5.399  -4.366  -2.655  0.00  0.00    +0.126 C 
ATOM     18  N   UNL     1       6.152  -4.493  -1.399  0.00  0.00    -0.298 N 
ATOM     19  C   UNL     1       5.440  -4.322  -0.125  0.00  0.00    +0.126 C 
ATOM     20  C   UNL     1       4.260  -5.294  -0.089  0.00  0.00    +0.125 C 
ATOM     21  C   UNL     1       7.473  -4.761  -1.416  0.00  0.00    +0.219 C 
ATOM     22  O   UNL     1       8.070  -4.803  -2.471  0.00  0.00    -0.275 OA
ENDROOT
BRANCH  21  23
ATOM     23  C   UNL     1       8.207  -5.010  -0.124  0.00  0.00    +0.075 C 
ATOM     24  C   UNL     1       8.262  -3.715   0.689  0.00  0.00    +0.013 C 
ATOM     25  C   UNL     1       9.008  -3.967   2.001  0.00  0.00    +0.001 C 
ATOM     26  C   UNL     1      10.432  -4.438   1.695  0.00  0.00    +0.000 C 
ATOM     27  C   UNL     1      10.377  -5.733   0.883  0.00  0.00    +0.001 C 
ATOM     28  C   UNL     1       9.631  -5.481  -0.429  0.00  0.00    +0.013 C 
ENDBRANCH  21  23
BRANCH   1  29
ATOM     29  C   UNL     1       0.008  -1.920  -1.659  0.00  0.00    +0.054 C 
ATOM     30  C   UNL     1      -0.883  -1.806  -2.898  0.00  0.00    +0.015 C 
BRANCH  29  32
ATOM     31  C   UNL     1      -1.091   0.036  -0.560  0.00  0.00    +0.004 C 
ATOM     32  C   UNL     1      -0.770  -1.454  -0.427  0.00  0.00    +0.007 C 
ENDBRANCH  29  32
ENDBRANCH   1  29
TORSDOF 3
