REMARK  Name = ZINC63540955
REMARK  8 active torsions:
REMARK  status: ('A' for Active; 'I' for Inactive)
REMARK    1  A    between atoms: C_1  and  O_2
REMARK    2  A    between atoms: O_2  and  C_3
REMARK    3  A    between atoms: C_6  and  C_20
REMARK    4  A    between atoms: C_8  and  C_9
REMARK    5  A    between atoms: C_9  and  S_10
REMARK    6  A    between atoms: S_10  and  C_11
REMARK    7  A    between atoms: C_21  and  C_22
REMARK    8  A    between atoms: C_22  and  C_24
REMARK                            x       y       z     vdW  Elec       q    Type
REMARK                         _______ _______ _______ _____ _____    ______ ____
ROOT
ATOM      1  C   UNL     1      -1.199  -0.637   0.010  0.00  0.00    +0.124 A 
ATOM      2  C   UNL     1      -2.374   0.108   0.019  0.00  0.00    +0.046 A 
ATOM      3  C   UNL     1      -3.594  -0.528   0.027  0.00  0.00    +0.011 A 
ATOM      4  C   UNL     1      -3.651  -1.928   0.026  0.00  0.00    -0.024 A 
ATOM      5  C   UNL     1      -2.464  -2.673   0.016  0.00  0.00    +0.016 A 
ATOM      6  C   UNL     1      -1.250  -2.026   0.003  0.00  0.00    +0.005 A 
ENDROOT
BRANCH   1   8
ATOM      7  C   UNL     1      -0.017   1.425   0.010  0.00  0.00    +0.277 C 
ATOM      8  O   UNL     1       0.002  -0.004   0.002  0.00  0.00    -0.495 OA
ENDBRANCH   1   8
BRANCH   4   9
ATOM      9  C   UNL     1      -4.949  -2.612   0.034  0.00  0.00    +0.011 C 
ATOM     10  C   UNL     1      -6.096  -1.890   0.044  0.00  0.00    +0.047 C 
BRANCH  10  11
ATOM     11  C   UNL     1      -7.342  -2.546   0.052  0.00  0.00    +0.162 C 
ATOM     12  O   UNL     1      -7.389  -3.760   0.051  0.00  0.00    -0.292 OA
BRANCH  11  13
ATOM     13  C   UNL     1      -8.617  -1.742   0.063  0.00  0.00    +0.034 C 
ATOM     14  C   UNL     1      -8.673  -0.859  -1.185  0.00  0.00    +0.018 C 
ATOM     15  C   UNL     1      -9.967  -0.043  -1.174  0.00  0.00    -0.010 C 
ATOM     16  C   UNL     1     -11.168  -0.991  -1.166  0.00  0.00    +0.007 C 
ATOM     17  C   UNL     1     -11.112  -1.875   0.082  0.00  0.00    -0.010 C 
ATOM     18  C   UNL     1      -9.817  -2.691   0.071  0.00  0.00    +0.018 C 
ATOM     19  C   UNL     1     -11.149  -0.995   1.332  0.00  0.00    +0.007 C 
ATOM     20  C   UNL     1      -9.949  -0.046   1.325  0.00  0.00    -0.010 C 
ATOM     21  C   UNL     1     -10.005   0.838   0.077  0.00  0.00    +0.007 C 
ATOM     22  C   UNL     1      -8.654  -0.862   1.314  0.00  0.00    +0.018 C 
ENDBRANCH  11  13
ENDBRANCH  10  11
ENDBRANCH   4   9
BRANCH   6  23
ATOM     23  C   UNL     1       0.028  -2.825  -0.013  0.00  0.00    +0.111 C 
BRANCH  23  24
ATOM     24  S   UNL     1       0.557  -3.155   1.690  0.00  0.00    -0.110 S 
BRANCH  24  25
ATOM     25  C   UNL     1       2.086  -4.112   1.498  0.00  0.00    +0.236 C 
ATOM     26  N   UNL     1       3.056  -3.356   0.695  0.00  0.00    -0.355 N 
ATOM     27  C   UNL     1       3.316  -4.060  -0.368  0.00  0.00    +0.061 A 
ATOM     28  C   UNL     1       4.194  -3.835  -1.525  0.00  0.00    +0.027 A 
ATOM     29  C   UNL     1       4.262  -4.764  -2.499  0.00  0.00    +0.002 A 
ATOM     30  C   UNL     1       3.520  -5.958  -2.461  0.00  0.00    +0.002 A 
ATOM     31  C   UNL     1       2.685  -6.263  -1.447  0.00  0.00    +0.027 A 
ATOM     32  C   UNL     1       2.530  -5.324  -0.328  0.00  0.00    +0.061 A 
ATOM     33  N   UNL     1       1.815  -5.352   0.759  0.00  0.00    -0.355 N 
ATOM     34  H   UNL     1       3.433  -2.491   0.917  0.00  0.00    +0.162 HD
ATOM     35  H   UNL     1       1.213  -6.062   1.031  0.00  0.00    +0.162 HD
ENDBRANCH  24  25
ENDBRANCH  23  24
ENDBRANCH   6  23
TORSDOF 7
