REMARK  Name = ZINC40000554
REMARK  8 active torsions:
REMARK  status: ('A' for Active; 'I' for Inactive)
REMARK    1  A    between atoms: C_4  and  C_7
REMARK    2  A    between atoms: C_8  and  C_9
REMARK    3  A    between atoms: C_9  and  S_10
REMARK    4  A    between atoms: S_10  and  C_11
REMARK    5  A    between atoms: C_17  and  C_31
REMARK    6  A    between atoms: C_19  and  C_24
REMARK    7  A    between atoms: C_24  and  C_26
REMARK    8  A    between atoms: C_34  and  O_37
REMARK                            x       y       z     vdW  Elec       q    Type
REMARK                         _______ _______ _______ _____ _____    ______ ____
ROOT
ATOM      1  C   UNL     1       6.839  -4.313   1.456  0.00  0.00    +0.160 A 
ATOM      2  N   UNL     1       7.681  -4.294   0.433  0.00  0.00    -0.133 NA
ATOM      3  N   UNL     1       8.751  -4.961   0.437  0.00  0.00    -0.125 NA
ATOM      4  C   UNL     1       9.099  -5.722   1.463  0.00  0.00    +0.192 A 
ATOM      5  S   UNL     1       7.710  -5.428   2.554  0.00  0.00    -0.024 S 
ATOM      6  N   UNL     1      10.224  -6.519   1.643  0.00  0.00    -0.230 N 
ATOM      7  C   UNL     1      11.325  -6.689   0.687  0.00  0.00    +0.152 C 
ATOM      8  C   UNL     1      12.300  -7.643   1.335  0.00  0.00    +0.080 C 
ATOM      9  C   UNL     1      11.782  -7.971   2.542  0.00  0.00    +0.250 C 
ATOM     10  C   UNL     1      10.499  -7.266   2.728  0.00  0.00    +0.293 C 
ATOM     11  O   UNL     1       9.794  -7.349   3.714  0.00  0.00    -0.266 OA
ATOM     12  O   UNL     1      12.353  -8.809   3.440  0.00  0.00    -0.282 OA
ENDROOT
BRANCH   7  13
ATOM     13  C   UNL     1      10.806  -7.271  -0.602  0.00  0.00    -0.022 A 
ATOM     14  C   UNL     1       9.913  -8.326  -0.573  0.00  0.00    +0.009 A 
ATOM     15  C   UNL     1       9.437  -8.862  -1.754  0.00  0.00    +0.046 A 
ATOM     16  C   UNL     1       9.854  -8.341  -2.969  0.00  0.00    +0.117 A 
ATOM     17  C   UNL     1      10.750  -7.281  -2.996  0.00  0.00    +0.046 A 
ATOM     18  C   UNL     1      11.219  -6.745  -1.812  0.00  0.00    +0.009 A 
BRANCH  16  19
ATOM     19  O   UNL     1       9.387  -8.866  -4.132  0.00  0.00    -0.507 OA
ATOM     20  H   UNL     1       8.578  -8.448  -4.456  0.00  0.00    +0.292 HD
ENDBRANCH  16  19
ENDBRANCH   7  13
BRANCH   8  21
ATOM     21  C   UNL     1      13.564  -8.123   0.766  0.00  0.00    +0.230 C 
ATOM     22  O   UNL     1      13.697  -9.301   0.485  0.00  0.00    -0.283 OA
BRANCH  21  23
ATOM     23  C   UNL     1      14.667  -7.185   0.536  0.00  0.00    +0.175 A 
ATOM     24  C   UNL     1      15.866  -7.477  -0.077  0.00  0.00    +0.053 A 
ATOM     25  C   UNL     1      16.612  -6.289  -0.080  0.00  0.00    +0.042 A 
ATOM     26  C   UNL     1      15.857  -5.341   0.518  0.00  0.00    +0.196 A 
ATOM     27  O   UNL     1      14.686  -5.881   0.882  0.00  0.00    -0.460 OA
ENDBRANCH  21  23
ENDBRANCH   8  21
BRANCH   1  28
ATOM     28  S   UNL     1       5.305  -3.475   1.677  0.00  0.00    -0.093 S 
BRANCH  28  29
ATOM     29  C   UNL     1       5.091  -2.538   0.138  0.00  0.00    +0.103 C 
BRANCH  29  31
ATOM     30  C   UNL     1       3.819  -0.440   0.201  0.00  0.00    +0.004 C 
ATOM     31  C   UNL     1       3.799  -1.766   0.196  0.00  0.00    -0.015 C 
BRANCH  30  35
ATOM     32  C   UNL     1       0.176   1.738   0.362  0.00  0.00    +0.000 A 
ATOM     33  C   UNL     1       1.381   2.415   0.315  0.00  0.00    +0.001 A 
ATOM     34  C   UNL     1       2.568   1.713   0.263  0.00  0.00    +0.008 A 
ATOM     35  C   UNL     1       2.551   0.318   0.257  0.00  0.00    -0.025 A 
ATOM     36  C   UNL     1       1.331  -0.359   0.306  0.00  0.00    +0.008 A 
ATOM     37  C   UNL     1       0.152   0.354   0.357  0.00  0.00    +0.001 A 
ENDBRANCH  30  35
ENDBRANCH  29  31
ENDBRANCH  28  29
ENDBRANCH   1  28
TORSDOF 8
