REMARK  Name = ZINC18199777
REMARK  7 active torsions:
REMARK  status: ('A' for Active; 'I' for Inactive)
REMARK    1  A    between atoms: C_1  and  C_2
REMARK    2  A    between atoms: C_6  and  C_7
REMARK    3  A    between atoms: C_21  and  C_24
REMARK    4  A    between atoms: C_27  and  O_32
REMARK    5  A    between atoms: C_28  and  O_30
REMARK    6  A    between atoms: O_30  and  C_31
REMARK    7  A    between atoms: O_32  and  C_33
REMARK                            x       y       z     vdW  Elec       q    Type
REMARK                         _______ _______ _______ _____ _____    ______ ____
ROOT
ATOM      1  C   UNL     1      -1.282  -0.783  -0.001  0.00  0.00    +0.093 C 
ATOM      2  C   UNL     1       0.002  -0.004   0.002  0.00  0.00    -0.010 A 
ATOM      3  C   UNL     1       1.213  -0.675  -0.009  0.00  0.00    +0.056 A 
ATOM      4  C   UNL     1       2.403   0.033  -0.019  0.00  0.00    +0.167 A 
ATOM      5  C   UNL     1       2.384   1.426  -0.014  0.00  0.00    +0.168 A 
ATOM      6  C   UNL     1       1.174   2.098   0.002  0.00  0.00    +0.073 A 
ATOM      7  C   UNL     1      -0.017   1.383   0.010  0.00  0.00    +0.039 A 
ATOM      8  N   UNL     1      -1.239   2.058   0.031  0.00  0.00    -0.317 N 
ATOM      9  C   UNL     1      -2.379   1.417   0.419  0.00  0.00    +0.016 C 
ATOM     10  C   UNL     1      -2.448   0.068   0.432  0.00  0.00    +0.024 C 
ATOM     11  C   UNL     1      -3.616  -0.590   0.853  0.00  0.00    +0.162 C 
ATOM     12  O   UNL     1      -3.648  -1.805   0.851  0.00  0.00    -0.292 OA
ATOM     13  C   UNL     1      -4.826   0.177   1.307  0.00  0.00    +0.088 C 
ATOM     14  C   UNL     1      -4.374   1.517   1.897  0.00  0.00    +0.032 C 
ATOM     15  C   UNL     1      -3.559   2.261   0.837  0.00  0.00    +0.059 C 
ATOM     16  O   UNL     1       3.671   1.880  -0.027  0.00  0.00    -0.453 OA
ATOM     17  C   UNL     1       4.479   0.757   0.372  0.00  0.00    +0.466 C 
ATOM     18  O   UNL     1       3.703  -0.385  -0.035  0.00  0.00    -0.453 OA
ATOM     19  H   UNL     1      -1.279   2.989  -0.237  0.00  0.00    +0.152 HD
ENDROOT
BRANCH   1  25
ATOM     20  C   UNL     1      -1.558  -3.723  -0.846  0.00  0.00    +0.044 C 
ATOM     21  C   UNL     1      -1.671  -2.578  -1.819  0.00  0.00    -0.039 A 
ATOM     22  C   UNL     1      -1.910  -2.818  -3.159  0.00  0.00    +0.011 A 
ATOM     23  C   UNL     1      -2.007  -1.766  -4.008  0.00  0.00    +0.046 A 
ATOM     24  S   UNL     1      -1.764  -0.381  -2.909  0.00  0.00    -0.100 S 
ATOM     25  C   UNL     1      -1.541  -1.298  -1.393  0.00  0.00    +0.005 A 
ENDBRANCH   1  25
BRANCH  14  26
ATOM     26  C   UNL     1      -5.579   2.337   2.278  0.00  0.00    -0.040 A 
ATOM     27  C   UNL     1      -6.514   2.676   1.318  0.00  0.00    +0.008 A 
ATOM     28  C   UNL     1      -7.622   3.429   1.662  0.00  0.00    +0.049 A 
ATOM     29  C   UNL     1      -7.797   3.844   2.973  0.00  0.00    +0.161 A 
ATOM     30  C   UNL     1      -6.856   3.502   3.939  0.00  0.00    +0.162 A 
ATOM     31  C   UNL     1      -5.751   2.744   3.588  0.00  0.00    +0.053 A 
BRANCH  30  32
ATOM     32  O   UNL     1      -7.024   3.908   5.226  0.00  0.00    -0.491 OA
ATOM     33  C   UNL     1      -6.018   3.520   6.165  0.00  0.00    +0.277 C 
ENDBRANCH  30  32
BRANCH  29  34
ATOM     34  O   UNL     1      -8.886   4.584   3.313  0.00  0.00    -0.491 OA
ATOM     35  C   UNL     1      -9.810   4.896   2.269  0.00  0.00    +0.277 C 
ENDBRANCH  29  34
ENDBRANCH  14  26
TORSDOF 4
