REMARK  Name = ZINC15605542
REMARK  4 active torsions:
REMARK  status: ('A' for Active; 'I' for Inactive)
REMARK    1  A    between atoms: C_3  and  N_18
REMARK    2  A    between atoms: C_5  and  S_7
REMARK    3  A    between atoms: S_7  and  N_10
REMARK    4  A    between atoms: C_19  and  C_21
REMARK                            x       y       z     vdW  Elec       q    Type
REMARK                         _______ _______ _______ _____ _____    ______ ____
ROOT
ATOM      1  C   UNL     1       2.472  -5.279  -2.212  0.00  0.00    +0.004 A 
ATOM      2  C   UNL     1       2.211  -4.073  -1.590  0.00  0.00    +0.023 A 
ATOM      3  C   UNL     1       3.081  -3.591  -0.621  0.00  0.00    +0.035 A 
ATOM      4  C   UNL     1       4.204  -4.329  -0.272  0.00  0.00    +0.052 A 
ATOM      5  C   UNL     1       4.457  -5.536  -0.893  0.00  0.00    +0.114 A 
ATOM      6  C   UNL     1       3.592  -6.011  -1.862  0.00  0.00    +0.029 A 
ENDROOT
BRANCH   3   7
ATOM      7  N   UNL     1       2.822  -2.368   0.007  0.00  0.00    -0.282 N 
ATOM      8  C   UNL     1       2.227  -1.371  -0.678  0.00  0.00    +0.258 C 
ATOM      9  O   UNL     1       2.002  -1.500  -1.863  0.00  0.00    -0.271 OA
ATOM     10  H   UNL     1       3.071  -2.237   0.935  0.00  0.00    +0.155 HD
BRANCH   8  11
ATOM     11  C   UNL     1       1.841  -0.097   0.028  0.00  0.00    +0.263 C 
ATOM     12  C   UNL     1       3.095   0.719   0.420  0.00  0.00    +0.093 C 
ATOM     13  C   UNL     1       2.619   2.143   0.213  0.00  0.00    -0.000 A 
ATOM     14  C   UNL     1       3.120   3.356   0.634  0.00  0.00    +0.027 A 
ATOM     15  C   UNL     1       2.464   4.528   0.300  0.00  0.00    +0.041 A 
ATOM     16  C   UNL     1       1.306   4.476  -0.455  0.00  0.00    +0.023 A 
ATOM     17  C   UNL     1       0.807   3.263  -0.883  0.00  0.00    +0.047 A 
ATOM     18  C   UNL     1       1.461   2.079  -0.551  0.00  0.00    +0.125 A 
ATOM     19  O   UNL     1       1.150   0.791  -0.867  0.00  0.00    -0.479 OA
ATOM     20 CL   UNL     1       3.092   6.058   0.828  0.00  0.00    -0.084 Cl
ENDBRANCH   8  11
ENDBRANCH   3   7
BRANCH   5  21
ATOM     21  S   UNL     1       5.883  -6.472  -0.451  0.00  0.00    +0.100 S 
ATOM     22  O   UNL     1       6.184  -7.302  -1.564  0.00  0.00    -0.146 OA
ATOM     23  O   UNL     1       6.821  -5.552   0.090  0.00  0.00    -0.146 OA
BRANCH  21  24
ATOM     24  N   UNL     1       5.442  -7.481   0.786  0.00  0.00    -0.118 NA
ATOM     25  C   UNL     1       6.310  -8.287   1.304  0.00  0.00    +0.117 C 
ATOM     26  C   UNL     1       7.742  -8.314   0.773  0.00  0.00    +0.073 C 
ATOM     27  C   UNL     1       8.629  -7.727   1.857  0.00  0.00    +0.008 C 
ATOM     28  C   UNL     1       9.132  -8.767   2.861  0.00  0.00    +0.002 C 
ATOM     29  C   UNL     1       8.048  -9.756   3.292  0.00  0.00    +0.019 C 
ATOM     30  C   UNL     1       6.713  -9.097   3.566  0.00  0.00    +0.102 C 
ATOM     31  N   UNL     1       5.962  -9.091   2.289  0.00  0.00    -0.331 N 
ATOM     32  H   UNL     1       5.203  -9.685   2.177  0.00  0.00    +0.147 HD
ENDBRANCH  21  24
ENDBRANCH   5  21
TORSDOF 4
