REMARK  Name = ZINC04577767
REMARK  2 active torsions:
REMARK  status: ('A' for Active; 'I' for Inactive)
REMARK    1  A    between atoms: C_6  and  C_7
REMARK    2  A    between atoms: C_10  and  C_12
REMARK                            x       y       z     vdW  Elec       q    Type
REMARK                         _______ _______ _______ _____ _____    ______ ____
ROOT
ATOM      1  C   UNL     1      -4.850  -1.081  -0.179  0.00  0.00    +0.066 C 
ATOM      2  C   UNL     1      -5.377   0.174  -0.071  0.00  0.00    +0.081 C 
ATOM      3  C   UNL     1      -6.785   0.595  -0.060  0.00  0.00    +0.265 C 
ATOM      4  O   UNL     1      -7.691  -0.213  -0.156  0.00  0.00    -0.269 OA
ATOM      5  N   UNL     1      -7.027   1.890   0.059  0.00  0.00    -0.193 N 
ATOM      6  C   UNL     1      -5.983   2.791   0.166  0.00  0.00    +0.166 C 
ATOM      7  N   UNL     1      -6.040   4.088   0.289  0.00  0.00    -0.279 NA
ATOM      8  S   UNL     1      -4.539   1.742   0.104  0.00  0.00    -0.049 S 
ATOM      9  C   UNL     1      -8.345   2.351   0.075  0.00  0.00    +0.219 A 
ATOM     10  C   UNL     1      -9.173   2.539   1.270  0.00  0.00    +0.203 A 
ATOM     11  N   UNL     1     -10.341   2.981   0.894  0.00  0.00    -0.032 NA
ATOM     12  O   UNL     1     -10.328   3.097  -0.518  0.00  0.00    -0.239 OA
ATOM     13  N   UNL     1      -9.047   2.692  -0.968  0.00  0.00    -0.031 NA
ATOM     14  N   UNL     1      -8.781   2.290   2.581  0.00  0.00    -0.338 N 
ATOM     15  H   UNL     1      -5.222   4.605   0.355  0.00  0.00    +0.189 HD
ATOM     16  H   UNL     1      -7.864   2.038   2.773  0.00  0.00    +0.144 HD
ATOM     17  H   UNL     1      -9.424   2.367   3.303  0.00  0.00    +0.144 HD
ENDROOT
BRANCH   1  21
ATOM     18  C   UNL     1      -1.296  -0.834  -0.065  0.00  0.00    +0.136 A 
ATOM     19  C   UNL     1      -1.420  -2.188  -0.199  0.00  0.00    +0.050 A 
ATOM     20  C   UNL     1      -2.787  -2.472  -0.261  0.00  0.00    +0.050 A 
ATOM     21  C   UNL     1      -3.450  -1.263  -0.161  0.00  0.00    +0.130 A 
ATOM     22  O   UNL     1      -2.525  -0.287  -0.037  0.00  0.00    -0.455 OA
BRANCH  18  28
ATOM     23  C   UNL     1      -0.031   1.297   0.180  0.00  0.00    +0.014 A 
ATOM     24  C   UNL     1       1.160   1.984   0.277  0.00  0.00    +0.040 A 
ATOM     25  C   UNL     1       2.364   1.299   0.235  0.00  0.00    +0.142 A 
ATOM     26  C   UNL     1       2.378  -0.081   0.095  0.00  0.00    +0.077 A 
ATOM     27  C   UNL     1       1.193  -0.779  -0.003  0.00  0.00    +0.034 A 
ATOM     28  C   UNL     1      -0.024  -0.093   0.039  0.00  0.00    +0.019 A 
ATOM     29 CL   UNL     1       3.891  -0.931   0.043  0.00  0.00    -0.081 Cl
ATOM     30  F   UNL     1       3.528   1.978   0.330  0.00  0.00    -0.204 F 
ENDBRANCH  18  28
ENDBRANCH   1  21
TORSDOF 2
