REMARK  Name = ZINC62157878
REMARK  7 active torsions:
REMARK  status: ('A' for Active; 'I' for Inactive)
REMARK    1  A    between atoms: C_4  and  O_7
REMARK    2  A    between atoms: O_7  and  C_8
REMARK    3  A    between atoms: C_15  and  C_17
REMARK    4  A    between atoms: C_17  and  C_18
REMARK    5  A    between atoms: C_18  and  C_19
REMARK    6  A    between atoms: C_19  and  C_20
REMARK    7  A    between atoms: C_20  and  C_22
REMARK                            x       y       z     vdW  Elec       q    Type
REMARK                         _______ _______ _______ _____ _____    ______ ____
ROOT
ATOM      1  C   UNL     1       3.535  -2.056   0.067  0.00  0.00    +0.191 C 
ATOM      2  C   UNL     1       3.469  -2.459   1.542  0.00  0.00    +0.048 C 
ATOM      3  C   UNL     1       3.382  -3.983   1.653  0.00  0.00    +0.023 C 
ATOM      4  C   UNL     1       4.637  -4.608   1.037  0.00  0.00    +0.108 C 
ATOM      5  N   UNL     1       4.787  -4.111  -0.337  0.00  0.00    -0.298 N 
ATOM      6  C   UNL     1       4.792  -2.660  -0.568  0.00  0.00    +0.152 C 
ATOM      7  C   UNL     1       4.918  -4.970  -1.367  0.00  0.00    +0.216 C 
ATOM      8  O   UNL     1       5.042  -4.547  -2.497  0.00  0.00    -0.276 OA
ENDROOT
BRANCH   1   9
ATOM      9  O   UNL     1       3.586  -0.632  -0.037  0.00  0.00    -0.487 OA
BRANCH   9  13
ATOM     10  C   UNL     1      -0.016   1.379   0.020  0.00  0.00    +0.000 A 
ATOM     11  C   UNL     1       0.015   0.013   0.230  0.00  0.00    +0.004 A 
ATOM     12  C   UNL     1       1.220  -0.663   0.211  0.00  0.00    +0.045 A 
ATOM     13  C   UNL     1       2.399   0.030  -0.018  0.00  0.00    +0.121 A 
ATOM     14  C   UNL     1       2.365   1.401  -0.229  0.00  0.00    +0.045 A 
ATOM     15  C   UNL     1       1.158   2.073  -0.209  0.00  0.00    +0.004 A 
ENDBRANCH   9  13
ENDBRANCH   1   9
BRANCH   7  16
ATOM     16  C   UNL     1       4.912  -6.456  -1.115  0.00  0.00    +0.096 C 
BRANCH  16  17
ATOM     17  C   UNL     1       5.076  -7.199  -2.443  0.00  0.00    +0.017 C 
BRANCH  17  18
ATOM     18  C   UNL     1       5.069  -8.707  -2.187  0.00  0.00    +0.080 C 
BRANCH  18  19
ATOM     19  C   UNL     1       5.231  -9.440  -3.494  0.00  0.00    +0.170 C 
ATOM     20  O   UNL     1       5.340  -8.815  -4.530  0.00  0.00    -0.292 OA
BRANCH  19  21
ATOM     21  C   UNL     1       5.254 -10.851  -3.515  0.00  0.00    +0.055 A 
ATOM     22  C   UNL     1       5.398 -11.711  -4.600  0.00  0.00    +0.019 A 
ATOM     23  C   UNL     1       5.382 -13.050  -4.303  0.00  0.00    +0.008 A 
ATOM     24  C   UNL     1       5.233 -13.439  -3.011  0.00  0.00    +0.046 A 
ATOM     25  S   UNL     1       5.116 -11.998  -2.156  0.00  0.00    -0.094 S 
ENDBRANCH  19  21
ENDBRANCH  18  19
ENDBRANCH  17  18
ENDBRANCH  16  17
ENDBRANCH   7  16
TORSDOF 7
