REMARK  Name = ZINC20684248
REMARK  5 active torsions:
REMARK  status: ('A' for Active; 'I' for Inactive)
REMARK    1  A    between atoms: C_1  and  C_2
REMARK    2  A    between atoms: C_2  and  N_3
REMARK    3  A    between atoms: C_14  and  C_16
REMARK    4  A    between atoms: C_27  and  S_32
REMARK    5  A    between atoms: S_32  and  N_35
REMARK                            x       y       z     vdW  Elec       q    Type
REMARK                         _______ _______ _______ _____ _____    ______ ____
ROOT
ATOM      1  C   UNL     1       0.532   8.940   0.037  0.00  0.00    +0.105 C 
ATOM      2  C   UNL     1       0.479   9.599   1.404  0.00  0.00    +0.029 C 
ATOM      3  C   UNL     1       0.855   8.736   2.613  0.00  0.00    +0.033 C 
ATOM      4  C   UNL     1       0.014   9.371   3.721  0.00  0.00    -0.030 C 
ATOM      5  C   UNL     1      -1.053   9.963   3.199  0.00  0.00    -0.023 C 
ATOM      6  C   UNL     1      -1.040   9.753   1.729  0.00  0.00    +0.049 C 
ATOM      7  C   UNL     1      -1.612  10.741   0.789  0.00  0.00    -0.018 A 
ATOM      8  C   UNL     1      -2.624  11.604   1.148  0.00  0.00    +0.034 A 
ATOM      9  C   UNL     1      -3.153  12.483   0.222  0.00  0.00    +0.105 A 
ATOM     10  C   UNL     1      -2.665  12.499  -1.072  0.00  0.00    +0.030 A 
ATOM     11  C   UNL     1      -1.645  11.646  -1.439  0.00  0.00    +0.025 A 
ATOM     12  C   UNL     1      -1.102  10.763  -0.514  0.00  0.00    +0.031 A 
ATOM     13  N   UNL     1      -0.056   9.918  -0.904  0.00  0.00    -0.336 N 
ATOM     14  H   UNL     1       0.328   9.992  -1.932  0.00  0.00    +0.147 HD
ENDROOT
BRANCH   1  26
ATOM     15  N   UNL     1      -2.295   4.051   0.121  0.00  0.00    -0.340 N 
ATOM     16  C   UNL     1      -1.304   3.173   0.521  0.00  0.00    +0.050 A 
ATOM     17  C   UNL     1      -1.304   1.798   0.742  0.00  0.00    +0.026 A 
ATOM     18  C   UNL     1      -0.149   1.165   1.148  0.00  0.00    +0.002 A 
ATOM     19  C   UNL     1       1.022   1.884   1.331  0.00  0.00    +0.001 A 
ATOM     20  C   UNL     1       1.043   3.245   1.112  0.00  0.00    +0.010 A 
ATOM     21  C   UNL     1      -0.118   3.898   0.706  0.00  0.00    +0.008 A 
ATOM     22  C   UNL     1      -0.434   5.303   0.392  0.00  0.00    +0.008 A 
ATOM     23  C   UNL     1      -1.791   5.337   0.037  0.00  0.00    +0.050 A 
ATOM     24  C   UNL     1      -2.373   6.551  -0.314  0.00  0.00    +0.027 A 
ATOM     25  C   UNL     1      -1.619   7.705  -0.311  0.00  0.00    +0.007 A 
ATOM     26  C   UNL     1      -0.278   7.670   0.039  0.00  0.00    -0.026 A 
ATOM     27  C   UNL     1       0.317   6.476   0.390  0.00  0.00    +0.016 A 
BRANCH  15  29
ATOM     28  C   UNL     1      -4.517   3.771   1.103  0.00  0.00    +0.027 C 
ATOM     29  C   UNL     1      -3.680   3.674  -0.174  0.00  0.00    +0.119 C 
ENDBRANCH  15  29
ENDBRANCH   1  26
BRANCH   9  30
ATOM     30  S   UNL     1      -4.449  13.583   0.689  0.00  0.00    +0.056 S 
ATOM     31  O   UNL     1      -5.142  13.924  -0.504  0.00  0.00    -0.153 OA
ATOM     32  O   UNL     1      -5.099  12.992   1.806  0.00  0.00    -0.153 OA
BRANCH  30  33
ATOM     33  N   UNL     1      -3.736  14.973   1.237  0.00  0.00    -0.204 NA
ATOM     34  H   UNL     1      -4.514  15.689   1.540  0.00  0.00    +0.144 HD
ATOM     35  H   UNL     1      -3.126  15.413   0.434  0.00  0.00    +0.144 HD
ENDBRANCH  30  33
ENDBRANCH   9  30
TORSDOF 4
