REMARK  Name = ZINC19951626
REMARK  3 active torsions:
REMARK  status: ('A' for Active; 'I' for Inactive)
REMARK    1  A    between atoms: C_3  and  N_9
REMARK    2  A    between atoms: C_6  and  C_7
REMARK    3  A    between atoms: N_9  and  C_10
REMARK                            x       y       z     vdW  Elec       q    Type
REMARK                         _______ _______ _______ _____ _____    ______ ____
ROOT
ATOM      1  C   UNL     1       4.856   1.418  -0.037  0.00  0.00    +0.190 C 
ATOM      2  C   UNL     1       5.958   2.294   0.512  0.00  0.00    +0.003 A 
ATOM      3  C   UNL     1       6.159   2.886   1.738  0.00  0.00    +0.009 A 
ATOM      4  C   UNL     1       7.290   3.654   1.957  0.00  0.00    +0.016 A 
ATOM      5  C   UNL     1       8.214   3.823   0.940  0.00  0.00    +0.020 A 
ATOM      6  C   UNL     1       8.013   3.230  -0.290  0.00  0.00    +0.039 A 
ATOM      7  C   UNL     1       6.877   2.456  -0.517  0.00  0.00    +0.040 A 
ATOM      8  N   UNL     1       6.456   1.766  -1.654  0.00  0.00    -0.283 N 
ATOM      9  C   UNL     1       5.285   1.130  -1.460  0.00  0.00    +0.242 C 
ATOM     10  O   UNL     1       4.686   0.455  -2.271  0.00  0.00    -0.273 OA
ATOM     11 BR   UNL     1       9.758   4.872   1.238  0.00  0.00    -0.050 Br
ATOM     12  H   UNL     1       6.950   1.745  -2.488  0.00  0.00    +0.155 HD
ENDROOT
BRANCH   1  13
ATOM     13  N   UNL     1       3.576   2.131  -0.021  0.00  0.00    -0.329 N 
ATOM     14  H   UNL     1       3.562   3.101  -0.016  0.00  0.00    +0.147 HD
BRANCH  13  17
ATOM     15  C   UNL     1      -0.017   1.394   0.010  0.00  0.00    +0.020 A 
ATOM     16  C   UNL     1       1.167   2.097   0.002  0.00  0.00    +0.024 A 
ATOM     17  C   UNL     1       2.381   1.417  -0.013  0.00  0.00    +0.028 A 
ATOM     18  C   UNL     1       2.404   0.026  -0.021  0.00  0.00    +0.024 A 
ATOM     19  C   UNL     1       1.224  -0.683  -0.014  0.00  0.00    +0.020 A 
ATOM     20  C   UNL     1       0.002  -0.004   0.002  0.00  0.00    +0.052 A 
BRANCH  20  21
ATOM     21  C   UNL     1      -1.227  -0.739   0.010  0.00  0.00    +0.099 C 
ATOM     22  N   UNL     1      -2.202  -1.321   0.017  0.00  0.00    -0.191 NA
ENDBRANCH  20  21
ENDBRANCH  13  17
ENDBRANCH   1  13
TORSDOF 3
