REMARK  Name = ZINC35472111
REMARK  11 active torsions:
REMARK  status: ('A' for Active; 'I' for Inactive)
REMARK    1  A    between atoms: C_1  and  C_2
REMARK    2  A    between atoms: C_2  and  C_4
REMARK    3  A    between atoms: C_2  and  N_7
REMARK    4  A    between atoms: C_4  and  C_5
REMARK    5  A    between atoms: C_4  and  C_6
REMARK    6  A    between atoms: C_13  and  C_22
REMARK    7  A    between atoms: N_18  and  C_19
REMARK    8  A    between atoms: C_19  and  C_20
REMARK    9  A    between atoms: C_25  and  C_28
REMARK   10  A    between atoms: C_28  and  C_29
REMARK   11  A    between atoms: C_28  and  C_30
REMARK                            x       y       z     vdW  Elec       q    Type
REMARK                         _______ _______ _______ _____ _____    ______ ____
ROOT
ATOM      1  N   UNL     1      -1.372  -0.511   0.012  0.00  0.00    -0.289 N 
ATOM      2  C   UNL     1      -1.994  -1.368  -1.008  0.00  0.00    +0.159 C 
ATOM      3  C   UNL     1      -3.406  -1.596  -0.517  0.00  0.00    +0.043 C 
ATOM      4  C   UNL     1      -3.516  -0.925   0.647  0.00  0.00    +0.058 C 
ATOM      5  C   UNL     1      -2.299  -0.285   0.961  0.00  0.00    +0.247 C 
ATOM      6  O   UNL     1      -2.113   0.388   1.958  0.00  0.00    -0.270 OA
ATOM      7  C   UNL     1      -4.846  -0.981   1.370  0.00  0.00    +0.142 C 
ATOM      8  N   UNL     1      -5.917  -1.769   0.735  0.00  0.00    -0.288 N 
ATOM      9  C   UNL     1      -5.654  -2.385  -0.434  0.00  0.00    +0.307 C 
ATOM     10  O   UNL     1      -6.531  -3.038  -0.966  0.00  0.00    -0.252 OA
ATOM     11  N   UNL     1      -4.457  -2.302  -1.030  0.00  0.00    -0.253 N 
ATOM     12  H   UNL     1      -6.791  -1.843   1.150  0.00  0.00    +0.151 HD
ENDROOT
BRANCH   7  13
ATOM     13  C   UNL     1      -4.605  -1.549   2.745  0.00  0.00    -0.023 A 
ATOM     14  C   UNL     1      -4.467  -2.914   2.914  0.00  0.00    +0.006 A 
ATOM     15  C   UNL     1      -4.246  -3.434   4.176  0.00  0.00    +0.004 A 
ATOM     16  C   UNL     1      -4.162  -2.590   5.267  0.00  0.00    -0.045 A 
ATOM     17  C   UNL     1      -4.299  -1.225   5.097  0.00  0.00    +0.004 A 
ATOM     18  C   UNL     1      -4.516  -0.704   3.835  0.00  0.00    +0.006 A 
BRANCH  16  19
ATOM     19  C   UNL     1      -3.922  -3.158   6.642  0.00  0.00    +0.013 C 
ATOM     20  C   UNL     1      -2.624  -2.583   7.212  0.00  0.00    +0.012 C 
ATOM     21  C   UNL     1      -5.090  -2.787   7.559  0.00  0.00    +0.012 C 
ENDBRANCH  16  19
ENDBRANCH   7  13
BRANCH   1  23
ATOM     22  C   UNL     1      -0.019   1.526   0.010  0.00  0.00    +0.028 C 
ATOM     23  C   UNL     1       0.002  -0.004   0.002  0.00  0.00    +0.076 C 
BRANCH  23  24
ATOM     24  C   UNL     1       0.742  -0.511   1.242  0.00  0.00    +0.003 C 
ATOM     25  C   UNL     1       0.763  -2.041   1.233  0.00  0.00    +0.009 C 
ATOM     26  C   UNL     1       2.178   0.019   1.231  0.00  0.00    +0.009 C 
ENDBRANCH  23  24
ENDBRANCH   1  23
BRANCH  11  27
ATOM     27  C   UNL     1      -4.265  -3.006  -2.300  0.00  0.00    +0.141 C 
BRANCH  27  28
ATOM     28  C   UNL     1      -3.767  -4.402  -2.030  0.00  0.00    -0.015 C 
ATOM     29  C   UNL     1      -4.413  -5.433  -2.516  0.00  0.00    +0.005 C 
ENDBRANCH  27  28
ENDBRANCH  11  27
TORSDOF 6
