REMARK  Name = ZINC49573912
REMARK  5 active torsions:
REMARK  status: ('A' for Active; 'I' for Inactive)
REMARK    1  A    between atoms: C_4  and  N_7
REMARK    2  A    between atoms: C_8  and  O_9
REMARK    3  A    between atoms: C_13  and  S_17
REMARK    4  A    between atoms: S_17  and  C_18
REMARK    5  A    between atoms: C_18  and  C_19
REMARK                            x       y       z     vdW  Elec       q    Type
REMARK                         _______ _______ _______ _____ _____    ______ ____
ROOT
ATOM      1  N   UNL     1       3.623  -0.651  -0.036  0.00  0.00    -0.198 N 
ATOM      2  C   UNL     1       3.862  -1.821   0.583  0.00  0.00    +0.227 A 
ATOM      3  C   UNL     1       5.185  -2.166   0.328  0.00  0.00    +0.101 A 
ATOM      4  C   UNL     1       6.022  -3.246   0.678  0.00  0.00    +0.037 A 
ATOM      5  N   UNL     1       7.263  -3.242   0.269  0.00  0.00    -0.323 N 
ATOM      6  C   UNL     1       7.730  -2.242  -0.504  0.00  0.00    +0.172 A 
ATOM      7  N   UNL     1       7.026  -1.204  -0.888  0.00  0.00    -0.202 NA
ATOM      8  C   UNL     1       5.740  -1.089  -0.510  0.00  0.00    +0.190 A 
ATOM      9  N   UNL     1       4.775  -0.219  -0.704  0.00  0.00    -0.143 NA
ATOM     10  C   UNL     1       8.242  -4.281   0.616  0.00  0.00    +0.124 C 
ATOM     11  C   UNL     1       7.585  -5.642   0.829  0.00  0.00    +0.022 C 
ATOM     12  C   UNL     1       7.248  -5.793   2.318  0.00  0.00    +0.002 C 
ATOM     13  C   UNL     1       6.293  -4.669   2.716  0.00  0.00    +0.006 C 
ATOM     14  C   UNL     1       5.424  -4.358   1.494  0.00  0.00    +0.054 C 
ENDROOT
BRANCH   1  18
ATOM     15  C   UNL     1      -0.017   1.379   0.010  0.00  0.00    +0.000 A 
ATOM     16  C   UNL     1       1.170   2.089   0.002  0.00  0.00    +0.002 A 
ATOM     17  C   UNL     1       2.377   1.420  -0.013  0.00  0.00    +0.028 A 
ATOM     18  C   UNL     1       2.400   0.031  -0.021  0.00  0.00    +0.069 A 
ATOM     19  C   UNL     1       1.206  -0.680  -0.013  0.00  0.00    +0.028 A 
ATOM     20  C   UNL     1       0.002  -0.004   0.002  0.00  0.00    +0.002 A 
ENDBRANCH   1  18
BRANCH   2  21
ATOM     21  O   UNL     1       2.976  -2.534   1.318  0.00  0.00    -0.492 OA
ATOM     22  H   UNL     1       2.466  -3.176   0.806  0.00  0.00    +0.294 HD
ENDBRANCH   2  21
BRANCH   6  23
ATOM     23  S   UNL     1       9.408  -2.334  -1.035  0.00  0.00    -0.080 S 
BRANCH  23  24
ATOM     24  C   UNL     1       9.637  -0.834  -2.028  0.00  0.00    +0.151 C 
BRANCH  24  25
ATOM     25  C   UNL     1      11.050  -0.788  -2.550  0.00  0.00    +0.121 A 
ATOM     26  N   UNL     1      11.421   0.270  -3.318  0.00  0.00    -0.309 N 
ATOM     27  H   UNL     1      10.786   0.975  -3.520  0.00  0.00    +0.170 HD
ATOM     28  C   UNL     1      12.687   0.331  -3.798  0.00  0.00    +0.266 A 
ATOM     29  O   UNL     1      13.051   1.267  -4.489  0.00  0.00    -0.267 OA
ATOM     30  C   UNL     1      13.562  -0.708  -3.479  0.00  0.00    +0.102 A 
ATOM     31  C   UNL     1      13.152  -1.792  -2.682  0.00  0.00    +0.085 A 
ATOM     32  N   UNL     1      11.852  -1.756  -2.242  0.00  0.00    -0.232 NA
ATOM     33  C   UNL     1      14.130  -2.765  -2.439  0.00  0.00    +0.036 A 
ATOM     34  C   UNL     1      15.370  -2.627  -2.956  0.00  0.00    +0.048 A 
ATOM     35  S   UNL     1      15.255  -1.083  -3.846  0.00  0.00    -0.090 S 
ENDBRANCH  24  25
ENDBRANCH  23  24
ENDBRANCH   6  23
TORSDOF 5
