REMARK  Name = ZINC37090773
REMARK  6 active torsions:
REMARK  status: ('A' for Active; 'I' for Inactive)
REMARK    1  A    between atoms: C_1  and  C_2
REMARK    2  A    between atoms: C_7  and  C_24
REMARK    3  A    between atoms: C_9  and  N_10
REMARK    4  A    between atoms: N_10  and  C_11
REMARK    5  A    between atoms: C_14  and  S_17
REMARK    6  A    between atoms: S_17  and  C_18
REMARK                            x       y       z     vdW  Elec       q    Type
REMARK                         _______ _______ _______ _____ _____    ______ ____
ROOT
ATOM      1  C   UNL     1      -0.952  -0.876   2.986  0.00  0.00    +0.027 A 
ATOM      2  C   UNL     1      -1.241  -2.128   2.461  0.00  0.00    +0.024 A 
ATOM      3  C   UNL     1      -2.236  -2.901   3.026  0.00  0.00    +0.017 A 
ATOM      4  C   UNL     1      -2.948  -2.426   4.120  0.00  0.00    +0.016 A 
ATOM      5  C   UNL     1      -2.658  -1.173   4.646  0.00  0.00    +0.017 A 
ATOM      6  C   UNL     1      -1.660  -0.403   4.084  0.00  0.00    +0.024 A 
ENDROOT
BRANCH   1   7
ATOM      7  N   UNL     1       0.057  -0.093   2.414  0.00  0.00    -0.340 N 
ATOM      8  H   UNL     1       0.261   0.781   2.783  0.00  0.00    +0.146 HD
BRANCH   7  15
ATOM      9  C   UNL     1      -0.198   1.200  -0.165  0.00  0.00    +0.009 C 
ATOM     10  C   UNL     1       0.015  -0.308  -0.022  0.00  0.00    +0.006 C 
ATOM     11  C   UNL     1       0.796  -0.830  -1.230  0.00  0.00    +0.005 C 
ATOM     12  C   UNL     1       2.154  -0.128  -1.302  0.00  0.00    +0.001 C 
ATOM     13  C   UNL     1       2.943  -0.412  -0.022  0.00  0.00    +0.005 C 
ATOM     14  C   UNL     1       2.162   0.110   1.186  0.00  0.00    +0.006 C 
ATOM     15  C   UNL     1       0.804  -0.592   1.257  0.00  0.00    +0.076 C 
ATOM     16  C   UNL     1       2.951  -0.175   2.465  0.00  0.00    +0.009 C 
ENDBRANCH   7  15
ENDBRANCH   1   7
BRANCH   4  17
ATOM     17  S   UNL     1      -4.218  -3.412   4.841  0.00  0.00    -0.050 S 
BRANCH  17  18
ATOM     18  C   UNL     1      -3.361  -4.436   5.990  0.00  0.00    +0.189 A 
ATOM     19  N   UNL     1      -3.899  -5.442   6.715  0.00  0.00    -0.254 N 
ATOM     20  H   UNL     1      -4.823  -5.737   6.703  0.00  0.00    +0.191 HD
ATOM     21  N   UNL     1      -2.854  -5.974   7.487  0.00  0.00    -0.160 NA
ATOM     22  C   UNL     1      -1.780  -5.289   7.201  0.00  0.00    +0.245 A 
ATOM     23  N   UNL     1      -2.082  -4.362   6.292  0.00  0.00    -0.209 NA
ENDBRANCH  17  18
ENDBRANCH   4  17
TORSDOF 4
