REMARK  Name = ZINC12744095
REMARK  2 active torsions:
REMARK  status: ('A' for Active; 'I' for Inactive)
REMARK    1  A    between atoms: N_13  and  S_16
REMARK    2  A    between atoms: S_16  and  C_19
REMARK                            x       y       z     vdW  Elec       q    Type
REMARK                         _______ _______ _______ _____ _____    ______ ____
ROOT
ATOM      1  C   UNL     1      -1.914   2.478  -9.637  0.00  0.00    +0.002 A 
ATOM      2  C   UNL     1      -3.018   1.726  -9.262  0.00  0.00    +0.001 A 
ATOM      3  C   UNL     1      -3.371   1.660  -7.926  0.00  0.00    +0.017 A 
ATOM      4  C   UNL     1      -2.626   2.339  -6.995  0.00  0.00    +0.041 A 
ATOM      5  C   UNL     1      -1.496   3.114  -7.339  0.00  0.00    +0.080 A 
ATOM      6  C   UNL     1      -1.165   3.159  -8.713  0.00  0.00    +0.029 A 
ATOM      7  N   UNL     1      -0.867   3.722  -6.309  0.00  0.00    -0.225 NA
ATOM      8  C   UNL     1      -1.273   3.603  -5.066  0.00  0.00    +0.162 A 
ATOM      9  S   UNL     1      -2.695   2.533  -5.230  0.00  0.00    -0.052 S 
ATOM     10  N   UNL     1      -0.736   4.159  -3.923  0.00  0.00    -0.307 N 
ATOM     11  C   UNL     1      -1.506   3.768  -2.735  0.00  0.00    +0.124 C 
ATOM     12  C   UNL     1      -0.992   4.544  -1.518  0.00  0.00    +0.128 C 
ATOM     13  N   UNL     1       0.461   4.340  -1.413  0.00  0.00    -0.174 NA
ATOM     14  C   UNL     1       1.287   4.586  -2.605  0.00  0.00    +0.128 C 
ATOM     15  C   UNL     1       0.682   3.802  -3.780  0.00  0.00    +0.124 C 
ENDROOT
BRANCH  13  16
ATOM     16  S   UNL     1       1.150   3.851   0.012  0.00  0.00    +0.064 S 
ATOM     17  O   UNL     1       0.258   4.240   1.048  0.00  0.00    -0.153 OA
ATOM     18  O   UNL     1       2.505   4.275  -0.026  0.00  0.00    -0.153 OA
BRANCH  16  19
ATOM     19  C   UNL     1       1.173   2.089   0.002  0.00  0.00    +0.144 A 
ATOM     20  C   UNL     1       2.379   1.415  -0.013  0.00  0.00    +0.034 A 
ATOM     21  C   UNL     1       2.400   0.033  -0.021  0.00  0.00    +0.043 A 
ATOM     22  C   UNL     1       1.212  -0.679  -0.013  0.00  0.00    +0.161 A 
ATOM     23  C   UNL     1       0.002  -0.004   0.002  0.00  0.00    +0.195 A 
ATOM     24  C   UNL     1      -0.017   1.382   0.010  0.00  0.00    +0.187 A 
ATOM     25  F   UNL     1      -1.196   2.042   0.019  0.00  0.00    -0.200 F 
ATOM     26  F   UNL     1      -1.158  -0.696   0.009  0.00  0.00    -0.199 F 
ATOM     27  F   UNL     1       1.233  -2.030  -0.021  0.00  0.00    -0.202 F 
ENDBRANCH  16  19
ENDBRANCH  13  16
TORSDOF 2
