REMARK  Name = ZINC05033648
REMARK  6 active torsions:
REMARK  status: ('A' for Active; 'I' for Inactive)
REMARK    1  A    between atoms: C_1  and  C_2
REMARK    2  A    between atoms: C_2  and  C_5
REMARK    3  A    between atoms: N_3  and  N_4
REMARK    4  A    between atoms: C_11  and  C_29
REMARK    5  A    between atoms: N_23  and  N_24
REMARK    6  A    between atoms: C_27  and  C_28
REMARK                            x       y       z     vdW  Elec       q    Type
REMARK                         _______ _______ _______ _____ _____    ______ ____
ROOT
ATOM      1  C   UNL     1       1.441  -0.423   0.370  0.00  0.00    +0.041 C 
ATOM      2  C   UNL     1       0.007   0.089   0.083  0.00  0.00    +0.010 C 
ATOM      3  C   UNL     1       0.081   1.640   0.093  0.00  0.00    +0.005 C 
ATOM      4  C   UNL     1       1.589   1.919  -0.004  0.00  0.00    -0.001 C 
ATOM      5  C   UNL     1       2.176   0.824   0.906  0.00  0.00    -0.021 C 
ATOM      6  C   UNL     1       3.681   0.754   0.802  0.00  0.00    +0.008 C 
ATOM      7  C   UNL     1       4.241   2.108   0.322  0.00  0.00    +0.005 C 
ATOM      8  C   UNL     1       3.445   3.215   0.996  0.00  0.00    +0.002 C 
ATOM      9  C   UNL     1       2.054   3.295   0.353  0.00  0.00    -0.003 C 
ATOM     10  C   UNL     1       1.149   4.118   1.258  0.00  0.00    +0.008 C 
ATOM     11  C   UNL     1       1.692   5.558   1.233  0.00  0.00    +0.031 C 
ATOM     12  C   UNL     1       3.156   5.556   1.633  0.00  0.00    -0.062 C 
ATOM     13  C   UNL     1       3.524   6.404   2.587  0.00  0.00    +0.024 C 
ATOM     14  C   UNL     1       4.929   6.537   2.990  0.00  0.00    +0.059 C 
ATOM     15  N   UNL     1       5.265   7.214   4.052  0.00  0.00    -0.194 NA
ATOM     16  C   UNL     1       5.973   5.856   2.131  0.00  0.00    +0.058 C 
ATOM     17  C   UNL     1       5.441   4.492   1.710  0.00  0.00    +0.017 C 
ATOM     18  C   UNL     1       4.109   4.590   0.978  0.00  0.00    -0.007 C 
ATOM     19  C   UNL     1       4.380   5.034  -0.456  0.00  0.00    +0.016 C 
ATOM     20  C   UNL     1       1.750   1.002   2.365  0.00  0.00    +0.012 C 
ENDROOT
BRANCH   1  22
ATOM     21  C   UNL     1       2.683  -2.230   1.780  0.00  0.00    +0.062 C 
ATOM     22  C   UNL     1       1.416  -1.496   1.423  0.00  0.00    +0.037 C 
ATOM     23  N   UNL     1       0.319  -1.786   2.016  0.00  0.00    -0.199 NA
BRANCH  23  24
ATOM     24  N   UNL     1       0.296  -2.786   2.997  0.00  0.00    -0.283 N 
ATOM     25  H   UNL     1       1.112  -3.258   3.227  0.00  0.00    +0.164 HD
ATOM     26  H   UNL     1      -0.535  -3.005   3.446  0.00  0.00    +0.164 HD
ENDBRANCH  23  24
ENDBRANCH   1  22
BRANCH  15  27
ATOM     27  N   UNL     1       4.277   7.830   4.831  0.00  0.00    -0.282 N 
ATOM     28  H   UNL     1       3.343   7.754   4.580  0.00  0.00    +0.164 HD
ATOM     29  H   UNL     1       4.527   8.335   5.621  0.00  0.00    +0.164 HD
ENDBRANCH  15  27
TORSDOF 3
