REMARK  Name = ZINC13981575
REMARK  8 active torsions:
REMARK  status: ('A' for Active; 'I' for Inactive)
REMARK    1  A    between atoms: C_4  and  C_7
REMARK    2  A    between atoms: C_10  and  O_13
REMARK    3  A    between atoms: O_13  and  C_14
REMARK    4  A    between atoms: C_14  and  C_15
REMARK    5  A    between atoms: N_17  and  N_18
REMARK    6  A    between atoms: C_19  and  C_21
REMARK    7  A    between atoms: C_21  and  O_22
REMARK    8  A    between atoms: O_22  and  C_23
REMARK                            x       y       z     vdW  Elec       q    Type
REMARK                         _______ _______ _______ _____ _____    ______ ____
ROOT
ATOM      1  C   UNL     1       4.016  12.513   0.024  0.00  0.00    +0.267 C 
ATOM      2  O   UNL     1       5.143  12.063   0.011  0.00  0.00    -0.271 OA
ATOM      3  N   UNL     1       2.958  11.678   0.030  0.00  0.00    -0.231 N 
ATOM      4  H   UNL     1       2.057  12.038   0.040  0.00  0.00    +0.173 HD
ENDROOT
BRANCH   3   5
ATOM      5  N   UNL     1       3.159  10.292   0.022  0.00  0.00    -0.231 N 
ATOM      6  C   UNL     1       2.100   9.458   0.028  0.00  0.00    +0.267 C 
ATOM      7  O   UNL     1       0.974   9.907   0.041  0.00  0.00    -0.271 OA
ATOM      8  H   UNL     1       4.060   9.932   0.011  0.00  0.00    +0.173 HD
BRANCH   6   9
ATOM      9  C   UNL     1       2.316   7.966   0.019  0.00  0.00    +0.326 C 
BRANCH   9  10
ATOM     10  O   UNL     1       1.051   7.302   0.028  0.00  0.00    -0.482 OA
BRANCH  10  11
ATOM     11  C   UNL     1       1.068   5.943   0.021  0.00  0.00    +0.136 A 
ATOM     12  C   UNL     1       2.293   5.268   0.006  0.00  0.00    +0.047 A 
ATOM     13  C   UNL     1       2.342   3.909  -0.000  0.00  0.00    +0.012 A 
ATOM     14  C   UNL     1       1.148   3.167   0.008  0.00  0.00    -0.017 A 
ATOM     15  C   UNL     1       1.163   1.762   0.000  0.00  0.00    +0.008 A 
ATOM     16  C   UNL     1      -0.013   1.076   0.008  0.00  0.00    +0.001 A 
ATOM     17  C   UNL     1      -1.235   1.746   0.017  0.00  0.00    +0.001 A 
ATOM     18  C   UNL     1      -1.288   3.106   0.030  0.00  0.00    +0.010 A 
ATOM     19  C   UNL     1      -0.095   3.849   0.023  0.00  0.00    -0.000 A 
ATOM     20  C   UNL     1      -0.112   5.254   0.029  0.00  0.00    +0.067 A 
ATOM     21 BR   UNL     1      -1.757   6.185   0.049  0.00  0.00    -0.046 Br
ENDBRANCH  10  11
ENDBRANCH   9  10
ENDBRANCH   6   9
ENDBRANCH   3   5
BRANCH   1  22
ATOM     22  C   UNL     1       3.800  14.004   0.033  0.00  0.00    +0.326 C 
BRANCH  22  23
ATOM     23  O   UNL     1       5.066  14.669   0.024  0.00  0.00    -0.483 OA
BRANCH  23  27
ATOM     24  C   UNL     1       5.014  18.797   0.043  0.00  0.00    -0.018 A 
ATOM     25  C   UNL     1       6.229  18.114   0.029  0.00  0.00    +0.012 A 
ATOM     26  C   UNL     1       6.243  16.735   0.022  0.00  0.00    +0.046 A 
ATOM     27  C   UNL     1       5.049  16.027   0.030  0.00  0.00    +0.121 A 
ATOM     28  C   UNL     1       3.837  16.705   0.039  0.00  0.00    +0.046 A 
ATOM     29  C   UNL     1       3.817  18.084   0.051  0.00  0.00    +0.012 A 
BRANCH  24  33
ATOM     30  C   UNL     1       4.961  23.049   0.060  0.00  0.00    +0.000 A 
ATOM     31  C   UNL     1       3.771  22.345   0.069  0.00  0.00    +0.001 A 
ATOM     32  C   UNL     1       3.782  20.965   0.063  0.00  0.00    +0.008 A 
ATOM     33  C   UNL     1       4.996  20.281   0.049  0.00  0.00    -0.018 A 
ATOM     34  C   UNL     1       6.192  20.995   0.046  0.00  0.00    +0.008 A 
ATOM     35  C   UNL     1       6.169  22.375   0.046  0.00  0.00    +0.001 A 
ENDBRANCH  24  33
ENDBRANCH  23  27
ENDBRANCH  22  23
ENDBRANCH   1  22
TORSDOF 8
