REMARK  Name = ZINC39711486
REMARK  11 active torsions:
REMARK  status: ('A' for Active; 'I' for Inactive)
REMARK    1  A    between atoms: C_1  and  C_2
REMARK    2  A    between atoms: C_2  and  O_3
REMARK    3  A    between atoms: O_3  and  C_4
REMARK    4  A    between atoms: C_11  and  C_16
REMARK    5  A    between atoms: C_16  and  C_18
REMARK    6  A    between atoms: C_16  and  N_28
REMARK    7  A    between atoms: N_23  and  C_24
REMARK    8  A    between atoms: C_24  and  C_25
REMARK    9  A    between atoms: C_24  and  C_26
REMARK   10  A    between atoms: C_24  and  C_27
REMARK   11  A    between atoms: N_31  and  C_34
REMARK                            x       y       z     vdW  Elec       q    Type
REMARK                         _______ _______ _______ _____ _____    ______ ____
ROOT
ATOM      1  C   UNL     1       1.705  -6.248   4.988  0.00  0.00    -0.009 C 
ENDROOT
BRANCH   1   9
ATOM      2  C   UNL     1       6.788  -4.158   3.019  0.00  0.00    +0.121 A 
ATOM      3  C   UNL     1       6.328  -2.838   3.097  0.00  0.00    +0.047 A 
ATOM      4  C   UNL     1       5.020  -2.529   3.289  0.00  0.00    +0.027 A 
ATOM      5  C   UNL     1       4.056  -3.546   3.420  0.00  0.00    +0.041 A 
ATOM      6  N   UNL     1       2.775  -3.228   3.609  0.00  0.00    -0.285 N 
ATOM      7  C   UNL     1       1.819  -4.132   3.740  0.00  0.00    +0.223 C 
ATOM      8  O   UNL     1       0.666  -3.781   3.910  0.00  0.00    -0.275 OA
ATOM      9  C   UNL     1       2.163  -5.603   3.678  0.00  0.00    +0.088 C 
ATOM     10  C   UNL     1       3.618  -5.970   3.464  0.00  0.00    -0.006 C 
ATOM     11  C   UNL     1       4.510  -4.946   3.342  0.00  0.00    -0.004 A 
ATOM     12  C   UNL     1       5.932  -5.212   3.128  0.00  0.00    +0.055 A 
ATOM     13  H   UNL     1       2.533  -2.290   3.652  0.00  0.00    +0.155 HD
BRANCH   2  14
ATOM     14  O   UNL     1       8.113  -4.392   2.825  0.00  0.00    -0.492 OA
BRANCH  14  16
ATOM     15  C   UNL     1      10.408  -3.708   2.503  0.00  0.00    +0.048 C 
ATOM     16  C   UNL     1       8.964  -3.249   2.717  0.00  0.00    +0.225 C 
ENDBRANCH  14  16
ENDBRANCH   2  14
ENDBRANCH   1   9
BRANCH   1  17
ATOM     17  N   UNL     1       2.010  -7.685   4.959  0.00  0.00    +0.387 N 
ATOM     18  C   UNL     1       1.484  -8.270   3.719  0.00  0.00    -0.059 C 
ATOM     19  C   UNL     1       1.900  -9.742   3.634  0.00  0.00    +0.086 C 
ATOM     20  N   UNL     1       1.460 -10.423   4.862  0.00  0.00    -0.331 N 
ATOM     21  C   UNL     1       1.805  -9.813   6.155  0.00  0.00    +0.086 C 
ATOM     22  C   UNL     1       1.393  -8.337   6.121  0.00  0.00    -0.059 C 
ATOM     23  H   UNL     1       3.009  -7.816   4.992  0.00  0.00    -0.081 HD
BRANCH  20  24
ATOM     24  C   UNL     1       0.733 -11.616   4.801  0.00  0.00    +0.065 A 
ATOM     25  C   UNL     1       1.397 -12.836   4.797  0.00  0.00    +0.026 A 
ATOM     26  C   UNL     1       0.676 -14.013   4.737  0.00  0.00    +0.002 A 
ATOM     27  C   UNL     1      -0.705 -13.979   4.681  0.00  0.00    +0.003 A 
ATOM     28  C   UNL     1      -1.371 -12.767   4.683  0.00  0.00    +0.040 A 
ATOM     29  C   UNL     1      -0.656 -11.585   4.749  0.00  0.00    +0.144 A 
ATOM     30  F   UNL     1      -1.307 -10.401   4.758  0.00  0.00    -0.204 F 
ENDBRANCH  20  24
ENDBRANCH   1  17
BRANCH   1  31
ATOM     31  C   UNL     1       2.437  -5.595   6.161  0.00  0.00    +0.205 C 
ATOM     32  N   UNL     1       3.846  -6.010   6.182  0.00  0.00    -0.152 NA
ATOM     33  N   UNL     1       4.071  -6.604   7.239  0.00  0.00    -0.070 NA
ATOM     34  N   UNL     1       2.949  -6.692   8.061  0.00  0.00    -0.179 N 
ATOM     35  N   UNL     1       1.887  -6.077   7.446  0.00  0.00    -0.183 NA
ATOM     36  H   UNL     1       2.922  -7.120   8.931  0.00  0.00    +0.191 HD
BRANCH  35  37
ATOM     37  C   UNL     1       1.381  -4.959   8.254  0.00  0.00    +0.035 C 
ATOM     38  C   UNL     1       0.270  -4.238   7.490  0.00  0.00    +0.029 C 
ATOM     39  C   UNL     1       0.826  -5.496   9.575  0.00  0.00    +0.029 C 
ATOM     40  C   UNL     1       2.522  -3.980   8.541  0.00  0.00    +0.029 C 
ENDBRANCH  35  37
ENDBRANCH   1  31
TORSDOF 7
