REMARK  Name = ZINC58467433
REMARK  3 active torsions:
REMARK  status: ('A' for Active; 'I' for Inactive)
REMARK    1  A    between atoms: C_1  and  C_2
REMARK    2  A    between atoms: C_2  and  C_4
REMARK    3  A    between atoms: C_2  and  N_11
REMARK                            x       y       z     vdW  Elec       q    Type
REMARK                         _______ _______ _______ _____ _____    ______ ____
ROOT
ATOM      1  N   UNL     1       0.688  -0.475  -1.204  0.00  0.00    -0.293 N 
ATOM      2  C   UNL     1       2.031  -0.587  -1.215  0.00  0.00    +0.303 C 
ATOM      3  O   UNL     1       2.680  -0.211  -0.258  0.00  0.00    -0.253 OA
ATOM      4  N   UNL     1       2.654  -1.116  -2.286  0.00  0.00    -0.281 N 
ATOM      5  C   UNL     1       4.107  -1.357  -2.285  0.00  0.00    +0.114 C 
ATOM      6  C   UNL     1       4.333  -2.864  -2.396  0.00  0.00    +0.054 C 
ATOM      7  C   UNL     1       3.486  -3.454  -3.492  0.00  0.00    -0.041 A 
ATOM      8  C   UNL     1       3.867  -4.687  -4.008  0.00  0.00    +0.004 A 
ATOM      9  C   UNL     1       3.130  -5.288  -5.007  0.00  0.00    +0.000 A 
ATOM     10  C   UNL     1       2.001  -4.661  -5.500  0.00  0.00    +0.000 A 
ATOM     11  C   UNL     1       1.622  -3.436  -4.993  0.00  0.00    +0.005 A 
ATOM     12  C   UNL     1       2.367  -2.827  -3.991  0.00  0.00    -0.027 A 
ATOM     13  C   UNL     1       1.912  -1.481  -3.498  0.00  0.00    +0.144 C 
ATOM     14  H   UNL     1       0.175  -0.706  -1.994  0.00  0.00    +0.151 HD
ENDROOT
BRANCH   1  16
ATOM     15  C   UNL     1      -0.017   1.525   0.014  0.00  0.00    +0.033 C 
ATOM     16  C   UNL     1       0.002  -0.004   0.002  0.00  0.00    +0.102 C 
BRANCH  16  17
ATOM     17  C   UNL     1      -1.413  -0.525   0.011  0.00  0.00    -0.027 A 
ATOM     18  C   UNL     1      -2.141  -0.565  -1.163  0.00  0.00    +0.006 A 
ATOM     19  C   UNL     1      -3.438  -1.042  -1.156  0.00  0.00    +0.015 A 
ATOM     20  C   UNL     1      -4.007  -1.480   0.026  0.00  0.00    +0.018 A 
ATOM     21  C   UNL     1      -3.278  -1.440   1.201  0.00  0.00    +0.015 A 
ATOM     22  C   UNL     1      -1.979  -0.967   1.192  0.00  0.00    +0.006 A 
ATOM     23 BR   UNL     1      -5.782  -2.133   0.037  0.00  0.00    -0.050 Br
ENDBRANCH  16  17
ENDBRANCH   1  16
TORSDOF 2
