REMARK  Name = ZINC03245352
REMARK  4 active torsions:
REMARK  status: ('A' for Active; 'I' for Inactive)
REMARK    1  A    between atoms: C_1  and  C_2
REMARK    2  A    between atoms: C_3  and  C_12
REMARK    3  A    between atoms: C_12  and  C_14
REMARK    4  A    between atoms: C_14  and  N_15
REMARK                            x       y       z     vdW  Elec       q    Type
REMARK                         _______ _______ _______ _____ _____    ______ ____
ROOT
ATOM      1  N   UNL     1       0.240   5.170   1.147  0.00  0.00    -0.216 N 
ATOM      2  C   UNL     1       1.212   4.257   1.359  0.00  0.00    +0.251 C 
ATOM      3  O   UNL     1       1.752   3.988   2.411  0.00  0.00    -0.272 OA
ATOM      4  C   UNL     1       1.482   3.644   0.010  0.00  0.00    +0.138 C 
ATOM      5  C   UNL     1       2.942   3.852  -0.413  0.00  0.00    +0.045 C 
ATOM      6  C   UNL     1       3.599   2.521   0.016  0.00  0.00    +0.038 C 
ATOM      7  C   UNL     1       2.476   1.505   0.014  0.00  0.00    -0.042 A 
ATOM      8  C   UNL     1       1.254   2.157   0.020  0.00  0.00    -0.012 A 
ATOM      9  C   UNL     1       0.083   1.418   0.028  0.00  0.00    +0.006 A 
ATOM     10  C   UNL     1       0.129   0.038   0.026  0.00  0.00    +0.000 A 
ATOM     11  C   UNL     1       1.348  -0.612   0.017  0.00  0.00    +0.000 A 
ATOM     12  C   UNL     1       2.519   0.121   0.011  0.00  0.00    +0.004 A 
ATOM     13  N   UNL     1       0.561   4.329  -0.897  0.00  0.00    -0.281 N 
ATOM     14  C   UNL     1      -0.128   5.207  -0.141  0.00  0.00    +0.310 C 
ATOM     15  O   UNL     1      -0.986   5.949  -0.578  0.00  0.00    -0.252 OA
ATOM     16  H   UNL     1       0.465   4.181  -1.851  0.00  0.00    +0.152 HD
ENDROOT
BRANCH   1  17
ATOM     17  C   UNL     1      -0.341   6.014   2.194  0.00  0.00    +0.197 C 
BRANCH  17  18
ATOM     18  C   UNL     1      -1.525   5.312   2.806  0.00  0.00    +0.183 C 
ATOM     19  O   UNL     1      -1.912   4.259   2.343  0.00  0.00    -0.290 OA
BRANCH  18  22
ATOM     20  C   UNL     1      -0.694   4.911   5.766  0.00  0.00    +0.064 C 
ATOM     21  C   UNL     1      -1.851   5.729   5.251  0.00  0.00    +0.024 A 
ATOM     22  C   UNL     1      -2.187   5.882   3.923  0.00  0.00    +0.047 A 
ATOM     23  C   UNL     1      -3.371   6.763   3.897  0.00  0.00    +0.010 A 
ATOM     24  C   UNL     1      -4.173   7.275   2.881  0.00  0.00    +0.011 A 
ATOM     25  C   UNL     1      -5.240   8.087   3.198  0.00  0.00    +0.001 A 
ATOM     26  C   UNL     1      -5.520   8.389   4.523  0.00  0.00    +0.002 A 
ATOM     27  C   UNL     1      -4.738   7.883   5.538  0.00  0.00    +0.026 A 
ATOM     28  C   UNL     1      -3.656   7.061   5.238  0.00  0.00    +0.047 A 
ATOM     29  N   UNL     1      -2.714   6.421   6.018  0.00  0.00    -0.358 N 
ATOM     30  H   UNL     1      -2.679   6.465   6.987  0.00  0.00    +0.166 HD
ENDBRANCH  18  22
ENDBRANCH  17  18
ENDBRANCH   1  17
TORSDOF 3
