REMARK  Name = ZINC51045168
REMARK  8 active torsions:
REMARK  status: ('A' for Active; 'I' for Inactive)
REMARK    1  A    between atoms: C_1  and  C_2
REMARK    2  A    between atoms: C_2  and  C_4
REMARK    3  A    between atoms: C_2  and  N_17
REMARK    4  A    between atoms: N_9  and  C_10
REMARK    5  A    between atoms: C_10  and  C_11
REMARK    6  A    between atoms: C_11  and  C_12
REMARK    7  A    between atoms: C_21  and  C_24
REMARK    8  A    between atoms: N_26  and  C_27
REMARK                            x       y       z     vdW  Elec       q    Type
REMARK                         _______ _______ _______ _____ _____    ______ ____
ROOT
ATOM      1  C   UNL     1       0.360   1.425   0.416  0.00  0.00    -0.004 C 
ATOM      2  C   UNL     1       0.002  -0.004   0.002  0.00  0.00    +0.017 C 
ENDROOT
BRANCH   2   3
ATOM      3  C   UNL     1       0.793  -0.386  -1.223  0.00  0.00    +0.207 C 
ATOM      4  O   UNL     1       1.869  -0.931  -1.103  0.00  0.00    -0.277 OA
ATOM      5  N   UNL     1       0.304  -0.121  -2.450  0.00  0.00    -0.242 N 
ATOM      6  C   UNL     1       1.011  -0.463  -3.546  0.00  0.00    +0.306 C 
ATOM      7  O   UNL     1       2.090  -1.009  -3.426  0.00  0.00    -0.252 OA
ATOM      8  N   UNL     1       0.522  -0.198  -4.773  0.00  0.00    -0.299 N 
ATOM      9  H   UNL     1      -0.557   0.315  -2.546  0.00  0.00    +0.159 HD
ATOM     10  H   UNL     1      -0.339   0.238  -4.869  0.00  0.00    +0.150 HD
BRANCH   8  11
ATOM     11  C   UNL     1       1.291  -0.569  -5.964  0.00  0.00    +0.111 C 
BRANCH  11  12
ATOM     12  C   UNL     1       0.517  -0.161  -7.219  0.00  0.00    +0.061 C 
BRANCH  12  13
ATOM     13  C   UNL     1       1.308  -0.542  -8.443  0.00  0.00    -0.009 A 
ATOM     14  C   UNL     1       1.277  -1.696  -9.154  0.00  0.00    +0.011 A 
ATOM     15  C   UNL     1       2.100  -1.826 -10.256  0.00  0.00    +0.008 A 
ATOM     16  C   UNL     1       2.914  -0.796 -10.595  0.00  0.00    +0.045 A 
ATOM     17  S   UNL     1       2.522   0.411  -9.339  0.00  0.00    -0.102 S 
ENDBRANCH  12  13
ENDBRANCH  11  12
ENDBRANCH   8  11
ENDBRANCH   2   3
BRANCH   2  18
ATOM     18  N   UNL     1       0.323  -0.926   1.099  0.00  0.00    +0.388 N 
ATOM     19  C   UNL     1      -0.004  -2.299   0.694  0.00  0.00    -0.078 C 
ATOM     20  C   UNL     1       0.404  -3.272   1.802  0.00  0.00    -0.018 C 
ATOM     21  C   UNL     1      -0.355  -2.923   3.086  0.00  0.00    +0.009 C 
ATOM     22  C   UNL     1      -0.065  -1.466   3.458  0.00  0.00    +0.058 C 
ATOM     23  C   UNL     1      -0.455  -0.559   2.288  0.00  0.00    -0.065 C 
ATOM     24  H   UNL     1       1.308  -0.866   1.311  0.00  0.00    -0.081 HD
BRANCH  22  25
ATOM     25  C   UNL     1      -0.867  -1.089   4.677  0.00  0.00    +0.215 C 
ATOM     26  O   UNL     1      -1.669  -0.181   4.619  0.00  0.00    -0.276 OA
ATOM     27  N   UNL     1      -0.692  -1.760   5.833  0.00  0.00    -0.312 N 
ATOM     28  H   UNL     1      -0.050  -2.486   5.879  0.00  0.00    +0.149 HD
BRANCH  27  29
ATOM     29  C   UNL     1      -1.471  -1.394   7.018  0.00  0.00    +0.073 C 
ATOM     30  C   UNL     1      -0.730  -1.318   8.354  0.00  0.00    +0.024 C 
ATOM     31  C   UNL     1      -1.694  -2.474   8.079  0.00  0.00    +0.024 C 
ENDBRANCH  27  29
ENDBRANCH  22  25
ENDBRANCH   2  18
TORSDOF 7
