REMARK  Name = ZINC05776388
REMARK  10 active torsions:
REMARK  status: ('A' for Active; 'I' for Inactive)
REMARK    1  A    between atoms: C_1  and  C_2
REMARK    2  A    between atoms: C_2  and  C_3
REMARK    3  A    between atoms: C_10  and  C_12
REMARK    4  A    between atoms: C_15  and  S_18
REMARK    5  A    between atoms: N_16  and  C_17
REMARK    6  A    between atoms: S_18  and  C_19
REMARK    7  A    between atoms: C_19  and  C_21
REMARK    8  A    between atoms: C_19  and  C_24
REMARK    9  A    between atoms: C_21  and  C_22
REMARK   10  A    between atoms: C_21  and  C_23
REMARK                            x       y       z     vdW  Elec       q    Type
REMARK                         _______ _______ _______ _____ _____    ______ ____
ROOT
ATOM      1  C   UNL     1      -6.062   2.717   0.619  0.00  0.00    +0.171 A 
ATOM      2  N   UNL     1      -5.222   3.634   0.190  0.00  0.00    -0.128 NA
ATOM      3  N   UNL     1      -4.027   3.162   0.178  0.00  0.00    -0.122 NA
ATOM      4  C   UNL     1      -4.027   1.917   0.597  0.00  0.00    +0.192 A 
ATOM      5  N   UNL     1      -5.322   1.587   0.887  0.00  0.00    -0.305 N 
ATOM      6  C   UNL     1      -5.818   0.300   1.383  0.00  0.00    +0.153 C 
ENDROOT
BRANCH   1  13
ATOM      7  C   UNL     1     -11.971   4.759   0.866  0.00  0.00    -0.007 C 
ATOM      8  C   UNL     1     -12.495   3.321   0.899  0.00  0.00    +0.009 C 
ATOM      9  C   UNL     1     -11.542   2.469   1.753  0.00  0.00    +0.043 C 
ATOM     10  C   UNL     1     -10.141   2.753   1.317  0.00  0.00    -0.006 A 
ATOM     11  C   UNL     1      -9.705   3.791   0.547  0.00  0.00    -0.036 A 
ATOM     12  C   UNL     1      -8.343   3.841   0.280  0.00  0.00    +0.023 A 
ATOM     13  C   UNL     1      -7.517   2.868   0.776  0.00  0.00    +0.057 A 
ATOM     14  S   UNL     1      -8.667   1.834   1.671  0.00  0.00    -0.090 S 
ATOM     15  C   UNL     1     -10.694   4.832   0.028  0.00  0.00    +0.039 C 
BRANCH   7  17
ATOM     16  C   UNL     1     -12.570   7.128   0.342  0.00  0.00    +0.004 C 
ATOM     17  C   UNL     1     -13.034   5.672   0.251  0.00  0.00    +0.000 C 
ENDBRANCH   7  17
ENDBRANCH   1  13
BRANCH   4  18
ATOM     18  S   UNL     1      -2.621   0.866   0.750  0.00  0.00    -0.073 S 
BRANCH  18  19
ATOM     19  C   UNL     1      -1.349   1.937   0.035  0.00  0.00    +0.143 C 
BRANCH  19  20
ATOM     20  C   UNL     1       0.008   1.317   0.251  0.00  0.00    +0.234 C 
ATOM     21  O   UNL     1       0.111   0.118   0.397  0.00  0.00    -0.274 OA
ATOM     22  N   UNL     1       1.108   2.096   0.275  0.00  0.00    -0.239 N 
ATOM     23  C   UNL     1       2.322   1.541   0.463  0.00  0.00    +0.303 C 
ATOM     24  O   UNL     1       2.425   0.339   0.609  0.00  0.00    -0.253 OA
ATOM     25  N   UNL     1       3.422   2.320   0.487  0.00  0.00    -0.313 N 
ATOM     26  H   UNL     1       1.026   3.055   0.158  0.00  0.00    +0.159 HD
ATOM     27  H   UNL     1       3.340   3.279   0.370  0.00  0.00    +0.146 HD
ATOM     28  H   UNL     1       4.296   1.921   0.622  0.00  0.00    +0.146 HD
ENDBRANCH  19  20
BRANCH  19  29
ATOM     29  C   UNL     1      -1.603   2.100  -1.464  0.00  0.00    +0.005 C 
ATOM     30  C   UNL     1      -0.607   3.107  -2.044  0.00  0.00    +0.009 C 
ATOM     31  C   UNL     1      -1.426   0.749  -2.161  0.00  0.00    +0.009 C 
ENDBRANCH  19  29
ENDBRANCH  18  19
ENDBRANCH   4  18
TORSDOF 6
