REMARK  Name = ZINC38655772
REMARK  7 active torsions:
REMARK  status: ('A' for Active; 'I' for Inactive)
REMARK    1  A    between atoms: C_5  and  C_7
REMARK    2  A    between atoms: C_8  and  C_9
REMARK    3  A    between atoms: C_9  and  O_11
REMARK    4  A    between atoms: O_11  and  C_12
REMARK    5  A    between atoms: C_19  and  N_33
REMARK    6  A    between atoms: C_20  and  C_31
REMARK    7  A    between atoms: C_21  and  C_23
REMARK                            x       y       z     vdW  Elec       q    Type
REMARK                         _______ _______ _______ _____ _____    ______ ____
ROOT
ATOM      1  C   UNL     1      -1.054  -6.369  -0.056  0.00  0.00    +0.135 A 
ATOM      2  C   UNL     1       0.134  -7.088  -0.029  0.00  0.00    +0.047 A 
ATOM      3  C   UNL     1       0.106  -8.467  -0.071  0.00  0.00    +0.012 A 
ATOM      4  C   UNL     1      -1.102  -9.139  -0.141  0.00  0.00    +0.008 A 
ATOM      5  C   UNL     1      -2.290  -8.426  -0.168  0.00  0.00    +0.138 A 
ATOM      6  C   UNL     1      -2.265  -7.038  -0.119  0.00  0.00    +0.093 A 
ATOM      7  O   UNL     1      -3.483  -9.067  -0.236  0.00  0.00    -0.441 OA
ATOM      8  C   UNL     1      -3.569 -10.363   0.104  0.00  0.00    +0.199 C 
ATOM      9  C   UNL     1      -2.479 -11.166   0.147  0.00  0.00    +0.098 C 
ATOM     10  C   UNL     1      -1.110 -10.644  -0.187  0.00  0.00    +0.098 C 
ENDROOT
BRANCH  10  11
ATOM     11  C   UNL     1      -0.724 -11.103  -1.569  0.00  0.00    -0.033 A 
ATOM     12  C   UNL     1      -1.484 -10.725  -2.660  0.00  0.00    +0.006 A 
ATOM     13  C   UNL     1      -1.131 -11.146  -3.929  0.00  0.00    +0.022 A 
ATOM     14  C   UNL     1      -0.017 -11.946  -4.107  0.00  0.00    +0.059 A 
ATOM     15  C   UNL     1       0.744 -12.325  -3.014  0.00  0.00    +0.060 A 
ATOM     16  C   UNL     1       0.393 -11.898  -1.746  0.00  0.00    +0.026 A 
ATOM     17 CL   UNL     1       2.142 -13.330  -3.236  0.00  0.00    -0.082 Cl
ATOM     18 CL   UNL     1       0.426 -12.476  -5.700  0.00  0.00    -0.082 Cl
ENDBRANCH  10  11
BRANCH   8  19
ATOM     19  N   UNL     1      -4.797 -10.890   0.418  0.00  0.00    -0.328 N 
ATOM     20  H   UNL     1      -5.587 -10.328   0.392  0.00  0.00    +0.145 HD
ATOM     21  H   UNL     1      -4.875 -11.825   0.666  0.00  0.00    +0.145 HD
ENDBRANCH   8  19
BRANCH   9  22
ATOM     22  C   UNL     1      -2.635 -12.540   0.519  0.00  0.00    +0.101 C 
ATOM     23  N   UNL     1      -2.758 -13.631   0.814  0.00  0.00    -0.191 NA
ENDBRANCH   9  22
BRANCH   1  24
ATOM     24  O   UNL     1      -1.028  -5.011  -0.015  0.00  0.00    -0.423 OA
BRANCH  24  25
ATOM     25  C   UNL     1      -0.705  -4.349  -1.145  0.00  0.00    +0.337 C 
ATOM     26  O   UNL     1      -0.361  -4.967  -2.135  0.00  0.00    -0.245 OA
BRANCH  25  28
ATOM     27  C   UNL     1      -0.446  -2.227  -2.312  0.00  0.00    +0.016 C 
ATOM     28  C   UNL     1      -0.769  -2.889  -1.181  0.00  0.00    +0.092 C 
BRANCH  27  33
ATOM     29  C   UNL     1      -0.964   1.334  -1.253  0.00  0.00    +0.001 A 
ATOM     30  C   UNL     1      -0.632   2.010  -2.415  0.00  0.00    +0.001 A 
ATOM     31  C   UNL     1      -0.239   1.312  -3.543  0.00  0.00    +0.020 A 
ATOM     32  C   UNL     1      -0.175  -0.067  -3.518  0.00  0.00    +0.048 A 
ATOM     33  C   UNL     1      -0.510  -0.757  -2.347  0.00  0.00    -0.006 A 
ATOM     34  C   UNL     1      -0.906  -0.043  -1.212  0.00  0.00    +0.009 A 
ATOM     35 CL   UNL     1       0.317  -0.941  -4.934  0.00  0.00    -0.083 Cl
ENDBRANCH  27  33
ENDBRANCH  25  28
ENDBRANCH  24  25
ENDBRANCH   1  24
TORSDOF 7
