REMARK  Name = ZINC21883068
REMARK  6 active torsions:
REMARK  status: ('A' for Active; 'I' for Inactive)
REMARK    1  A    between atoms: C_1  and  C_2
REMARK    2  A    between atoms: C_4  and  N_15
REMARK    3  A    between atoms: C_12  and  C_14
REMARK    4  A    between atoms: C_16  and  C_18
REMARK    5  A    between atoms: C_18  and  N_19
REMARK    6  A    between atoms: C_27  and  C_31
REMARK                            x       y       z     vdW  Elec       q    Type
REMARK                         _______ _______ _______ _____ _____    ______ ____
ROOT
ATOM      1  N   UNL     1       1.624   3.311   0.004  0.00  0.00    -0.284 N 
ATOM      2  C   UNL     1       1.404   1.991  -0.158  0.00  0.00    +0.235 C 
ATOM      3  O   UNL     1       2.340   1.235  -0.317  0.00  0.00    -0.274 OA
ATOM      4  H   UNL     1       0.775   4.007   0.061  0.00  0.00    +0.155 HD
ENDROOT
BRANCH   1   8
ATOM      5  C   UNL     1       4.821   6.921  -0.867  0.00  0.00    +0.046 C 
ATOM      6  C   UNL     1       4.523   5.551  -0.315  0.00  0.00    -0.022 A 
ATOM      7  C   UNL     1       3.258   5.056  -0.396  0.00  0.00    +0.028 A 
ATOM      8  C   UNL     1       2.935   3.796   0.100  0.00  0.00    +0.035 A 
ATOM      9  C   UNL     1       3.927   3.028   0.697  0.00  0.00    +0.040 A 
ATOM     10  C   UNL     1       5.205   3.522   0.774  0.00  0.00    +0.043 A 
ATOM     11  C   UNL     1       5.561   4.797   0.279  0.00  0.00    +0.083 A 
ATOM     12  N   UNL     1       6.858   5.143   0.435  0.00  0.00    -0.224 NA
ATOM     13  C   UNL     1       7.736   4.353   1.007  0.00  0.00    +0.165 A 
ATOM     14  S   UNL     1       6.748   2.922   1.420  0.00  0.00    -0.052 S 
ATOM     15  N   UNL     1       9.085   4.572   1.233  0.00  0.00    -0.265 N 
ATOM     16  C   UNL     1       9.828   3.627   1.843  0.00  0.00    +0.216 C 
ATOM     17  O   UNL     1       9.316   2.586   2.194  0.00  0.00    -0.276 OA
ATOM     18  C   UNL     1      11.296   3.866   2.090  0.00  0.00    +0.109 C 
ATOM     19  H   UNL     1       9.550   5.517   0.915  0.00  0.00    +0.157 HD
ENDBRANCH   1   8
BRANCH   2  20
ATOM     20  C   UNL     1      -0.004   1.454  -0.142  0.00  0.00    +0.209 C 
BRANCH  20  21
ATOM     21  N   UNL     1       0.025   0.003  -0.338  0.00  0.00    -0.256 N 
ATOM     22  C   UNL     1      -0.041  -0.544  -1.627  0.00  0.00    +0.079 A 
ATOM     23  C   UNL     1       0.184   0.246  -2.743  0.00  0.00    +0.027 A 
ATOM     24  C   UNL     1       0.113  -0.312  -4.006  0.00  0.00    +0.002 A 
ATOM     25  C   UNL     1      -0.183  -1.655  -4.157  0.00  0.00    +0.004 A 
ATOM     26  C   UNL     1      -0.397  -2.448  -3.050  0.00  0.00    +0.047 A 
ATOM     27  C   UNL     1      -0.333  -1.897  -1.782  0.00  0.00    +0.143 A 
ATOM     28  O   UNL     1      -0.556  -2.662  -0.680  0.00  0.00    -0.478 OA
ATOM     29  C   UNL     1       0.176  -2.320   0.500  0.00  0.00    +0.256 C 
ATOM     30  C   UNL     1       0.110  -0.831   0.723  0.00  0.00    +0.261 C 
ATOM     31  O   UNL     1       0.133  -0.382   1.849  0.00  0.00    -0.271 OA
ATOM     32  C   UNL     1       1.636  -2.746   0.335  0.00  0.00    +0.062 C 
ENDBRANCH  20  21
ENDBRANCH   2  20
TORSDOF 3
