REMARK  Name = ZINC42352589
REMARK  5 active torsions:
REMARK  status: ('A' for Active; 'I' for Inactive)
REMARK    1  A    between atoms: C_1  and  C_2
REMARK    2  A    between atoms: C_2  and  C_3
REMARK    3  A    between atoms: C_2  and  C_4
REMARK    4  A    between atoms: C_2  and  C_5
REMARK    5  A    between atoms: C_5  and  C_7
REMARK                            x       y       z     vdW  Elec       q    Type
REMARK                         _______ _______ _______ _____ _____    ______ ____
ROOT
ATOM      1  C   UNL     1       2.006  -0.524  -1.503  0.00  0.00    -0.030 A 
ATOM      2  C   UNL     1       2.903  -1.160  -0.662  0.00  0.00    +0.007 A 
ATOM      3  C   UNL     1       4.262  -0.980  -0.833  0.00  0.00    +0.030 A 
ATOM      4  C   UNL     1       4.727  -0.161  -1.850  0.00  0.00    +0.087 A 
ATOM      5  C   UNL     1       3.824   0.480  -2.698  0.00  0.00    +0.157 A 
ATOM      6  C   UNL     1       2.462   0.289  -2.522  0.00  0.00    +0.053 A 
ATOM      7  O   UNL     1       4.548   1.205  -3.585  0.00  0.00    -0.408 OA
ATOM      8  C   UNL     1       5.855   1.042  -3.324  0.00  0.00    +0.419 A 
ATOM      9  O   UNL     1       6.765   1.562  -3.942  0.00  0.00    -0.223 OA
ATOM     10  N   UNL     1       6.003   0.214  -2.270  0.00  0.00    -0.288 N 
ATOM     11  H   UNL     1       6.843  -0.069  -1.877  0.00  0.00    +0.172 HD
ENDROOT
BRANCH   1  12
ATOM     12  C   UNL     1       0.525  -0.726  -1.310  0.00  0.00    +0.092 C 
ATOM     13 BR   UNL     1       0.181  -2.588  -0.782  0.00  0.00    -0.082 Br
BRANCH  12  15
ATOM     14  C   UNL     1       0.306   1.665  -0.616  0.00  0.00    +0.012 C 
ATOM     15  C   UNL     1       0.021   0.216  -0.214  0.00  0.00    -0.021 C 
ATOM     16  C   UNL     1       0.738  -0.099   1.100  0.00  0.00    +0.012 C 
ATOM     17  C   UNL     1      -1.486   0.025  -0.032  0.00  0.00    +0.012 C 
ENDBRANCH  12  15
ENDBRANCH   1  12
TORSDOF 2
