REMARK  Name = ZINC03588487
REMARK  8 active torsions:
REMARK  status: ('A' for Active; 'I' for Inactive)
REMARK    1  A    between atoms: C_1  and  C_2
REMARK    2  A    between atoms: C_2  and  C_3
REMARK    3  A    between atoms: C_2  and  C_4
REMARK    4  A    between atoms: C_2  and  C_5
REMARK    5  A    between atoms: C_8  and  S_11
REMARK    6  A    between atoms: S_11  and  N_14
REMARK    7  A    between atoms: C_19  and  C_20
REMARK    8  A    between atoms: C_19  and  N_63
REMARK                            x       y       z     vdW  Elec       q    Type
REMARK                         _______ _______ _______ _____ _____    ______ ____
ROOT
ATOM      1  N   UNL     1      -0.993   1.743  -1.284  0.00  0.00    -0.180 NA
ATOM      2  C   UNL     1      -1.861   0.919  -2.138  0.00  0.00    +0.091 C 
ATOM      3  C   UNL     1      -3.211   1.638  -2.289  0.00  0.00    -0.061 C 
ATOM      4  C   UNL     1      -2.208   3.792  -1.805  0.00  0.00    -0.061 C 
ATOM      5  C   UNL     1      -0.821   3.162  -1.630  0.00  0.00    +0.091 C 
ATOM      6  N   UNL     1      -2.965   3.003  -2.801  0.00  0.00    +0.386 N 
ATOM      7  H   UNL     1      -2.413   2.940  -3.665  0.00  0.00    -0.081 HD
ENDROOT
BRANCH   1   8
ATOM      8  S   UNL     1      -0.223   1.089   0.028  0.00  0.00    +0.061 S 
ATOM      9  O   UNL     1      -0.118  -0.307  -0.217  0.00  0.00    -0.153 OA
ATOM     10  O   UNL     1       0.913   1.905   0.281  0.00  0.00    -0.153 OA
BRANCH   8  14
ATOM     11  C   UNL     1      -2.983   1.577   3.582  0.00  0.00    -0.042 A 
ATOM     12  C   UNL     1      -3.058   0.439   2.799  0.00  0.00    +0.006 A 
ATOM     13  C   UNL     1      -2.215   0.290   1.714  0.00  0.00    +0.029 A 
ATOM     14  C   UNL     1      -1.297   1.279   1.411  0.00  0.00    +0.105 A 
ATOM     15  C   UNL     1      -1.220   2.414   2.196  0.00  0.00    +0.029 A 
ATOM     16  C   UNL     1      -2.066   2.565   3.278  0.00  0.00    +0.006 A 
BRANCH  11  18
ATOM     17  C   UNL     1      -3.669   0.595   5.753  0.00  0.00    +0.015 C 
ATOM     18  C   UNL     1      -3.903   1.739   4.765  0.00  0.00    -0.013 C 
ATOM     19  C   UNL     1      -3.616   3.075   5.454  0.00  0.00    +0.015 C 
ATOM     20  C   UNL     1      -5.356   1.713   4.288  0.00  0.00    +0.015 C 
ENDBRANCH  11  18
ENDBRANCH   8  14
ENDBRANCH   1   8
BRANCH   6  21
ATOM     21  C   UNL     1      -4.250   3.669  -3.100  0.00  0.00    -0.003 C 
BRANCH  21  22
ATOM     22  C   UNL     1      -3.970   4.953  -3.839  0.00  0.00    +0.094 A 
ATOM     23  N   UNL     1      -4.998   5.787  -4.137  0.00  0.00    -0.312 N 
ATOM     24  H   UNL     1      -5.928   5.536  -3.866  0.00  0.00    +0.170 HD
ATOM     25  C   UNL     1      -4.792   6.946  -4.792  0.00  0.00    +0.260 A 
ATOM     26  O   UNL     1      -5.725   7.688  -5.050  0.00  0.00    -0.267 OA
ATOM     27  C   UNL     1      -3.458   7.287  -5.185  0.00  0.00    +0.075 A 
ATOM     28  C   UNL     1      -3.004   8.486  -5.907  0.00  0.00    -0.023 A 
ATOM     29  C   UNL     1      -1.687   8.580  -6.159  0.00  0.00    -0.004 A 
ATOM     30  S   UNL     1      -0.979   7.103  -5.467  0.00  0.00    -0.073 S 
ATOM     31  C   UNL     1      -2.463   6.364  -4.838  0.00  0.00    +0.116 A 
ATOM     32  N   UNL     1      -2.743   5.239  -4.184  0.00  0.00    -0.229 NA
ATOM     33  C   UNL     1      -1.339   9.846  -6.896  0.00  0.00    +0.043 C 
ATOM     34  C   UNL     1      -2.569  10.759  -6.699  0.00  0.00    +0.010 C 
ATOM     35  C   UNL     1      -3.693   9.728  -6.477  0.00  0.00    +0.037 C 
ENDBRANCH  21  22
ENDBRANCH   6  21
TORSDOF 5
