REMARK  Name = ZINC08846330
REMARK  7 active torsions:
REMARK  status: ('A' for Active; 'I' for Inactive)
REMARK    1  A    between atoms: C_4  and  C_8
REMARK    2  A    between atoms: C_8  and  O_9
REMARK    3  A    between atoms: O_9  and  C_10
REMARK    4  A    between atoms: C_13  and  C_16
REMARK    5  A    between atoms: C_19  and  C_30
REMARK    6  A    between atoms: C_25  and  N_29
REMARK    7  A    between atoms: C_26  and  C_27
REMARK                            x       y       z     vdW  Elec       q    Type
REMARK                         _______ _______ _______ _____ _____    ______ ____
ROOT
ATOM      1  C   UNL     1       9.021  -3.680   1.979  0.00  0.00    +0.102 C 
ATOM      2  C   UNL     1       9.980  -2.822   2.763  0.00  0.00    +0.054 A 
ATOM      3  C   UNL     1      10.668  -1.672   2.363  0.00  0.00    +0.100 A 
ATOM      4  N   UNL     1      11.394  -1.258   3.384  0.00  0.00    -0.171 NA
ATOM      5  N   UNL     1      11.186  -2.135   4.460  0.00  0.00    -0.246 N 
ATOM      6  H   UNL     1      11.594  -2.068   5.337  0.00  0.00    +0.192 HD
ATOM      7  C   UNL     1      10.317  -3.086   4.059  0.00  0.00    +0.223 A 
ATOM      8  O   UNL     1       9.818  -4.145   4.744  0.00  0.00    -0.423 OA
ATOM      9  C   UNL     1       9.183  -5.103   4.038  0.00  0.00    +0.200 C 
ATOM     10  C   UNL     1       8.789  -4.954   2.753  0.00  0.00    +0.098 C 
ENDROOT
BRANCH   3  11
ATOM     11  C   UNL     1      10.595  -1.032   1.026  0.00  0.00    +0.003 A 
ATOM     12  C   UNL     1      10.446  -1.815  -0.117  0.00  0.00    +0.013 A 
ATOM     13  C   UNL     1      10.379  -1.215  -1.357  0.00  0.00    +0.039 A 
ATOM     14  C   UNL     1      10.458   0.163  -1.468  0.00  0.00    +0.123 A 
ATOM     15  C   UNL     1      10.606   0.946  -0.335  0.00  0.00    +0.039 A 
ATOM     16  C   UNL     1      10.669   0.355   0.911  0.00  0.00    +0.013 A 
ATOM     17  F   UNL     1      10.391   0.747  -2.685  0.00  0.00    -0.205 F 
ENDBRANCH   3  11
BRANCH   1  21
ATOM     18  C   UNL     1       5.319  -1.608   1.467  0.00  0.00    +0.121 A 
ATOM     19  C   UNL     1       6.049  -2.011   0.358  0.00  0.00    +0.046 A 
ATOM     20  C   UNL     1       7.246  -2.680   0.527  0.00  0.00    +0.008 A 
ATOM     21  C   UNL     1       7.716  -2.949   1.799  0.00  0.00    -0.034 A 
ATOM     22  C   UNL     1       6.990  -2.550   2.905  0.00  0.00    +0.008 A 
ATOM     23  C   UNL     1       5.795  -1.875   2.743  0.00  0.00    +0.046 A 
BRANCH  18  24
ATOM     24  O   UNL     1       4.142  -0.949   1.304  0.00  0.00    -0.487 OA
BRANCH  24  25
ATOM     25  C   UNL     1       3.713  -0.710  -0.038  0.00  0.00    +0.268 C 
BRANCH  25  29
ATOM     26  C   UNL     1      -0.017   1.378   0.010  0.00  0.00    +0.004 A 
ATOM     27  C   UNL     1       1.170   2.086   0.002  0.00  0.00    +0.039 A 
ATOM     28  C   UNL     1       2.379   1.411  -0.013  0.00  0.00    +0.131 A 
ATOM     29  C   UNL     1       2.398   0.026  -0.021  0.00  0.00    +0.043 A 
ATOM     30  C   UNL     1       1.209  -0.680  -0.013  0.00  0.00    +0.050 A 
ATOM     31  C   UNL     1       0.002  -0.004   0.002  0.00  0.00    +0.020 A 
ATOM     32 CL   UNL     1       1.232  -2.416  -0.022  0.00  0.00    -0.083 Cl
ATOM     33  F   UNL     1       3.539   2.103  -0.021  0.00  0.00    -0.205 F 
ENDBRANCH  25  29
ENDBRANCH  24  25
ENDBRANCH  18  24
ENDBRANCH   1  21
BRANCH   9  34
ATOM     34  N   UNL     1       8.922  -6.298   4.659  0.00  0.00    -0.328 N 
ATOM     35  H   UNL     1       9.193  -6.435   5.581  0.00  0.00    +0.145 HD
ATOM     36  H   UNL     1       8.466  -7.006   4.177  0.00  0.00    +0.145 HD
ENDBRANCH   9  34
BRANCH  10  37
ATOM     37  C   UNL     1       8.126  -6.045   2.102  0.00  0.00    +0.101 C 
ATOM     38  N   UNL     1       7.600  -6.910   1.587  0.00  0.00    -0.191 NA
ENDBRANCH  10  37
TORSDOF 7
