REMARK  Name = ZINC16718100
REMARK  8 active torsions:
REMARK  status: ('A' for Active; 'I' for Inactive)
REMARK    1  A    between atoms: C_1  and  C_2
REMARK    2  A    between atoms: C_2  and  C_4
REMARK    3  A    between atoms: C_2  and  S_17
REMARK    4  A    between atoms: S_17  and  C_18
REMARK    5  A    between atoms: N_28  and  C_29
REMARK    6  A    between atoms: C_34  and  C_35
REMARK    7  A    between atoms: C_35  and  C_36
REMARK    8  A    between atoms: C_35  and  C_37
REMARK                            x       y       z     vdW  Elec       q    Type
REMARK                         _______ _______ _______ _____ _____    ______ ____
ROOT
ATOM      1  C   UNL     1      -2.365  -0.093  -1.525  0.00  0.00    +0.177 A 
ATOM      2  N   UNL     1      -1.593   0.592  -2.333  0.00  0.00    -0.223 NA
ATOM      3  C   UNL     1      -2.040   1.035  -3.531  0.00  0.00    +0.079 A 
ATOM      4  C   UNL     1      -1.219   1.766  -4.396  0.00  0.00    +0.028 A 
ATOM      5  C   UNL     1      -1.712   2.194  -5.596  0.00  0.00    +0.002 A 
ATOM      6  C   UNL     1      -3.019   1.914  -5.973  0.00  0.00    +0.001 A 
ATOM      7  C   UNL     1      -3.847   1.202  -5.149  0.00  0.00    +0.015 A 
ATOM      8  C   UNL     1      -3.370   0.752  -3.918  0.00  0.00    +0.065 A 
ATOM      9  C   UNL     1      -4.213  -0.018  -2.994  0.00  0.00    +0.267 A 
ATOM     10  O   UNL     1      -5.366  -0.292  -3.272  0.00  0.00    -0.267 OA
ATOM     11  N   UNL     1      -3.660  -0.414  -1.825  0.00  0.00    -0.255 N 
ENDROOT
BRANCH  11  12
ATOM     12  C   UNL     1      -4.421  -1.155  -0.912  0.00  0.00    +0.055 A 
ATOM     13  C   UNL     1      -5.176  -0.504   0.055  0.00  0.00    +0.026 A 
ATOM     14  C   UNL     1      -5.925  -1.238   0.954  0.00  0.00    +0.002 A 
ATOM     15  C   UNL     1      -5.925  -2.619   0.891  0.00  0.00    +0.000 A 
ATOM     16  C   UNL     1      -5.174  -3.271  -0.070  0.00  0.00    +0.006 A 
ATOM     17  C   UNL     1      -4.427  -2.542  -0.975  0.00  0.00    -0.021 A 
BRANCH  17  18
ATOM     18  C   UNL     1      -3.614  -3.253  -2.026  0.00  0.00    +0.015 C 
ATOM     19  C   UNL     1      -2.593  -4.169  -1.349  0.00  0.00    +0.012 C 
ATOM     20  C   UNL     1      -4.542  -4.089  -2.910  0.00  0.00    +0.012 C 
ENDBRANCH  17  18
ENDBRANCH  11  12
BRANCH   1  21
ATOM     21  S   UNL     1      -1.700  -0.632   0.015  0.00  0.00    -0.075 S 
BRANCH  21  23
ATOM     22  C   UNL     1      -0.019   1.526   0.010  0.00  0.00    +0.029 C 
ATOM     23  C   UNL     1       0.002  -0.004   0.002  0.00  0.00    +0.137 C 
BRANCH  23  24
ATOM     24  C   UNL     1       0.731  -0.503   1.223  0.00  0.00    +0.233 C 
ATOM     25  O   UNL     1       0.105  -0.891   2.187  0.00  0.00    -0.274 OA
ATOM     26  N   UNL     1       2.079  -0.519   1.244  0.00  0.00    -0.260 N 
ATOM     27  C   UNL     1       2.861  -0.048   0.091  0.00  0.00    +0.209 C 
ATOM     28  C   UNL     1       4.015  -0.990  -0.137  0.00  0.00    +0.235 C 
ATOM     29  O   UNL     1       4.459  -1.134  -1.256  0.00  0.00    -0.274 OA
ATOM     30  N   UNL     1       4.561  -1.673   0.887  0.00  0.00    -0.283 N 
ATOM     31  C   UNL     1       4.037  -1.563   2.180  0.00  0.00    +0.055 A 
ATOM     32  C   UNL     1       2.780  -0.979   2.369  0.00  0.00    +0.058 A 
ATOM     33  C   UNL     1       2.247  -0.864   3.640  0.00  0.00    +0.025 A 
ATOM     34  C   UNL     1       2.965  -1.323   4.730  0.00  0.00    +0.002 A 
ATOM     35  C   UNL     1       4.211  -1.895   4.550  0.00  0.00    +0.002 A 
ATOM     36  C   UNL     1       4.750  -2.023   3.275  0.00  0.00    +0.025 A 
ATOM     37  H   UNL     1       5.325  -2.248   0.727  0.00  0.00    +0.155 HD
ENDBRANCH  23  24
ENDBRANCH  21  23
ENDBRANCH   1  21
TORSDOF 5
