REMARK  Name = ZINC08825736
REMARK  6 active torsions:
REMARK  status: ('A' for Active; 'I' for Inactive)
REMARK    1  A    between atoms: C_3  and  S_24
REMARK    2  A    between atoms: C_6  and  C_7
REMARK    3  A    between atoms: C_7  and  C_8
REMARK    4  A    between atoms: C_8  and  N_9
REMARK    5  A    between atoms: C_10  and  C_12
REMARK    6  A    between atoms: S_24  and  N_27
REMARK                            x       y       z     vdW  Elec       q    Type
REMARK                         _______ _______ _______ _____ _____    ______ ____
ROOT
ATOM      1  N   UNL     1       1.140   2.158   0.003  0.00  0.00    -0.311 N 
ATOM      2  C   UNL     1      -0.018   1.468   0.010  0.00  0.00    +0.251 C 
ATOM      3  O   UNL     1      -1.079   2.062   0.018  0.00  0.00    -0.270 OA
ATOM      4  H   UNL     1       1.986   1.685  -0.008  0.00  0.00    +0.149 HD
ENDROOT
BRANCH   2   5
ATOM      5  C   UNL     1       0.002  -0.004   0.002  0.00  0.00    +0.122 A 
ATOM      6  C   UNL     1       1.203  -0.692  -0.019  0.00  0.00    +0.031 A 
ATOM      7  C   UNL     1       1.175  -2.110  -0.021  0.00  0.00    +0.019 A 
ATOM      8  C   UNL     1       2.374  -2.839  -0.037  0.00  0.00    +0.026 A 
ATOM      9  C   UNL     1       2.340  -4.204  -0.044  0.00  0.00    +0.019 A 
ATOM     10  C   UNL     1       1.126  -4.878  -0.036  0.00  0.00    +0.019 A 
ATOM     11  C   UNL     1      -0.064  -4.181  -0.021  0.00  0.00    +0.048 A 
ATOM     12  C   UNL     1      -0.055  -2.791  -0.013  0.00  0.00    +0.139 A 
ATOM     13  O   UNL     1      -1.222  -2.111   0.002  0.00  0.00    -0.422 OA
ATOM     14  C   UNL     1      -1.251  -0.768   0.010  0.00  0.00    +0.350 A 
ATOM     15  O   UNL     1      -2.318  -0.184   0.023  0.00  0.00    -0.244 OA
ATOM     16 BR   UNL     1       3.958  -5.184  -0.064  0.00  0.00    -0.050 Br
ENDBRANCH   2   5
BRANCH   1  17
ATOM     17  C   UNL     1       1.120   3.623   0.011  0.00  0.00    +0.109 C 
BRANCH  17  18
ATOM     18  C   UNL     1       2.555   4.153   0.000  0.00  0.00    +0.054 C 
BRANCH  18  24
ATOM     19  C   UNL     1       2.520   6.357  -1.185  0.00  0.00    +0.005 A 
ATOM     20  C   UNL     1       2.497   7.739  -1.177  0.00  0.00    +0.029 A 
ATOM     21  C   UNL     1       2.498   8.424   0.023  0.00  0.00    +0.105 A 
ATOM     22  C   UNL     1       2.518   7.726   1.217  0.00  0.00    +0.029 A 
ATOM     23  C   UNL     1       2.537   6.344   1.209  0.00  0.00    +0.005 A 
ATOM     24  C   UNL     1       2.535   5.659   0.008  0.00  0.00    -0.046 A 
BRANCH  21  25
ATOM     25  S   UNL     1       2.473  10.186   0.033  0.00  0.00    +0.056 S 
ATOM     26  O   UNL     1       1.905  10.591  -1.205  0.00  0.00    -0.153 OA
ATOM     27  O   UNL     1       1.927  10.577   1.286  0.00  0.00    -0.153 OA
BRANCH  25  28
ATOM     28  N   UNL     1       4.048  10.698   0.022  0.00  0.00    -0.204 NA
ATOM     29  H   UNL     1       4.769  10.049   0.012  0.00  0.00    +0.144 HD
ATOM     30  H   UNL     1       4.249  11.647   0.025  0.00  0.00    +0.144 HD
ENDBRANCH  25  28
ENDBRANCH  21  25
ENDBRANCH  18  24
ENDBRANCH  17  18
ENDBRANCH   1  17
TORSDOF 6
