REMARK  Name = ZINC40959320
REMARK  12 active torsions:
REMARK  status: ('A' for Active; 'I' for Inactive)
REMARK    1  A    between atoms: C_1  and  C_2
REMARK    2  A    between atoms: C_2  and  C_3
REMARK    3  A    between atoms: C_6  and  O_10
REMARK    4  A    between atoms: O_10  and  C_11
REMARK    5  A    between atoms: C_11  and  C_12
REMARK    6  A    between atoms: C_12  and  C_13
REMARK    7  A    between atoms: C_13  and  C_14
REMARK    8  A    between atoms: N_16  and  N_17
REMARK    9  A    between atoms: C_18  and  C_19
REMARK   10  A    between atoms: C_21  and  O_27
REMARK   11  A    between atoms: C_22  and  O_26
REMARK   12  A    between atoms: O_27  and  C_28
REMARK                            x       y       z     vdW  Elec       q    Type
REMARK                         _______ _______ _______ _____ _____    ______ ____
ROOT
ATOM      1  C   UNL     1       2.725  -3.240  -9.319  0.00  0.00    +0.232 C 
ATOM      2  O   UNL     1       3.917  -3.384  -9.148  0.00  0.00    -0.274 OA
ATOM      3  N   UNL     1       2.179  -3.510 -10.521  0.00  0.00    -0.207 N 
ATOM      4  H   UNL     1       1.225  -3.395 -10.657  0.00  0.00    +0.177 HD
ENDROOT
BRANCH   3   5
ATOM      5  N   UNL     1       2.988  -3.958 -11.573  0.00  0.00    -0.188 NA
ATOM      6  C   UNL     1       2.462  -4.218 -12.730  0.00  0.00    +0.138 C 
BRANCH   6   7
ATOM      7  C   UNL     1       3.313  -4.690 -13.838  0.00  0.00    -0.001 A 
ATOM      8  C   UNL     1       2.749  -4.965 -15.087  0.00  0.00    +0.059 A 
ATOM      9  C   UNL     1       3.552  -5.407 -16.122  0.00  0.00    +0.163 A 
ATOM     10  C   UNL     1       4.920  -5.577 -15.919  0.00  0.00    +0.173 A 
ATOM     11  C   UNL     1       5.480  -5.304 -14.679  0.00  0.00    +0.063 A 
ATOM     12  C   UNL     1       4.686  -4.857 -13.643  0.00  0.00    +0.028 A 
ATOM     13 BR   UNL     1       7.338  -5.537 -14.412  0.00  0.00    -0.046 Br
BRANCH  10  14
ATOM     14  O   UNL     1       5.707  -6.013 -16.938  0.00  0.00    -0.503 OA
ATOM     15  H   UNL     1       6.076  -5.303 -17.481  0.00  0.00    +0.292 HD
ENDBRANCH  10  14
BRANCH   9  16
ATOM     16  O   UNL     1       3.006  -5.676 -17.338  0.00  0.00    -0.491 OA
ATOM     17  C   UNL     1       1.597  -5.479 -17.474  0.00  0.00    +0.277 C 
ENDBRANCH   9  16
ENDBRANCH   6   7
ENDBRANCH   3   5
BRANCH   1  18
ATOM     18  C   UNL     1       1.854  -2.758  -8.187  0.00  0.00    +0.101 C 
BRANCH  18  19
ATOM     19  C   UNL     1       2.716  -2.527  -6.943  0.00  0.00    +0.050 C 
BRANCH  19  20
ATOM     20  C   UNL     1       1.832  -2.038  -5.794  0.00  0.00    +0.229 C 
BRANCH  20  21
ATOM     21  O   UNL     1       2.637  -1.822  -4.633  0.00  0.00    -0.491 OA
BRANCH  21  25
ATOM     22  C   UNL     1       0.707  -0.490  -1.238  0.00  0.00    -0.046 A 
ATOM     23  C   UNL     1      -0.012  -0.718  -2.397  0.00  0.00    +0.007 A 
ATOM     24  C   UNL     1       0.632  -1.164  -3.535  0.00  0.00    +0.047 A 
ATOM     25  C   UNL     1       2.002  -1.383  -3.515  0.00  0.00    +0.134 A 
ATOM     26  C   UNL     1       2.722  -1.153  -2.351  0.00  0.00    +0.060 A 
ATOM     27  C   UNL     1       2.073  -0.702  -1.216  0.00  0.00    +0.022 A 
ATOM     28 BR   UNL     1       4.589  -1.450  -2.319  0.00  0.00    -0.047 Br
BRANCH  22  30
ATOM     29  C   UNL     1      -0.019   1.526   0.010  0.00  0.00    +0.009 C 
ATOM     30  C   UNL     1       0.002  -0.004   0.002  0.00  0.00    +0.032 C 
ENDBRANCH  22  30
ENDBRANCH  21  25
ENDBRANCH  20  21
ENDBRANCH  19  20
ENDBRANCH  18  19
ENDBRANCH   1  18
TORSDOF 10
