REMARK  Name = ZINC25166218
REMARK  4 active torsions:
REMARK  status: ('A' for Active; 'I' for Inactive)
REMARK    1  A    between atoms: C_1  and  C_2
REMARK    2  A    between atoms: C_2  and  C_3
REMARK    3  A    between atoms: N_10  and  C_13
REMARK    4  A    between atoms: C_13  and  C_14
REMARK                            x       y       z     vdW  Elec       q    Type
REMARK                         _______ _______ _______ _____ _____    ______ ____
ROOT
ATOM      1  C   UNL     1      -6.086   6.585   3.004  0.00  0.00    -0.008 A 
ATOM      2  C   UNL     1      -5.127   6.314   2.104  0.00  0.00    +0.026 A 
ATOM      3  C   UNL     1      -4.016   5.463   2.487  0.00  0.00    +0.072 A 
ATOM      4  C   UNL     1      -4.057   4.991   3.811  0.00  0.00    +0.115 A 
ATOM      5  S   UNL     1      -5.551   5.699   4.455  0.00  0.00    -0.073 S 
ATOM      6  N   UNL     1      -3.108   4.202   4.306  0.00  0.00    -0.230 NA
ATOM      7  C   UNL     1      -2.092   3.831   3.575  0.00  0.00    +0.203 A 
ATOM      8  N   UNL     1      -1.968   4.239   2.286  0.00  0.00    -0.298 N 
ATOM      9  C   UNL     1      -2.884   5.043   1.715  0.00  0.00    +0.262 A 
ATOM     10  O   UNL     1      -2.756   5.404   0.558  0.00  0.00    -0.267 OA
ENDROOT
BRANCH   1  12
ATOM     11  C   UNL     1      -8.473   6.563   2.333  0.00  0.00    +0.009 C 
ATOM     12  C   UNL     1      -7.318   7.435   2.829  0.00  0.00    +0.039 C 
ENDBRANCH   1  12
BRANCH   8  13
ATOM     13  C   UNL     1      -0.811   3.799   1.502  0.00  0.00    +0.132 C 
BRANCH  13  14
ATOM     14  C   UNL     1      -1.145   2.486   0.792  0.00  0.00    +0.047 C 
ATOM     15  C   UNL     1      -1.160   2.494  -0.739  0.00  0.00    +0.047 C 
ATOM     16  C   UNL     1      -0.022   1.799   0.012  0.00  0.00    +0.123 C 
ATOM     17 CL   UNL     1       0.002  -0.004   0.002  0.00  0.00    -0.101 Cl
ATOM     18 CL   UNL     1       1.593   2.598   0.001  0.00  0.00    -0.101 Cl
ENDBRANCH  13  14
ENDBRANCH   8  13
TORSDOF 3
