REMARK  Name = ZINC13981136
REMARK  9 active torsions:
REMARK  status: ('A' for Active; 'I' for Inactive)
REMARK    1  A    between atoms: C_1  and  C_2
REMARK    2  A    between atoms: C_4  and  C_29
REMARK    3  A    between atoms: C_6  and  O_8
REMARK    4  A    between atoms: O_8  and  C_9
REMARK    5  A    between atoms: C_9  and  C_10
REMARK    6  A    between atoms: N_12  and  N_13
REMARK    7  A    between atoms: N_13  and  C_14
REMARK    8  A    between atoms: C_14  and  N_16
REMARK    9  A    between atoms: C_17  and  C_19
REMARK                            x       y       z     vdW  Elec       q    Type
REMARK                         _______ _______ _______ _____ _____    ______ ____
ROOT
ATOM      1  N   UNL     1       6.288   6.013  -0.028  0.00  0.00    -0.245 N 
ATOM      2  H   UNL     1       7.065   5.432  -0.039  0.00  0.00    +0.172 HD
ENDROOT
BRANCH   1   5
ATOM      3  C   UNL     1       4.841   4.123  -0.024  0.00  0.00    +0.267 C 
ATOM      4  O   UNL     1       5.812   3.397  -0.037  0.00  0.00    -0.271 OA
ATOM      5  N   UNL     1       5.000   5.461  -0.018  0.00  0.00    -0.232 N 
ATOM      6  H   UNL     1       4.224   6.043  -0.008  0.00  0.00    +0.173 HD
BRANCH   3   7
ATOM      7  C   UNL     1       3.456   3.530  -0.013  0.00  0.00    +0.326 C 
BRANCH   7   8
ATOM      8  O   UNL     1       3.548   2.104  -0.021  0.00  0.00    -0.483 OA
BRANCH   8  14
ATOM      9  C   UNL     1      -1.332   2.114   0.020  0.00  0.00    +0.044 C 
ATOM     10  C   UNL     1      -0.017   1.378   0.010  0.00  0.00    -0.047 A 
ATOM     11  C   UNL     1       0.002  -0.004   0.002  0.00  0.00    +0.007 A 
ATOM     12  C   UNL     1       1.207  -0.681  -0.013  0.00  0.00    -0.047 A 
ATOM     13  C   UNL     1       2.396   0.022  -0.020  0.00  0.00    +0.049 A 
ATOM     14  C   UNL     1       2.380   1.409  -0.013  0.00  0.00    +0.122 A 
ATOM     15  C   UNL     1       1.169   2.087   0.002  0.00  0.00    +0.049 A 
ATOM     16  C   UNL     1       1.224  -2.188  -0.020  0.00  0.00    +0.044 C 
ENDBRANCH   8  14
ENDBRANCH   7   8
ENDBRANCH   3   7
ENDBRANCH   1   5
BRANCH   1  17
ATOM     17  C   UNL     1       6.448   7.351  -0.023  0.00  0.00    +0.153 C 
ATOM     18  S   UNL     1       8.022   8.026  -0.035  0.00  0.00    -0.017 S 
BRANCH  17  19
ATOM     19  N   UNL     1       5.369   8.159  -0.008  0.00  0.00    -0.262 N 
ATOM     20  C   UNL     1       5.529   9.497  -0.003  0.00  0.00    +0.258 C 
ATOM     21  O   UNL     1       6.647   9.976  -0.012  0.00  0.00    -0.269 OA
ATOM     22  H   UNL     1       4.477   7.777  -0.002  0.00  0.00    +0.157 HD
BRANCH  20  23
ATOM     23  C   UNL     1       4.354  10.376   0.013  0.00  0.00    +0.094 A 
ATOM     24  C   UNL     1       4.313  11.737   0.025  0.00  0.00    +0.068 A 
ATOM     25  C   UNL     1       3.071  12.400   0.035  0.00  0.00    +0.008 A 
ATOM     26  C   UNL     1       2.823  13.797   0.044  0.00  0.00    +0.010 A 
ATOM     27  C   UNL     1       1.552  14.276   0.059  0.00  0.00    +0.001 A 
ATOM     28  C   UNL     1       0.453  13.426   0.067  0.00  0.00    +0.001 A 
ATOM     29  C   UNL     1       0.650  12.060   0.058  0.00  0.00    +0.016 A 
ATOM     30  C   UNL     1       1.934  11.559   0.043  0.00  0.00    +0.021 A 
ATOM     31  S   UNL     1       2.628   9.925   0.028  0.00  0.00    -0.082 S 
ATOM     32 CL   UNL     1       5.788  12.652   0.024  0.00  0.00    -0.082 Cl
ENDBRANCH  20  23
ENDBRANCH  17  19
ENDBRANCH   1  17
TORSDOF 7
