REMARK  Name = ZINC29166644
REMARK  8 active torsions:
REMARK  status: ('A' for Active; 'I' for Inactive)
REMARK    1  A    between atoms: C_1  and  C_2
REMARK    2  A    between atoms: C_2  and  C_3
REMARK    3  A    between atoms: C_3  and  C_5
REMARK    4  A    between atoms: C_3  and  C_6
REMARK    5  A    between atoms: C_6  and  C_8
REMARK    6  A    between atoms: C_6  and  N_18
REMARK    7  A    between atoms: N_10  and  C_11
REMARK    8  A    between atoms: C_11  and  C_12
REMARK                            x       y       z     vdW  Elec       q    Type
REMARK                         _______ _______ _______ _____ _____    ______ ____
ROOT
ATOM      1  C   UNL     1      -2.449   1.120   0.020  0.00  0.00    +0.163 C 
ENDROOT
BRANCH   1   2
ATOM      2  N   UNL     1      -1.191   1.870   0.018  0.00  0.00    -0.288 N 
ATOM      3  C   UNL     1      -0.014   1.212   0.009  0.00  0.00    +0.298 C 
ATOM      4  O   UNL     1       0.002  -0.004   0.002  0.00  0.00    -0.253 OA
ATOM      5  N   UNL     1       1.143   1.901   0.001  0.00  0.00    -0.313 N 
ATOM      6  H   UNL     1      -1.206   2.970   0.024  0.00  0.00    +0.151 HD
ATOM      7  H   UNL     1       2.103   1.364  -0.006  0.00  0.00    +0.146 HD
ATOM      8  H   UNL     1       1.129   3.001   0.003  0.00  0.00    +0.146 HD
ENDBRANCH   1   2
BRANCH   1   9
ATOM      9  C   UNL     1      -2.511   0.246   1.246  0.00  0.00    +0.234 C 
ATOM     10  O   UNL     1      -1.493  -0.039   1.840  0.00  0.00    -0.274 OA
ATOM     11  N   UNL     1      -3.699  -0.219   1.682  0.00  0.00    -0.309 N 
ATOM     12  H   UNL     1      -4.622   0.039   1.143  0.00  0.00    +0.149 HD
BRANCH  11  13
ATOM     13  C   UNL     1      -3.759  -1.069   2.874  0.00  0.00    +0.146 C 
BRANCH  13  14
ATOM     14  C   UNL     1      -5.191  -1.451   3.146  0.00  0.00    +0.008 A 
ATOM     15  C   UNL     1      -5.889  -2.522   2.697  0.00  0.00    +0.014 A 
ATOM     16  C   UNL     1      -7.209  -2.672   3.081  0.00  0.00    +0.023 A 
ATOM     17  C   UNL     1      -7.766  -1.743   3.896  0.00  0.00    +0.055 A 
ATOM     18  S   UNL     1      -6.406  -0.614   4.151  0.00  0.00    -0.085 S 
ATOM     19 BR   UNL     1      -9.524  -1.666   4.589  0.00  0.00    -0.043 Br
ENDBRANCH  13  14
ENDBRANCH  11  13
ENDBRANCH   1   9
BRANCH   1  20
ATOM     20  C   UNL     1      -2.524   0.246  -1.234  0.00  0.00    +0.015 C 
ATOM     21  C   UNL     1      -3.839  -0.537  -1.232  0.00  0.00    +0.010 C 
BRANCH  20  23
ATOM     22  C   UNL     1      -2.410   0.254  -3.730  0.00  0.00    +0.004 C 
ATOM     23  C   UNL     1      -2.461   1.133  -2.479  0.00  0.00    +0.002 C 
ENDBRANCH  20  23
ENDBRANCH   1  20
TORSDOF 6
