REMARK  Name = ZINC53536783
REMARK  9 active torsions:
REMARK  status: ('A' for Active; 'I' for Inactive)
REMARK    1  A    between atoms: C_1  and  C_2
REMARK    2  A    between atoms: C_2  and  C_3
REMARK    3  A    between atoms: C_3  and  C_4
REMARK    4  A    between atoms: C_4  and  C_5
REMARK    5  A    between atoms: N_8  and  C_17
REMARK    6  A    between atoms: C_17  and  C_18
REMARK    7  A    between atoms: C_18  and  C_19
REMARK    8  A    between atoms: N_21  and  C_22
REMARK    9  A    between atoms: C_22  and  C_23
REMARK                            x       y       z     vdW  Elec       q    Type
REMARK                         _______ _______ _______ _____ _____    ______ ____
ROOT
ATOM      1  C   UNL     1      -3.989  -6.113  -0.657  0.00  0.00    -0.069 C 
ENDROOT
BRANCH   1   4
ATOM      2  C   UNL     1      -2.891  -2.561  -0.091  0.00  0.00    +0.157 C 
ATOM      3  C   UNL     1      -2.841  -4.066  -0.228  0.00  0.00    -0.033 C 
ATOM      4  N   UNL     1      -4.153  -4.701  -0.285  0.00  0.00    +0.385 N 
ATOM      5  C   UNL     1      -4.838  -4.623   1.010  0.00  0.00    -0.039 C 
ATOM      6  C   UNL     1      -5.553  -3.288   1.104  0.00  0.00    -0.022 A 
ATOM      7  C   UNL     1      -6.932  -3.240   1.090  0.00  0.00    +0.005 A 
ATOM      8  C   UNL     1      -7.575  -2.019   1.192  0.00  0.00    +0.000 A 
ATOM      9  C   UNL     1      -6.840  -0.855   1.310  0.00  0.00    +0.004 A 
ATOM     10  C   UNL     1      -5.458  -0.903   1.319  0.00  0.00    +0.046 A 
ATOM     11  C   UNL     1      -4.814  -2.126   1.208  0.00  0.00    +0.122 A 
ATOM     12  O   UNL     1      -3.453  -2.183   1.172  0.00  0.00    -0.490 OA
ATOM     13  H   UNL     1      -4.715  -4.239  -0.984  0.00  0.00    -0.081 HD
BRANCH   2  14
ATOM     14  C   UNL     1      -1.472  -1.998  -0.200  0.00  0.00    +0.042 C 
BRANCH  14  15
ATOM     15  C   UNL     1      -1.529  -0.469  -0.204  0.00  0.00    +0.003 C 
BRANCH  15  17
ATOM     16  C   UNL     1      -0.167   1.622  -0.316  0.00  0.00    +0.004 C 
ATOM     17  C   UNL     1      -0.110   0.093  -0.312  0.00  0.00    -0.003 C 
ENDBRANCH  15  17
ENDBRANCH  14  15
ENDBRANCH   2  14
ENDBRANCH   1   4
BRANCH   1  18
ATOM     18  C   UNL     1      -3.457  -6.204  -2.089  0.00  0.00    +0.077 C 
BRANCH  18  19
ATOM     19  C   UNL     1      -3.413  -7.647  -2.518  0.00  0.00    +0.212 C 
ATOM     20  O   UNL     1      -3.773  -8.518  -1.754  0.00  0.00    -0.276 OA
ATOM     21  N   UNL     1      -2.975  -7.971  -3.751  0.00  0.00    -0.308 N 
ATOM     22  H   UNL     1      -2.688  -7.275  -4.362  0.00  0.00    +0.149 HD
BRANCH  21  23
ATOM     23  C   UNL     1      -2.933  -9.375  -4.168  0.00  0.00    +0.178 C 
BRANCH  23  24
ATOM     24  C   UNL     1      -2.409  -9.464  -5.578  0.00  0.00    +0.125 A 
ATOM     25  N   UNL     1      -3.131  -9.329  -6.652  0.00  0.00    -0.231 NA
ATOM     26  C   UNL     1      -2.345  -9.466  -7.751  0.00  0.00    +0.089 A 
ATOM     27  C   UNL     1      -2.594  -9.416  -9.125  0.00  0.00    +0.032 A 
ATOM     28  C   UNL     1      -1.569  -9.598 -10.010  0.00  0.00    +0.040 A 
ATOM     29  C   UNL     1      -0.276  -9.833  -9.558  0.00  0.00    +0.125 A 
ATOM     30  C   UNL     1      -0.008  -9.888  -8.205  0.00  0.00    +0.066 A 
ATOM     31  C   UNL     1      -1.038  -9.705  -7.292  0.00  0.00    +0.069 A 
ATOM     32  N   UNL     1      -1.110  -9.693  -5.914  0.00  0.00    -0.340 N 
ATOM     33  F   UNL     1       0.724 -10.011 -10.448  0.00  0.00    -0.205 F 
ATOM     34  H   UNL     1      -0.371  -9.824  -5.299  0.00  0.00    +0.167 HD
ENDBRANCH  23  24
ENDBRANCH  21  23
ENDBRANCH  18  19
ENDBRANCH   1  18
TORSDOF 8
