REMARK  Name = ZINC13342099
REMARK  6 active torsions:
REMARK  status: ('A' for Active; 'I' for Inactive)
REMARK    1  A    between atoms: C_1  and  N_2
REMARK    2  A    between atoms: C_11  and  S_12
REMARK    3  A    between atoms: S_12  and  C_13
REMARK    4  A    between atoms: C_13  and  C_14
REMARK    5  A    between atoms: N_16  and  C_17
REMARK    6  A    between atoms: C_18  and  C_25
REMARK                            x       y       z     vdW  Elec       q    Type
REMARK                         _______ _______ _______ _____ _____    ______ ____
ROOT
ATOM      1  S   UNL     1      -3.721   0.659   0.800  0.00  0.00    -0.078 S 
ENDROOT
BRANCH   1  12
ATOM      2  C   UNL     1      -1.363  -0.679   1.997  0.00  0.00    +0.154 C 
ATOM      3  N   UNL     1      -1.666   0.636   2.566  0.00  0.00    -0.290 N 
ATOM      4  C   UNL     1      -0.885   1.128   3.546  0.00  0.00    +0.263 A 
ATOM      5  O   UNL     1       0.066   0.486   3.958  0.00  0.00    -0.267 OA
ATOM      6  C   UNL     1      -1.187   2.413   4.097  0.00  0.00    +0.076 A 
ATOM      7  C   UNL     1      -0.480   3.134   5.157  0.00  0.00    -0.023 A 
ATOM      8  C   UNL     1      -0.964   4.344   5.502  0.00  0.00    -0.004 A 
ATOM      9  S   UNL     1      -2.371   4.594   4.453  0.00  0.00    -0.073 S 
ATOM     10  C   UNL     1      -2.304   3.067   3.550  0.00  0.00    +0.117 A 
ATOM     11  N   UNL     1      -3.035   2.527   2.582  0.00  0.00    -0.216 NA
ATOM     12  C   UNL     1      -2.732   1.343   2.089  0.00  0.00    +0.173 A 
ATOM     13  C   UNL     1      -0.426   5.272   6.548  0.00  0.00    +0.043 C 
ATOM     14  C   UNL     1       0.549   4.487   7.438  0.00  0.00    +0.005 C 
ATOM     15  C   UNL     1       1.506   3.698   6.540  0.00  0.00    +0.005 C 
ATOM     16  C   UNL     1       0.752   2.560   5.851  0.00  0.00    +0.037 C 
ENDBRANCH   1  12
BRANCH   1  17
ATOM     17  C   UNL     1      -4.930   1.990   0.593  0.00  0.00    +0.173 C 
BRANCH  17  18
ATOM     18  C   UNL     1      -5.908   1.615  -0.491  0.00  0.00    +0.228 C 
ATOM     19  O   UNL     1      -5.798   0.554  -1.067  0.00  0.00    -0.275 OA
ATOM     20  N   UNL     1      -6.905   2.461  -0.820  0.00  0.00    -0.283 N 
ATOM     21  H   UNL     1      -7.027   3.284  -0.323  0.00  0.00    +0.155 HD
BRANCH  20  22
ATOM     22  C   UNL     1      -7.761   2.151  -1.875  0.00  0.00    +0.066 A 
ATOM     23  C   UNL     1      -9.134   1.979  -1.642  0.00  0.00    +0.087 A 
ATOM     24  C   UNL     1      -9.982   1.669  -2.709  0.00  0.00    +0.037 A 
ATOM     25  C   UNL     1      -9.466   1.534  -3.981  0.00  0.00    +0.043 A 
ATOM     26  C   UNL     1      -8.109   1.704  -4.208  0.00  0.00    +0.042 A 
ATOM     27  C   UNL     1      -7.260   2.016  -3.164  0.00  0.00    +0.064 A 
ATOM     28 CL   UNL     1      -5.563   2.235  -3.462  0.00  0.00    -0.082 Cl
ATOM     29 CL   UNL     1     -10.521   1.149  -5.304  0.00  0.00    -0.083 Cl
BRANCH  23  30
ATOM     30  C   UNL     1      -9.678   2.124  -0.281  0.00  0.00    +0.388 C 
ATOM     31  O   UNL     1      -8.926   2.277   0.661  0.00  0.00    -0.241 OA
ATOM     32  O   UNL     1     -11.010   2.087  -0.080  0.00  0.00    -0.241 OA
ENDBRANCH  23  30
ENDBRANCH  20  22
ENDBRANCH  17  18
ENDBRANCH   1  17
TORSDOF 5
