REMARK  Name = ZINC10924189
REMARK  2 active torsions:
REMARK  status: ('A' for Active; 'I' for Inactive)
REMARK    1  A    between atoms: N_11  and  C_15
REMARK    2  A    between atoms: C_15  and  C_16
REMARK                            x       y       z     vdW  Elec       q    Type
REMARK                         _______ _______ _______ _____ _____    ______ ____
ROOT
ATOM      1  C   UNL     1       1.206  -0.645  -0.013  0.00  0.00    +0.002 A 
ATOM      2  C   UNL     1       0.002  -0.004   0.002  0.00  0.00    +0.009 A 
ATOM      3  C   UNL     1      -0.017   1.401   0.010  0.00  0.00    -0.014 A 
ATOM      4  C   UNL     1      -1.203   2.154   0.019  0.00  0.00    +0.009 A 
ATOM      5  C   UNL     1      -1.139   3.516   0.030  0.00  0.00    +0.003 A 
ATOM      6  C   UNL     1       0.090   4.188   0.022  0.00  0.00    +0.029 A 
ATOM      7  C   UNL     1       1.238   3.486   0.008  0.00  0.00    +0.118 A 
ATOM      8  C   UNL     1       1.216   2.086   0.002  0.00  0.00    +0.031 A 
ATOM      9  C   UNL     1       2.446   1.432  -0.014  0.00  0.00    +0.061 A 
ATOM     10  C   UNL     1       2.415   0.039  -0.021  0.00  0.00    +0.025 A 
ATOM     11  N   UNL     1       3.575   2.269  -0.020  0.00  0.00    -0.194 N 
ATOM     12  S   UNL     1       2.973   3.834  -0.005  0.00  0.00    +0.076 S 
ATOM     13  O   UNL     1       3.286   4.429  -1.257  0.00  0.00    -0.150 OA
ATOM     14  O   UNL     1       3.308   4.418   1.246  0.00  0.00    -0.150 OA
ENDROOT
BRANCH  11  15
ATOM     15  C   UNL     1       4.981   1.859  -0.035  0.00  0.00    +0.227 C 
BRANCH  15  16
ATOM     16  C   UNL     1       5.416   1.606  -1.455  0.00  0.00    +0.235 C 
ATOM     17  O   UNL     1       4.629   1.753  -2.366  0.00  0.00    -0.274 OA
ATOM     18  N   UNL     1       6.680   1.216  -1.713  0.00  0.00    -0.295 N 
ATOM     19  C   UNL     1       7.116   0.966  -3.095  0.00  0.00    +0.113 C 
ATOM     20  C   UNL     1       8.193   2.001  -3.457  0.00  0.00    +0.061 C 
ATOM     21  C   UNL     1       9.132   2.138  -2.303  0.00  0.00    -0.004 A 
ATOM     22  C   UNL     1       8.941   1.733  -1.017  0.00  0.00    -0.020 A 
ATOM     23  C   UNL     1       9.979   1.986  -0.122  0.00  0.00    +0.013 A 
ATOM     24  C   UNL     1      11.107   2.600  -0.548  0.00  0.00    +0.046 A 
ATOM     25  S   UNL     1      10.751   2.862  -2.279  0.00  0.00    -0.101 S 
ATOM     26  C   UNL     1       7.644   1.041  -0.619  0.00  0.00    +0.143 C 
ENDBRANCH  15  16
ENDBRANCH  11  15
TORSDOF 2
