REMARK  Name = ZINC12482878
REMARK  8 active torsions:
REMARK  status: ('A' for Active; 'I' for Inactive)
REMARK    1  A    between atoms: C_1  and  C_2
REMARK    2  A    between atoms: C_7  and  O_8
REMARK    3  A    between atoms: O_8  and  C_9
REMARK    4  A    between atoms: C_9  and  C_10
REMARK    5  A    between atoms: N_12  and  N_13
REMARK    6  A    between atoms: C_14  and  C_15
REMARK    7  A    between atoms: C_18  and  O_22
REMARK    8  A    between atoms: C_20  and  O_21
REMARK                            x       y       z     vdW  Elec       q    Type
REMARK                         _______ _______ _______ _____ _____    ______ ____
ROOT
ATOM      1  C   UNL     1      -2.552   5.448   0.044  0.00  0.00    +0.270 C 
ATOM      2  O   UNL     1      -1.508   6.066   0.042  0.00  0.00    -0.270 OA
ATOM      3  N   UNL     1      -2.537   4.100   0.036  0.00  0.00    -0.204 N 
ATOM      4  H   UNL     1      -3.371   3.606   0.038  0.00  0.00    +0.177 HD
ENDROOT
BRANCH   3   5
ATOM      5  N   UNL     1      -1.315   3.413   0.027  0.00  0.00    -0.188 NA
ATOM      6  C   UNL     1      -1.301   2.115   0.020  0.00  0.00    +0.142 C 
BRANCH   6   7
ATOM      7  C   UNL     1      -0.017   1.393   0.010  0.00  0.00    +0.036 A 
ATOM      8  C   UNL     1       0.002  -0.004   0.002  0.00  0.00    +0.016 A 
ATOM      9  C   UNL     1       1.205  -0.675  -0.013  0.00  0.00    +0.046 A 
ATOM     10  C   UNL     1       2.401   0.032  -0.021  0.00  0.00    +0.120 A 
ATOM     11  C   UNL     1       2.393   1.419  -0.014  0.00  0.00    +0.091 A 
ATOM     12  C   UNL     1       1.191   2.105   0.002  0.00  0.00    +0.129 A 
BRANCH  12  13
ATOM     13  O   UNL     1       1.182   3.463   0.009  0.00  0.00    -0.506 OA
ATOM     14  H   UNL     1       1.187   3.852   0.894  0.00  0.00    +0.292 HD
ENDBRANCH  12  13
BRANCH  10  15
ATOM     15  O   UNL     1       3.583  -0.637  -0.037  0.00  0.00    -0.507 OA
ATOM     16  H   UNL     1       3.916  -0.826  -0.925  0.00  0.00    +0.292 HD
ENDBRANCH  10  15
ENDBRANCH   6   7
ENDBRANCH   3   5
BRANCH   1  17
ATOM     17  C   UNL     1      -3.865   6.187   0.054  0.00  0.00    +0.326 C 
BRANCH  17  18
ATOM     18  O   UNL     1      -3.620   7.594   0.060  0.00  0.00    -0.481 OA
BRANCH  18  25
ATOM     19  C   UNL     1      -4.650   8.361   2.576  0.00  0.00    +0.047 C 
ATOM     20  C   UNL     1      -5.257   8.820   1.275  0.00  0.00    -0.007 A 
ATOM     21  C   UNL     1      -6.362   9.650   1.283  0.00  0.00    +0.022 A 
ATOM     22  C   UNL     1      -6.920  10.072   0.090  0.00  0.00    +0.019 A 
ATOM     23  C   UNL     1      -6.373   9.664  -1.114  0.00  0.00    +0.034 A 
ATOM     24  C   UNL     1      -5.265   8.839  -1.127  0.00  0.00    +0.061 A 
ATOM     25  C   UNL     1      -4.707   8.410   0.070  0.00  0.00    +0.138 A 
ATOM     26 BR   UNL     1      -4.514   8.287  -2.772  0.00  0.00    -0.046 Br
ATOM     27 BR   UNL     1      -8.432  11.207   0.104  0.00  0.00    -0.050 Br
ENDBRANCH  18  25
ENDBRANCH  17  18
ENDBRANCH   1  17
TORSDOF 7
