REMARK  Name = ZINC34787894
REMARK  7 active torsions:
REMARK  status: ('A' for Active; 'I' for Inactive)
REMARK    1  A    between atoms: C_1  and  C_2
REMARK    2  A    between atoms: C_2  and  C_3
REMARK    3  A    between atoms: C_4  and  C_21
REMARK    4  A    between atoms: C_8  and  S_19
REMARK    5  A    between atoms: C_13  and  C_18
REMARK    6  A    between atoms: C_15  and  C_17
REMARK    7  A    between atoms: S_19  and  C_20
REMARK                            x       y       z     vdW  Elec       q    Type
REMARK                         _______ _______ _______ _____ _____    ______ ____
ROOT
ATOM      1  C   UNL     1      -1.412  -0.526   0.013  0.00  0.00    -0.026 A 
ATOM      2  C   UNL     1      -2.004  -0.856   1.170  0.00  0.00    -0.007 A 
ATOM      3  S   UNL     1      -3.625  -1.403   0.666  0.00  0.00    -0.073 S 
ATOM      4  C   UNL     1      -3.462  -1.173  -1.084  0.00  0.00    +0.115 A 
ATOM      5  C   UNL     1      -2.151  -0.671  -1.229  0.00  0.00    +0.043 A 
ATOM      6  C   UNL     1      -1.748  -0.387  -2.565  0.00  0.00    +0.111 A 
ATOM      7  N   UNL     1      -2.599  -0.600  -3.556  0.00  0.00    -0.204 NA
ATOM      8  C   UNL     1      -3.821  -1.070  -3.347  0.00  0.00    +0.254 A 
ATOM      9  N   UNL     1      -4.247  -1.361  -2.127  0.00  0.00    -0.203 NA
ATOM     10  N   UNL     1      -4.671  -1.272  -4.434  0.00  0.00    -0.202 N 
ATOM     11  C   UNL     1      -4.373  -1.035  -5.739  0.00  0.00    +0.045 A 
ATOM     12  C   UNL     1      -5.462  -1.359  -6.473  0.00  0.00    +0.048 A 
ATOM     13  C   UNL     1      -6.457  -1.807  -5.595  0.00  0.00    +0.061 A 
ATOM     14  N   UNL     1      -5.983  -1.761  -4.377  0.00  0.00    -0.169 NA
ATOM     15  C   UNL     1      -7.836  -2.269  -5.988  0.00  0.00    +0.067 C 
ATOM     16  C   UNL     1      -3.066  -0.507  -6.271  0.00  0.00    +0.066 C 
ATOM     17  C   UNL     1      -1.435  -0.783   2.563  0.00  0.00    +0.052 C 
ENDROOT
BRANCH   1  19
ATOM     18  C   UNL     1       0.969  -1.156  -0.279  0.00  0.00    +0.009 C 
ATOM     19  C   UNL     1       0.002  -0.004   0.002  0.00  0.00    +0.033 C 
ENDBRANCH   1  19
BRANCH   6  20
ATOM     20  S   UNL     1      -0.135   0.240  -2.895  0.00  0.00    -0.109 S 
ATOM     21  C   UNL     1      -0.101   0.436  -4.698  0.00  0.00    +0.091 C 
ENDBRANCH   6  20
TORSDOF 2
