REMARK  Name = ZINC40561057
REMARK  15 active torsions:
REMARK  status: ('A' for Active; 'I' for Inactive)
REMARK    1  A    between atoms: C_1  and  C_2
REMARK    2  A    between atoms: C_2  and  N_3
REMARK    3  A    between atoms: N_3  and  C_4
REMARK    4  A    between atoms: N_3  and  C_6
REMARK    5  A    between atoms: C_4  and  C_5
REMARK    6  A    between atoms: C_6  and  C_7
REMARK    7  A    between atoms: C_7  and  N_8
REMARK    8  A    between atoms: C_9  and  C_26
REMARK    9  A    between atoms: C_17  and  C_24
REMARK   10  A    between atoms: C_28  and  O_36
REMARK   11  A    between atoms: C_29  and  O_34
REMARK   12  A    between atoms: C_30  and  O_32
REMARK   13  A    between atoms: O_32  and  C_33
REMARK   14  A    between atoms: O_34  and  C_35
REMARK   15  A    between atoms: O_36  and  C_37
REMARK                            x       y       z     vdW  Elec       q    Type
REMARK                         _______ _______ _______ _____ _____    ______ ____
ROOT
ATOM      1  N   UNL     1       1.352  -4.018  -2.683  0.00  0.00    -0.285 N 
ATOM      2  C   UNL     1       2.206  -5.017  -2.019  0.00  0.00    +0.145 C 
ATOM      3  C   UNL     1       1.678  -6.349  -2.441  0.00  0.00    +0.072 A 
ATOM      4  C   UNL     1       2.118  -7.710  -2.116  0.00  0.00    +0.199 A 
ATOM      5  O   UNL     1       2.946  -7.956  -1.257  0.00  0.00    -0.287 OA
ATOM      6  C   UNL     1       1.458  -8.758  -2.934  0.00  0.00    +0.066 A 
ATOM      7  C   UNL     1       1.909 -10.078  -2.887  0.00  0.00    +0.035 A 
ATOM      8  C   UNL     1       1.288 -11.037  -3.657  0.00  0.00    +0.045 A 
ATOM      9  C   UNL     1       0.220 -10.689  -4.475  0.00  0.00    -0.029 A 
ATOM     10  C   UNL     1      -0.234  -9.391  -4.528  0.00  0.00    +0.051 A 
ATOM     11  C   UNL     1       0.376  -8.402  -3.756  0.00  0.00    +0.140 A 
ATOM     12  O   UNL     1      -0.096  -7.136  -3.820  0.00  0.00    -0.450 OA
ATOM     13  C   UNL     1       0.612  -6.131  -3.268  0.00  0.00    +0.199 A 
ATOM     14  C   UNL     1       0.423  -4.677  -3.405  0.00  0.00    +0.283 C 
ATOM     15  O   UNL     1      -0.443  -4.148  -4.074  0.00  0.00    -0.267 OA
ATOM     16  C   UNL     1      -0.449 -11.746  -5.316  0.00  0.00    +0.045 C 
ATOM     17 CL   UNL     1       1.841 -12.682  -3.605  0.00  0.00    -0.083 Cl
ENDROOT
BRANCH   2  18
ATOM     18  C   UNL     1       3.636  -4.857  -2.466  0.00  0.00    -0.015 A 
ATOM     19  C   UNL     1       3.916  -4.572  -3.790  0.00  0.00    +0.055 A 
ATOM     20  C   UNL     1       5.231  -4.425  -4.205  0.00  0.00    +0.165 A 
ATOM     21  C   UNL     1       6.267  -4.564  -3.290  0.00  0.00    +0.204 A 
ATOM     22  C   UNL     1       5.981  -4.851  -1.960  0.00  0.00    +0.165 A 
ATOM     23  C   UNL     1       4.663  -4.991  -1.552  0.00  0.00    +0.055 A 
BRANCH  22  24
ATOM     24  O   UNL     1       6.991  -4.989  -1.060  0.00  0.00    -0.491 OA
ATOM     25  C   UNL     1       6.623  -5.283   0.289  0.00  0.00    +0.277 C 
ENDBRANCH  22  24
BRANCH  21  26
ATOM     26  O   UNL     1       7.559  -4.421  -3.694  0.00  0.00    -0.488 OA
ATOM     27  C   UNL     1       8.117  -3.107  -3.631  0.00  0.00    +0.277 C 
ENDBRANCH  21  26
BRANCH  20  28
ATOM     28  O   UNL     1       5.506  -4.145  -5.507  0.00  0.00    -0.491 OA
ATOM     29  C   UNL     1       4.392  -4.015  -6.393  0.00  0.00    +0.277 C 
ENDBRANCH  20  28
ENDBRANCH   2  18
BRANCH   1  30
ATOM     30  C   UNL     1       1.484  -2.563  -2.572  0.00  0.00    +0.090 C 
BRANCH  30  31
ATOM     31  C   UNL     1       0.646  -2.063  -1.393  0.00  0.00    -0.060 C 
BRANCH  31  32
ATOM     32  N   UNL     1       0.874  -0.624  -1.207  0.00  0.00    +0.380 N 
ATOM     33  H   UNL     1       1.863  -0.451  -1.102  0.00  0.00    -0.082 HD
BRANCH  32  35
ATOM     34  C   UNL     1       0.718   1.591  -2.240  0.00  0.00    -0.017 C 
ATOM     35  C   UNL     1       0.370   0.108  -2.377  0.00  0.00    -0.082 C 
ENDBRANCH  32  35
BRANCH  32  36
ATOM     36  C   UNL     1       0.167  -0.168  -0.002  0.00  0.00    -0.082 C 
ATOM     37  C   UNL     1       0.798  -0.812   1.234  0.00  0.00    -0.017 C 
ENDBRANCH  32  36
ENDBRANCH  31  32
ENDBRANCH  30  31
ENDBRANCH   1  30
TORSDOF 9
