REMARK  Name = ZINC40885228
REMARK  2 active torsions:
REMARK  status: ('A' for Active; 'I' for Inactive)
REMARK    1  A    between atoms: C_1  and  C_2
REMARK    2  A    between atoms: C_15  and  C_18
REMARK                            x       y       z     vdW  Elec       q    Type
REMARK                         _______ _______ _______ _____ _____    ______ ____
ROOT
ATOM      1  C   UNL     1      -0.639   1.457   0.186  0.00  0.00    +0.044 C 
ATOM      2  C   UNL     1      -0.453  -0.037   0.131  0.00  0.00    -0.050 A 
ATOM      3  C   UNL     1      -0.454  -0.688  -1.090  0.00  0.00    +0.005 A 
ATOM      4  C   UNL     1      -0.286  -2.057  -1.140  0.00  0.00    +0.024 A 
ATOM      5  C   UNL     1      -0.115  -2.781   0.035  0.00  0.00    +0.038 A 
ATOM      6  C   UNL     1      -0.111  -2.128   1.258  0.00  0.00    -0.026 A 
ATOM      7  C   UNL     1      -0.277  -0.753   1.299  0.00  0.00    +0.008 A 
ATOM      8  C   UNL     1       0.082  -2.877   2.550  0.00  0.00    +0.038 C 
ATOM      9  C   UNL     1      -0.249  -4.358   2.364  0.00  0.00    +0.024 C 
ATOM     10  C   UNL     1       0.525  -4.891   1.152  0.00  0.00    +0.113 C 
ATOM     11  N   UNL     1       0.050  -4.169  -0.037  0.00  0.00    -0.283 N 
ATOM     12  C   UNL     1      -0.233  -4.855  -1.214  0.00  0.00    +0.148 A 
ATOM     13  C   UNL     1      -1.527  -5.308  -1.468  0.00  0.00    +0.047 A 
ATOM     14  C   UNL     1      -1.756  -5.985  -2.655  0.00  0.00    +0.030 A 
ATOM     15  C   UNL     1      -0.684  -6.170  -3.518  0.00  0.00    +0.078 A 
ATOM     16  N   UNL     1       0.507  -5.708  -3.197  0.00  0.00    -0.151 NA
ATOM     17  N   UNL     1       0.726  -5.075  -2.102  0.00  0.00    -0.134 NA
ENDROOT
BRANCH  15  18
ATOM     18  C   UNL     1      -0.884  -6.901  -4.821  0.00  0.00    +0.165 C 
ATOM     19 CL   UNL     1      -1.328  -5.721  -6.109  0.00  0.00    -0.119 Cl
ENDBRANCH  15  18
TORSDOF 1
