REMARK  Name = ZINC35593734
REMARK  9 active torsions:
REMARK  status: ('A' for Active; 'I' for Inactive)
REMARK    1  A    between atoms: C_1  and  C_2
REMARK    2  A    between atoms: C_2  and  C_3
REMARK    3  A    between atoms: C_2  and  N_4
REMARK    4  A    between atoms: C_5  and  C_7
REMARK    5  A    between atoms: C_7  and  C_9
REMARK    6  A    between atoms: C_7  and  N_16
REMARK    7  A    between atoms: C_9  and  C_10
REMARK    8  A    between atoms: C_17  and  C_19
REMARK    9  A    between atoms: N_24  and  C_25
REMARK                            x       y       z     vdW  Elec       q    Type
REMARK                         _______ _______ _______ _____ _____    ______ ____
ROOT
ATOM      1  N   UNL     1      -2.425  -3.627  -1.156  0.00  0.00    -0.298 N 
ATOM      2  C   UNL     1      -2.717  -3.763  -2.464  0.00  0.00    +0.264 C 
ATOM      3  O   UNL     1      -2.773  -2.781  -3.180  0.00  0.00    -0.268 OA
ATOM      4  H   UNL     1      -2.380  -4.410  -0.585  0.00  0.00    +0.150 HD
ENDROOT
BRANCH   2   5
ATOM      5  C   UNL     1      -2.970  -5.099  -3.027  0.00  0.00    +0.135 A 
ATOM      6  C   UNL     1      -3.264  -5.249  -4.359  0.00  0.00    +0.081 A 
ATOM      7  S   UNL     1      -3.463  -7.023  -4.459  0.00  0.00    -0.060 S 
ATOM      8  C   UNL     1      -3.139  -7.386  -2.740  0.00  0.00    +0.163 A 
ATOM      9  N   UNL     1      -2.911  -6.183  -2.251  0.00  0.00    -0.220 NA
ATOM     10  N   UNL     1      -3.126  -8.610  -2.092  0.00  0.00    -0.294 N 
ATOM     11  H   UNL     1      -3.016  -8.648  -1.129  0.00  0.00    +0.154 HD
BRANCH  10  12
ATOM     12  C   UNL     1      -3.272  -9.792  -2.826  0.00  0.00    +0.033 A 
ATOM     13  C   UNL     1      -2.760  -9.878  -4.114  0.00  0.00    +0.026 A 
ATOM     14  C   UNL     1      -2.905 -11.046  -4.837  0.00  0.00    +0.040 A 
ATOM     15  C   UNL     1      -3.561 -12.130  -4.279  0.00  0.00    +0.124 A 
ATOM     16  C   UNL     1      -4.073 -12.046  -2.995  0.00  0.00    +0.040 A 
ATOM     17  C   UNL     1      -3.925 -10.882  -2.266  0.00  0.00    +0.026 A 
ATOM     18  F   UNL     1      -3.703 -13.271  -4.988  0.00  0.00    -0.205 F 
ENDBRANCH  10  12
ENDBRANCH   2   5
BRANCH   1  19
ATOM     19  C   UNL     1      -2.173  -2.297  -0.595  0.00  0.00    +0.163 C 
BRANCH  19  21
ATOM     20  N   UNL     1      -0.265  -0.739  -0.372  0.00  0.00    -0.311 N 
ATOM     21  C   UNL     1      -0.728  -1.927  -0.809  0.00  0.00    +0.234 C 
ATOM     22  O   UNL     1       0.018  -2.698  -1.374  0.00  0.00    -0.274 OA
ATOM     23  H   UNL     1      -0.862  -0.122   0.080  0.00  0.00    +0.149 HD
BRANCH  20  25
ATOM     24  C   UNL     1       1.279   1.145  -0.592  0.00  0.00    +0.027 C 
ATOM     25  C   UNL     1       1.140  -0.379  -0.580  0.00  0.00    +0.067 C 
ATOM     26  C   UNL     1       1.988  -0.960   0.553  0.00  0.00    +0.027 C 
ENDBRANCH  20  25
ENDBRANCH  19  21
BRANCH  19  27
ATOM     27  C   UNL     1      -2.480  -2.309   0.904  0.00  0.00    +0.067 C 
BRANCH  27  28
ATOM     28  C   UNL     1      -3.952  -2.558   1.113  0.00  0.00    -0.045 A 
ATOM     29  C   UNL     1      -4.832  -1.494   1.171  0.00  0.00    +0.004 A 
ATOM     30  C   UNL     1      -6.181  -1.723   1.363  0.00  0.00    +0.000 A 
ATOM     31  C   UNL     1      -6.651  -3.016   1.496  0.00  0.00    +0.000 A 
ATOM     32  C   UNL     1      -5.771  -4.080   1.438  0.00  0.00    +0.000 A 
ATOM     33  C   UNL     1      -4.422  -3.852   1.241  0.00  0.00    +0.004 A 
ENDBRANCH  27  28
ENDBRANCH  19  27
ENDBRANCH   1  19
TORSDOF 7
