REMARK  Name = ZINC14457682
REMARK  5 active torsions:
REMARK  status: ('A' for Active; 'I' for Inactive)
REMARK    1  A    between atoms: C_1  and  C_2
REMARK    2  A    between atoms: C_4  and  C_28
REMARK    3  A    between atoms: C_5  and  C_9
REMARK    4  A    between atoms: C_6  and  C_8
REMARK    5  A    between atoms: C_22  and  C_25
REMARK                            x       y       z     vdW  Elec       q    Type
REMARK                         _______ _______ _______ _____ _____    ______ ____
ROOT
ATOM      1  C   UNL     1       4.947   0.809   0.039  0.00  0.00    +0.105 C 
ATOM      2  C   UNL     1       5.160   2.214   0.563  0.00  0.00    +0.029 C 
ATOM      3  C   UNL     1       6.519   2.878   0.314  0.00  0.00    +0.033 C 
ATOM      4  C   UNL     1       6.129   4.357   0.255  0.00  0.00    -0.030 C 
ATOM      5  C   UNL     1       4.862   4.476  -0.128  0.00  0.00    -0.023 C 
ATOM      6  C   UNL     1       4.319   3.120  -0.389  0.00  0.00    +0.049 C 
ATOM      7  C   UNL     1       2.900   2.771  -0.161  0.00  0.00    -0.019 A 
ATOM      8  C   UNL     1       1.897   3.710  -0.266  0.00  0.00    +0.006 A 
ATOM      9  C   UNL     1       0.572   3.359  -0.067  0.00  0.00    +0.001 A 
ATOM     10  C   UNL     1       0.246   2.055   0.239  0.00  0.00    +0.015 A 
ATOM     11  C   UNL     1       1.248   1.094   0.353  0.00  0.00    +0.058 A 
ATOM     12  C   UNL     1       2.600   1.444   0.161  0.00  0.00    +0.044 A 
ATOM     13  N   UNL     1       3.549   0.449   0.324  0.00  0.00    -0.336 N 
ATOM     14  H   UNL     1       3.284  -0.389  -0.173  0.00  0.00    +0.147 HD
ENDROOT
BRANCH   1  19
ATOM     15  C   UNL     1       5.901   0.659  -5.658  0.00  0.00    +0.044 C 
ATOM     16  C   UNL     1       5.652   0.698  -4.172  0.00  0.00    -0.050 A 
ATOM     17  C   UNL     1       6.717   0.659  -3.292  0.00  0.00    +0.007 A 
ATOM     18  C   UNL     1       6.489   0.696  -1.929  0.00  0.00    -0.045 A 
ATOM     19  C   UNL     1       5.196   0.770  -1.446  0.00  0.00    -0.021 A 
ATOM     20  C   UNL     1       4.131   0.803  -2.327  0.00  0.00    -0.045 A 
ATOM     21  C   UNL     1       4.359   0.772  -3.690  0.00  0.00    +0.007 A 
ATOM     22  C   UNL     1       2.720   0.878  -1.800  0.00  0.00    +0.044 C 
ATOM     23  C   UNL     1       7.650   0.653  -0.970  0.00  0.00    +0.044 C 
ENDBRANCH   1  19
BRANCH  11  24
ATOM     24  C   UNL     1       0.891  -0.300   0.677  0.00  0.00    +0.243 C 
ATOM     25  O   UNL     1       1.762  -1.143   0.777  0.00  0.00    -0.270 OA
ATOM     26  N   UNL     1      -0.400  -0.640   0.861  0.00  0.00    -0.325 N 
ATOM     27  H   UNL     1      -1.095   0.033   0.781  0.00  0.00    +0.145 HD
ATOM     28  H   UNL     1      -0.635  -1.556   1.074  0.00  0.00    +0.145 HD
ENDBRANCH  11  24
TORSDOF 2
