REMARK  Name = ZINC40725630
REMARK  3 active torsions:
REMARK  status: ('A' for Active; 'I' for Inactive)
REMARK    1  A    between atoms: C_3  and  N_9
REMARK    2  A    between atoms: C_11  and  N_23
REMARK    3  A    between atoms: C_12  and  N_16
REMARK                            x       y       z     vdW  Elec       q    Type
REMARK                         _______ _______ _______ _____ _____    ______ ____
ROOT
ATOM      1  N   UNL     1       3.584   2.128  -0.019  0.00  0.00    -0.296 N 
ATOM      2  C   UNL     1       3.567   3.515  -0.118  0.00  0.00    +0.149 A 
ATOM      3  C   UNL     1       4.758   4.232  -0.238  0.00  0.00    +0.106 A 
ATOM      4  C   UNL     1       4.684   5.623  -0.334  0.00  0.00    +0.147 A 
ATOM      5  N   UNL     1       3.488   6.207  -0.307  0.00  0.00    -0.219 NA
ATOM      6  C   UNL     1       2.387   5.493  -0.193  0.00  0.00    +0.225 A 
ATOM      7  N   UNL     1       2.413   4.178  -0.105  0.00  0.00    -0.219 NA
ATOM      8  H   UNL     1       4.429   1.658   0.055  0.00  0.00    +0.154 HD
ENDROOT
BRANCH   1  11
ATOM      9  C   UNL     1       0.067   1.242  -0.627  0.00  0.00    +0.017 A 
ATOM     10  C   UNL     1       1.252   1.953  -0.621  0.00  0.00    +0.027 A 
ATOM     11  C   UNL     1       2.383   1.411  -0.026  0.00  0.00    +0.068 A 
ATOM     12  C   UNL     1       2.319   0.152   0.564  0.00  0.00    +0.145 A 
ATOM     13  C   UNL     1       1.130  -0.553   0.555  0.00  0.00    +0.055 A 
ATOM     14  C   UNL     1       0.006  -0.009  -0.040  0.00  0.00    +0.021 A 
ATOM     15 BR   UNL     1      -1.619  -0.977  -0.051  0.00  0.00    -0.050 Br
ATOM     16  F   UNL     1       3.417  -0.379   1.145  0.00  0.00    -0.204 F 
ENDBRANCH   1  11
BRANCH   4  17
ATOM     17  N   UNL     1       5.840   6.385  -0.454  0.00  0.00    -0.314 N 
ATOM     18  C   UNL     1       6.430   6.942   0.742  0.00  0.00    +0.106 C 
ATOM     19  C   UNL     1       5.819   8.338   1.021  0.00  0.00    +0.019 C 
ATOM     20  C   UNL     1       6.301   9.314   0.032  0.00  0.00    +0.002 C 
ATOM     21  C   UNL     1       5.893   9.004  -1.406  0.00  0.00    +0.002 C 
ATOM     22  C   UNL     1       6.886   8.042  -2.011  0.00  0.00    +0.019 C 
ATOM     23  C   UNL     1       6.417   6.587  -1.798  0.00  0.00    +0.106 C 
ENDBRANCH   4  17
BRANCH   3  24
ATOM     24  N   UNL     1       5.998   3.573  -0.261  0.00  0.00    -0.353 N 
ATOM     25  H   UNL     1       6.032   2.604  -0.267  0.00  0.00    +0.143 HD
ATOM     26  H   UNL     1       6.821   4.087  -0.271  0.00  0.00    +0.143 HD
ENDBRANCH   3  24
TORSDOF 3
