REMARK  Name = ZINC09830789
REMARK  9 active torsions:
REMARK  status: ('A' for Active; 'I' for Inactive)
REMARK    1  A    between atoms: C_1  and  C_2
REMARK    2  A    between atoms: C_5  and  C_35
REMARK    3  A    between atoms: C_6  and  N_8
REMARK    4  A    between atoms: C_9  and  C_11
REMARK    5  A    between atoms: C_11  and  N_12
REMARK    6  A    between atoms: C_16  and  S_22
REMARK    7  A    between atoms: S_22  and  N_25
REMARK    8  A    between atoms: C_27  and  C_34
REMARK    9  A    between atoms: C_30  and  C_33
REMARK                            x       y       z     vdW  Elec       q    Type
REMARK                         _______ _______ _______ _____ _____    ______ ____
ROOT
ATOM      1  N   UNL     1      -2.557   3.542   0.048  0.00  0.00    -0.265 N 
ATOM      2  C   UNL     1      -1.217   3.155   0.023  0.00  0.00    +0.091 A 
ATOM      3  C   UNL     1      -0.024   3.860   0.004  0.00  0.00    +0.031 A 
ATOM      4  C   UNL     1       1.177   3.177  -0.018  0.00  0.00    +0.031 A 
ATOM      5  C   UNL     1       1.190   1.793  -0.022  0.00  0.00    +0.109 A 
ATOM      6  C   UNL     1       0.005   1.084  -0.003  0.00  0.00    +0.077 A 
ATOM      7  C   UNL     1      -1.205   1.761   0.013  0.00  0.00    +0.159 A 
ATOM      8  O   UNL     1      -2.495   1.346   0.040  0.00  0.00    -0.407 OA
ATOM      9  C   UNL     1      -3.303   2.419   0.058  0.00  0.00    +0.422 A 
ATOM     10  O   UNL     1      -4.518   2.382   0.079  0.00  0.00    -0.223 OA
ENDROOT
BRANCH   5  11
ATOM     11  S   UNL     1       2.727   0.931  -0.049  0.00  0.00    +0.061 S 
ATOM     12  O   UNL     1       3.699   1.818   0.487  0.00  0.00    -0.153 OA
ATOM     13  O   UNL     1       2.481  -0.355   0.503  0.00  0.00    -0.153 OA
BRANCH  11  14
ATOM     14  N   UNL     1       3.127   0.695  -1.639  0.00  0.00    -0.176 NA
ATOM     15  C   UNL     1       2.695  -0.517  -2.348  0.00  0.00    +0.112 C 
ATOM     16  C   UNL     1       1.959  -0.098  -3.629  0.00  0.00    +0.002 C 
ATOM     17  C   UNL     1       2.863   0.823  -4.452  0.00  0.00    +0.009 C 
ATOM     18  C   UNL     1       3.181   2.083  -3.645  0.00  0.00    +0.002 C 
ATOM     19  C   UNL     1       3.927   1.691  -2.365  0.00  0.00    +0.112 C 
ATOM     20  C   UNL     1       1.878   2.797  -3.279  0.00  0.00    +0.009 C 
ATOM     21  C   UNL     1       1.615  -1.343  -4.449  0.00  0.00    +0.009 C 
ENDBRANCH  11  14
ENDBRANCH   5  11
BRANCH   1  22
ATOM     22  C   UNL     1      -3.062   4.917   0.060  0.00  0.00    +0.224 C 
BRANCH  22  24
ATOM     23  N   UNL     1      -3.721   6.637  -1.591  0.00  0.00    -0.284 N 
ATOM     24  C   UNL     1      -3.260   5.392  -1.356  0.00  0.00    +0.237 C 
ATOM     25  O   UNL     1      -3.005   4.655  -2.284  0.00  0.00    -0.274 OA
ATOM     26  H   UNL     1      -4.002   7.198  -0.851  0.00  0.00    +0.155 HD
BRANCH  23  32
ATOM     27  C   UNL     1      -2.144   6.505  -6.245  0.00  0.00    +0.044 C 
ATOM     28  C   UNL     1      -3.043   7.074  -5.178  0.00  0.00    -0.049 A 
ATOM     29  C   UNL     1      -3.944   8.074  -5.495  0.00  0.00    +0.004 A 
ATOM     30  C   UNL     1      -4.771   8.598  -4.519  0.00  0.00    +0.005 A 
ATOM     31  C   UNL     1      -4.704   8.119  -3.225  0.00  0.00    -0.029 A 
ATOM     32  C   UNL     1      -3.796   7.119  -2.902  0.00  0.00    +0.037 A 
ATOM     33  C   UNL     1      -2.967   6.595  -3.885  0.00  0.00    +0.027 A 
ATOM     34  C   UNL     1      -5.611   8.686  -2.163  0.00  0.00    +0.045 C 
ENDBRANCH  23  32
ENDBRANCH  22  24
ENDBRANCH   1  22
TORSDOF 5
