REMARK  Name = ZINC02777390
REMARK  14 active torsions:
REMARK  status: ('A' for Active; 'I' for Inactive)
REMARK    1  A    between atoms: C_1  and  C_2
REMARK    2  A    between atoms: C_2  and  C_3
REMARK    3  A    between atoms: C_3  and  C_5
REMARK    4  A    between atoms: C_3  and  O_26
REMARK    5  A    between atoms: N_7  and  C_8
REMARK    6  A    between atoms: C_9  and  C_23
REMARK    7  A    between atoms: C_14  and  C_18
REMARK    8  A    between atoms: C_18  and  C_19
REMARK    9  A    between atoms: C_18  and  C_20
REMARK   10  A    between atoms: C_18  and  C_21
REMARK   11  A    between atoms: C_21  and  C_22
REMARK   12  A    between atoms: O_26  and  C_27
REMARK   13  A    between atoms: C_30  and  C_34
REMARK   14  A    between atoms: C_31  and  C_33
REMARK                            x       y       z     vdW  Elec       q    Type
REMARK                         _______ _______ _______ _____ _____    ______ ____
ROOT
ATOM      1  C   UNL     1       1.929   1.525   3.927  0.00  0.00    +0.084 A 
ATOM      2  C   UNL     1       3.180   1.977   4.321  0.00  0.00    +0.068 A 
ATOM      3  C   UNL     1       3.683   1.524   5.607  0.00  0.00    -0.023 A 
ATOM      4  C   UNL     1       2.865   0.689   6.283  0.00  0.00    -0.004 A 
ATOM      5  S   UNL     1       1.444   0.508   5.243  0.00  0.00    -0.077 S 
ATOM      6  C   UNL     1       3.118   0.062   7.619  0.00  0.00    +0.046 C 
ATOM      7  C   UNL     1       4.612   0.207   7.946  0.00  0.00    -0.000 C 
ATOM      8  C   UNL     1       5.035   1.655   7.685  0.00  0.00    +0.009 C 
ATOM      9  C   UNL     1       5.034   1.935   6.181  0.00  0.00    +0.037 C 
ENDROOT
BRANCH   2  10
ATOM     10  C   UNL     1       3.964   2.881   3.474  0.00  0.00    +0.244 C 
ATOM     11  O   UNL     1       3.841   4.086   3.593  0.00  0.00    -0.270 OA
ATOM     12  N   UNL     1       4.820   2.377   2.562  0.00  0.00    -0.325 N 
ATOM     13  H   UNL     1       4.917   1.417   2.467  0.00  0.00    +0.145 HD
ATOM     14  H   UNL     1       5.338   2.975   2.002  0.00  0.00    +0.145 HD
ENDBRANCH   2  10
BRANCH   1  17
ATOM     15  C   UNL     1       0.021   1.272   2.546  0.00  0.00    +0.258 C 
ATOM     16  O   UNL     1      -0.467   0.531   3.374  0.00  0.00    -0.271 OA
ATOM     17  N   UNL     1       1.236   1.814   2.761  0.00  0.00    -0.276 N 
ATOM     18  H   UNL     1       1.627   2.405   2.099  0.00  0.00    +0.155 HD
BRANCH  15  19
ATOM     19  C   UNL     1      -0.731   1.585   1.279  0.00  0.00    +0.259 C 
BRANCH  19  21
ATOM     20  C   UNL     1      -0.662   1.446  -1.215  0.00  0.00    +0.008 C 
ATOM     21  C   UNL     1       0.035   1.022   0.079  0.00  0.00    +0.051 C 
ENDBRANCH  19  21
BRANCH  19  22
ATOM     22  O   UNL     1      -2.030   0.991   1.336  0.00  0.00    -0.480 OA
BRANCH  22  23
ATOM     23  C   UNL     1      -3.063   1.718   0.835  0.00  0.00    +0.122 A 
ATOM     24  C   UNL     1      -2.818   2.927   0.199  0.00  0.00    +0.046 A 
ATOM     25  C   UNL     1      -3.869   3.661  -0.315  0.00  0.00    +0.007 A 
ATOM     26  C   UNL     1      -5.165   3.197  -0.187  0.00  0.00    -0.047 A 
ATOM     27  C   UNL     1      -5.412   1.996   0.451  0.00  0.00    -0.044 A 
ATOM     28  C   UNL     1      -4.364   1.255   0.962  0.00  0.00    +0.049 A 
ATOM     29  C   UNL     1      -6.827   1.493   0.589  0.00  0.00    +0.044 C 
ATOM     30  C   UNL     1      -6.311   4.003  -0.743  0.00  0.00    +0.044 C 
ENDBRANCH  22  23
ENDBRANCH  19  22
ENDBRANCH  15  19
ENDBRANCH   1  17
BRANCH   7  31
ATOM     31  C   UNL     1       4.851  -0.140   9.417  0.00  0.00    -0.032 C 
ATOM     32  C   UNL     1       6.336   0.023   9.745  0.00  0.00    +0.011 C 
ATOM     33  C   UNL     1       4.028   0.798  10.302  0.00  0.00    +0.011 C 
BRANCH  31  34
ATOM     34  C   UNL     1       4.427  -1.587   9.675  0.00  0.00    +0.003 C 
ATOM     35  C   UNL     1       4.666  -1.934  11.146  0.00  0.00    +0.004 C 
ENDBRANCH  31  34
ENDBRANCH   7  31
TORSDOF 8
