REMARK  Name = ZINC19219272
REMARK  7 active torsions:
REMARK  status: ('A' for Active; 'I' for Inactive)
REMARK    1  A    between atoms: C_1  and  C_2
REMARK    2  A    between atoms: C_8  and  O_33
REMARK    3  A    between atoms: N_15  and  C_18
REMARK    4  A    between atoms: C_18  and  C_19
REMARK    5  A    between atoms: C_19  and  C_21
REMARK    6  A    between atoms: C_19  and  O_32
REMARK    7  A    between atoms: C_28  and  C_31
REMARK                            x       y       z     vdW  Elec       q    Type
REMARK                         _______ _______ _______ _____ _____    ______ ____
ROOT
ATOM      1  C   UNL     1      -6.735  -1.445  13.158  0.00  0.00    +0.044 C 
ATOM      2  C   UNL     1      -5.858  -0.608  12.262  0.00  0.00    -0.050 A 
ATOM      3  C   UNL     1      -6.398   0.015  11.152  0.00  0.00    +0.007 A 
ATOM      4  C   UNL     1      -5.595   0.784  10.335  0.00  0.00    +0.046 A 
ATOM      5  C   UNL     1      -4.242   0.934  10.623  0.00  0.00    +0.127 A 
ATOM      6  C   UNL     1      -3.703   0.304  11.731  0.00  0.00    +0.023 A 
ATOM      7  C   UNL     1      -4.515  -0.464  12.550  0.00  0.00    +0.013 A 
ATOM      8  C   UNL     1      -2.240   0.426  12.071  0.00  0.00    +0.152 C 
ATOM      9  C   UNL     1      -1.637   1.626  11.336  0.00  0.00    +0.084 C 
ATOM     10  C   UNL     1      -2.067   1.558   9.867  0.00  0.00    +0.110 C 
ATOM     11  O   UNL     1      -3.485   1.703   9.798  0.00  0.00    -0.485 OA
ATOM     12  C   UNL     1      -1.655   0.209   9.275  0.00  0.00    +0.029 C 
ATOM     13  C   UNL     1      -2.031   0.172   7.791  0.00  0.00    -0.075 C 
ATOM     14  N   UNL     1      -1.353   1.267   7.086  0.00  0.00    +0.382 N 
ATOM     15  C   UNL     1      -1.775   2.575   7.606  0.00  0.00    -0.075 C 
ATOM     16  C   UNL     1      -1.392   2.685   9.083  0.00  0.00    +0.029 C 
ATOM     17  H   UNL     1      -0.274   1.166   7.269  0.00  0.00    -0.082 HD
ENDROOT
BRANCH   8  18
ATOM     18  O   UNL     1      -2.093   0.611  13.480  0.00  0.00    -0.387 OA
ATOM     19  H   UNL     1      -1.090   0.720  13.919  0.00  0.00    +0.210 HD
ENDBRANCH   8  18
BRANCH  14  20
ATOM     20  C   UNL     1      -1.578   1.179   5.637  0.00  0.00    -0.042 C 
BRANCH  20  21
ATOM     21  C   UNL     1      -0.899  -0.078   5.091  0.00  0.00    +0.128 C 
BRANCH  21  22
ATOM     22  C   UNL     1      -1.116  -0.160   3.602  0.00  0.00    -0.020 A 
ATOM     23  C   UNL     1      -0.269   0.511   2.739  0.00  0.00    +0.009 A 
ATOM     24  C   UNL     1      -0.466   0.443   1.373  0.00  0.00    +0.046 A 
ATOM     25  C   UNL     1      -1.520  -0.303   0.854  0.00  0.00    +0.124 A 
ATOM     26  C   UNL     1      -2.360  -0.979   1.732  0.00  0.00    -0.002 A 
ATOM     27  C   UNL     1      -2.164  -0.906   3.093  0.00  0.00    +0.013 A 
ATOM     28  C   UNL     1      -3.391  -1.704   0.889  0.00  0.00    +0.083 C 
ATOM     29  C   UNL     1      -2.745  -1.658  -0.516  0.00  0.00    +0.175 C 
ATOM     30  O   UNL     1      -1.898  -0.499  -0.439  0.00  0.00    -0.488 OA
ATOM     31  C   UNL     1      -1.918  -2.919  -0.774  0.00  0.00    +0.052 C 
ENDBRANCH  21  22
BRANCH  21  32
ATOM     32  O   UNL     1       0.502  -0.019   5.365  0.00  0.00    -0.389 OA
ATOM     33  H   UNL     1       1.160  -0.841   5.046  0.00  0.00    +0.210 HD
ENDBRANCH  21  32
ENDBRANCH  20  21
ENDBRANCH  14  20
TORSDOF 5
