REMARK  Name = ZINC65298059
REMARK  8 active torsions:
REMARK  status: ('A' for Active; 'I' for Inactive)
REMARK    1  A    between atoms: C_1  and  C_2
REMARK    2  A    between atoms: C_5  and  C_31
REMARK    3  A    between atoms: C_6  and  C_8
REMARK    4  A    between atoms: N_13  and  C_16
REMARK    5  A    between atoms: C_16  and  C_17
REMARK    6  A    between atoms: C_16  and  C_18
REMARK    7  A    between atoms: C_20  and  C_23
REMARK    8  A    between atoms: C_28  and  O_29
REMARK                            x       y       z     vdW  Elec       q    Type
REMARK                         _______ _______ _______ _____ _____    ______ ____
ROOT
ATOM      1  C   UNL     1      -0.134  -2.526   2.613  0.00  0.00    +0.047 C 
ATOM      2  N   UNL     1      -0.147  -3.800   2.725  0.00  0.00    -0.266 NA
ATOM      3  C   UNL     1      -0.212  -4.511   3.997  0.00  0.00    +0.109 C 
ATOM      4  C   UNL     1      -1.173  -5.698   3.873  0.00  0.00    +0.027 C 
ATOM      5  C   UNL     1      -0.632  -6.676   2.827  0.00  0.00    -0.075 C 
ATOM      6  N   UNL     1       0.691  -7.159   3.241  0.00  0.00    +0.381 N 
ATOM      7  C   UNL     1       1.636  -6.037   3.298  0.00  0.00    -0.075 C 
ATOM      8  C   UNL     1       1.181  -5.036   4.362  0.00  0.00    +0.027 C 
ATOM      9  N   UNL     1      -0.685  -3.615   5.062  0.00  0.00    -0.286 NA
ATOM     10  C   UNL     1       0.113  -2.377   5.074  0.00  0.00    +0.095 C 
ATOM     11  C   UNL     1      -0.191  -1.597   3.793  0.00  0.00    +0.079 C 
ATOM     12  H   UNL     1      -1.667  -3.412   4.954  0.00  0.00    +0.125 HD
ATOM     13  H   UNL     1       0.622  -7.586   4.152  0.00  0.00    -0.081 HD
ENDROOT
BRANCH   1  19
ATOM     14  C   UNL     1      -2.154  -1.756  -1.883  0.00  0.00    +0.044 C 
ATOM     15  C   UNL     1      -1.022  -1.567  -0.906  0.00  0.00    -0.050 A 
ATOM     16  C   UNL     1       0.097  -0.842  -1.277  0.00  0.00    +0.003 A 
ATOM     17  C   UNL     1       1.140  -0.664  -0.387  0.00  0.00    +0.004 A 
ATOM     18  C   UNL     1       1.072  -1.208   0.879  0.00  0.00    -0.042 A 
ATOM     19  C   UNL     1      -0.054  -1.940   1.260  0.00  0.00    -0.001 A 
ATOM     20  C   UNL     1      -1.107  -2.111   0.358  0.00  0.00    +0.013 A 
ATOM     21  C   UNL     1       2.210  -1.013   1.848  0.00  0.00    +0.044 C 
ENDBRANCH   1  19
BRANCH  10  22
ATOM     22  C   UNL     1      -0.256  -1.548   6.278  0.00  0.00    +0.013 A 
ATOM     23  C   UNL     1      -1.457  -1.764   6.925  0.00  0.00    +0.028 A 
ATOM     24  C   UNL     1      -1.796  -1.003   8.030  0.00  0.00    +0.042 A 
ATOM     25  C   UNL     1      -0.932  -0.023   8.488  0.00  0.00    +0.023 A 
ATOM     26  C   UNL     1       0.269   0.197   7.843  0.00  0.00    +0.047 A 
ATOM     27  C   UNL     1       0.613  -0.570   6.739  0.00  0.00    +0.122 A 
ATOM     28 CL   UNL     1      -3.305  -1.277   8.842  0.00  0.00    -0.084 Cl
BRANCH  27  29
ATOM     29  O   UNL     1       1.798  -0.359   6.106  0.00  0.00    -0.506 OA
ATOM     30  H   UNL     1       1.753   0.295   5.396  0.00  0.00    +0.292 HD
ENDBRANCH  27  29
ENDBRANCH  10  22
BRANCH   6  31
ATOM     31  C   UNL     1       1.172  -8.153   2.273  0.00  0.00    -0.075 C 
ATOM     32  C   UNL     1       2.551  -8.658   2.703  0.00  0.00    -0.014 C 
ATOM     33  C   UNL     1       0.193  -9.328   2.219  0.00  0.00    -0.014 C 
ENDBRANCH   6  31
TORSDOF 4
