REMARK  Name = ZINC31952241
REMARK  3 active torsions:
REMARK  status: ('A' for Active; 'I' for Inactive)
REMARK    1  A    between atoms: C_1  and  C_2
REMARK    2  A    between atoms: N_11  and  N_12
REMARK    3  A    between atoms: C_13  and  C_14
REMARK                            x       y       z     vdW  Elec       q    Type
REMARK                         _______ _______ _______ _____ _____    ______ ____
ROOT
ATOM      1  C   UNL     1       0.470   1.641   0.161  0.00  0.00    +0.008 C 
ATOM      2  C   UNL     1       0.426   0.116   0.275  0.00  0.00    -0.009 C 
ATOM      3  C   UNL     1       0.508  -0.506  -1.122  0.00  0.00    +0.010 C 
ATOM      4  C   UNL     1       0.221  -2.007  -1.048  0.00  0.00    +0.056 C 
ATOM      5  C   UNL     1       1.132  -2.627   0.002  0.00  0.00    +0.054 A 
ATOM      6  C   UNL     1       1.733  -1.851   0.940  0.00  0.00    +0.015 A 
ATOM      7  S   UNL     1       2.655  -3.030   1.885  0.00  0.00    -0.056 S 
ATOM      8  C   UNL     1       2.205  -4.405   1.020  0.00  0.00    +0.178 A 
ATOM      9  N   UNL     1       1.408  -3.925   0.090  0.00  0.00    -0.228 NA
ATOM     10  N   UNL     1       2.584  -5.720   1.236  0.00  0.00    -0.215 N 
ATOM     11  C   UNL     1       1.621  -0.373   1.110  0.00  0.00    +0.047 C 
ATOM     12  H   UNL     1       3.185  -5.939   1.965  0.00  0.00    +0.176 HD
ENDROOT
BRANCH  10  13
ATOM     13  N   UNL     1       2.099  -6.734   0.400  0.00  0.00    -0.188 NA
ATOM     14  C   UNL     1       2.357  -7.978   0.671  0.00  0.00    +0.138 C 
BRANCH  14  15
ATOM     15  C   UNL     1       2.724  -8.373   2.043  0.00  0.00    -0.003 A 
ATOM     16  C   UNL     1       2.525  -7.487   3.105  0.00  0.00    +0.009 A 
ATOM     17  C   UNL     1       2.870  -7.862   4.387  0.00  0.00    +0.003 A 
ATOM     18  C   UNL     1       3.413  -9.112   4.623  0.00  0.00    +0.038 A 
ATOM     19  C   UNL     1       3.615  -9.996   3.576  0.00  0.00    +0.124 A 
ATOM     20  C   UNL     1       3.267  -9.636   2.288  0.00  0.00    +0.047 A 
ATOM     21  F   UNL     1       4.146 -11.215   3.815  0.00  0.00    -0.205 F 
ENDBRANCH  14  15
ENDBRANCH  10  13
TORSDOF 2
