REMARK  Name = ZINC14467634
REMARK  7 active torsions:
REMARK  status: ('A' for Active; 'I' for Inactive)
REMARK    1  A    between atoms: C_1  and  C_2
REMARK    2  A    between atoms: C_2  and  C_3
REMARK    3  A    between atoms: C_3  and  C_4
REMARK    4  A    between atoms: C_4  and  O_5
REMARK    5  A    between atoms: O_5  and  C_6
REMARK    6  A    between atoms: C_19  and  C_22
REMARK    7  A    between atoms: C_27  and  O_28
REMARK                            x       y       z     vdW  Elec       q    Type
REMARK                         _______ _______ _______ _____ _____    ______ ____
ROOT
ATOM      1  C   UNL     1       1.180   1.785   0.000  0.00  0.00    +0.121 A 
ATOM      2  C   UNL     1      -0.013   1.076   0.008  0.00  0.00    +0.047 A 
ATOM      3  C   UNL     1      -1.217   1.748   0.017  0.00  0.00    +0.027 A 
ATOM      4  C   UNL     1      -1.247   3.137   0.033  0.00  0.00    +0.032 A 
ATOM      5  C   UNL     1      -0.042   3.848   0.016  0.00  0.00    -0.016 A 
ATOM      6  C   UNL     1       1.159   3.171   0.002  0.00  0.00    +0.051 A 
ATOM      7  C   UNL     1      -0.120   5.325  -0.000  0.00  0.00    +0.049 C 
ATOM      8  C   UNL     1       0.974   6.173   0.539  0.00  0.00    -0.023 C 
ATOM      9  C   UNL     1       0.444   7.290   1.024  0.00  0.00    -0.030 C 
ATOM     10  C   UNL     1      -1.078   7.256   0.873  0.00  0.00    +0.033 C 
ATOM     11  C   UNL     1      -1.353   5.747   0.855  0.00  0.00    +0.029 C 
ATOM     12  C   UNL     1      -2.567   5.273   0.077  0.00  0.00    +0.109 C 
ATOM     13  N   UNL     1      -2.485   3.796   0.073  0.00  0.00    -0.336 N 
ATOM     14  H   UNL     1      -3.302   3.273   0.099  0.00  0.00    +0.147 HD
ENDROOT
BRANCH  12  15
ATOM     15  C   UNL     1      -3.832   5.723   0.760  0.00  0.00    +0.017 A 
ATOM     16  C   UNL     1      -4.484   4.875   1.636  0.00  0.00    +0.029 A 
ATOM     17  C   UNL     1      -5.645   5.287   2.264  0.00  0.00    +0.043 A 
ATOM     18  C   UNL     1      -6.158   6.549   2.018  0.00  0.00    +0.043 A 
ATOM     19  C   UNL     1      -5.509   7.400   1.143  0.00  0.00    +0.084 A 
ATOM     20  C   UNL     1      -4.340   6.989   0.516  0.00  0.00    +0.140 A 
ATOM     21 CL   UNL     1      -6.151   8.982   0.833  0.00  0.00    -0.080 Cl
ATOM     22 CL   UNL     1      -6.461   4.220   3.364  0.00  0.00    -0.083 Cl
BRANCH  20  23
ATOM     23  O   UNL     1      -3.697   7.827  -0.341  0.00  0.00    -0.505 OA
ATOM     24  H   UNL     1      -3.988   7.748  -1.260  0.00  0.00    +0.292 HD
ENDBRANCH  20  23
ENDBRANCH  12  15
BRANCH   1  25
ATOM     25  O   UNL     1       2.367   1.121  -0.008  0.00  0.00    -0.492 OA
BRANCH  25  26
ATOM     26  C   UNL     1       2.312  -0.307  -0.009  0.00  0.00    +0.229 C 
BRANCH  26  27
ATOM     27  C   UNL     1       3.734  -0.872  -0.019  0.00  0.00    +0.041 C 
BRANCH  27  29
ATOM     28  C   UNL     1       5.097  -2.966  -0.030  0.00  0.00    +0.004 C 
ATOM     29  C   UNL     1       3.675  -2.401  -0.020  0.00  0.00    -0.000 C 
ENDBRANCH  27  29
ENDBRANCH  26  27
ENDBRANCH  25  26
ENDBRANCH   1  25
TORSDOF 6
