REMARK  Name = ZINC39315551
REMARK  7 active torsions:
REMARK  status: ('A' for Active; 'I' for Inactive)
REMARK    1  A    between atoms: C_1  and  C_2
REMARK    2  A    between atoms: C_2  and  N_3
REMARK    3  A    between atoms: C_6  and  C_7
REMARK    4  A    between atoms: C_16  and  C_24
REMARK    5  A    between atoms: C_18  and  C_22
REMARK    6  A    between atoms: C_19  and  N_21
REMARK    7  A    between atoms: C_29  and  C_30
REMARK                            x       y       z     vdW  Elec       q    Type
REMARK                         _______ _______ _______ _____ _____    ______ ____
ROOT
ATOM      1  N   UNL     1      -1.350  -1.407   0.014  0.00  0.00    -0.294 NA
ATOM      2  C   UNL     1      -2.001  -0.411   0.883  0.00  0.00    +0.123 C 
ATOM      3  C   UNL     1      -3.471  -0.771   0.944  0.00  0.00    +0.010 C 
ATOM      4  C   UNL     1      -4.423   0.177   0.898  0.00  0.00    +0.016 C 
ATOM      5  C   UNL     1      -3.819  -2.203   1.054  0.00  0.00    +0.136 C 
ATOM      6  C   UNL     1      -2.872  -3.127   0.889  0.00  0.00    -0.001 C 
ATOM      7  C   UNL     1      -1.443  -2.745   0.601  0.00  0.00    +0.120 C 
ATOM      8  C   UNL     1      -3.212  -4.595   0.991  0.00  0.00    +0.096 C 
ATOM      9  C   UNL     1      -4.694  -4.800   0.853  0.00  0.00    +0.098 C 
ATOM     10  C   UNL     1      -5.556  -3.767   1.026  0.00  0.00    +0.199 C 
ATOM     11  O   UNL     1      -5.105  -2.536   1.323  0.00  0.00    -0.441 OA
ENDROOT
BRANCH   4  12
ATOM     12  C   UNL     1      -5.828  -0.201   0.661  0.00  0.00    -0.025 A 
ATOM     13  C   UNL     1      -6.142  -1.167  -0.299  0.00  0.00    +0.008 A 
ATOM     14  C   UNL     1      -7.459  -1.516  -0.515  0.00  0.00    +0.001 A 
ATOM     15  C   UNL     1      -8.467  -0.910   0.214  0.00  0.00    +0.000 A 
ATOM     16  C   UNL     1      -8.164   0.047   1.166  0.00  0.00    +0.001 A 
ATOM     17  C   UNL     1      -6.851   0.402   1.398  0.00  0.00    +0.008 A 
ENDBRANCH   4  12
BRANCH   8  18
ATOM     18  C   UNL     1      -2.764  -5.119   2.330  0.00  0.00    -0.023 A 
ATOM     19  C   UNL     1      -3.280  -4.578   3.493  0.00  0.00    +0.005 A 
ATOM     20  C   UNL     1      -2.868  -5.059   4.722  0.00  0.00    +0.000 A 
ATOM     21  C   UNL     1      -1.940  -6.081   4.788  0.00  0.00    +0.001 A 
ATOM     22  C   UNL     1      -1.425  -6.623   3.626  0.00  0.00    +0.012 A 
ATOM     23  C   UNL     1      -1.840  -6.145   2.397  0.00  0.00    +0.059 A 
BRANCH  23  24
ATOM     24  C   UNL     1      -1.282  -6.740   1.129  0.00  0.00    +0.418 C 
ATOM     25  F   UNL     1      -0.373  -7.754   1.451  0.00  0.00    -0.166 F 
ATOM     26  F   UNL     1      -2.325  -7.273   0.366  0.00  0.00    -0.166 F 
ATOM     27  F   UNL     1      -0.629  -5.744   0.395  0.00  0.00    -0.166 F 
ENDBRANCH  23  24
ENDBRANCH   8  18
BRANCH  10  28
ATOM     28  N   UNL     1      -6.905  -3.981   0.895  0.00  0.00    -0.328 N 
ATOM     29  H   UNL     1      -7.233  -4.844   0.597  0.00  0.00    +0.145 HD
ATOM     30  H   UNL     1      -7.532  -3.270   1.102  0.00  0.00    +0.145 HD
ENDBRANCH  10  28
BRANCH   1  32
ATOM     31  C   UNL     1       0.095   0.239  -1.081  0.00  0.00    +0.020 C 
ATOM     32  C   UNL     1       0.049  -1.044  -0.248  0.00  0.00    +0.082 C 
ENDBRANCH   1  32
BRANCH   9  33
ATOM     33  C   UNL     1      -5.202  -6.101   0.534  0.00  0.00    +0.101 C 
ATOM     34  N   UNL     1      -5.605  -7.132   0.281  0.00  0.00    -0.191 NA
ENDBRANCH   9  33
TORSDOF 6
