REMARK  Name = ZINC36748231
REMARK  3 active torsions:
REMARK  status: ('A' for Active; 'I' for Inactive)
REMARK    1  A    between atoms: C_4  and  C_25
REMARK    2  A    between atoms: C_5  and  C_7
REMARK    3  A    between atoms: N_9  and  C_10
REMARK                            x       y       z     vdW  Elec       q    Type
REMARK                         _______ _______ _______ _____ _____    ______ ____
ROOT
ATOM      1  C   UNL     1       0.530  -2.181   1.067  0.00  0.00    +0.245 C 
ATOM      2  O   UNL     1       0.945  -2.787   2.035  0.00  0.00    -0.270 OA
ATOM      3  N   UNL     1       0.095  -2.856  -0.016  0.00  0.00    -0.308 N 
ATOM      4  H   UNL     1      -0.236  -2.372  -0.788  0.00  0.00    +0.149 HD
ENDROOT
BRANCH   3   5
ATOM      5  C   UNL     1       0.122  -4.321  -0.025  0.00  0.00    +0.077 C 
ATOM      6  C   UNL     1       0.065  -4.844  -1.485  0.00  0.00    +0.026 C 
ATOM      7  C   UNL     1      -1.407  -5.425  -1.575  0.00  0.00    -0.006 C 
ATOM      8  C   UNL     1      -1.378  -6.177  -0.177  0.00  0.00    +0.009 C 
ATOM      9  C   UNL     1      -1.123  -4.877   0.694  0.00  0.00    +0.013 C 
ATOM     10  C   UNL     1      -2.392  -4.140   0.289  0.00  0.00    -0.003 C 
ATOM     11  C   UNL     1      -2.181  -4.173  -1.295  0.00  0.00    -0.004 C 
ATOM     12  C   UNL     1      -3.290  -3.409  -1.876  0.00  0.00    +0.004 C 
ATOM     13  C   UNL     1      -3.513  -2.269  -0.824  0.00  0.00    +0.001 C 
ATOM     14  C   UNL     1      -2.553  -2.634   0.453  0.00  0.00    +0.004 C 
ENDBRANCH   3   5
BRANCH   1  19
ATOM     15  C   UNL     1       0.005   1.376  -0.020  0.00  0.00    +0.001 A 
ATOM     16  C   UNL     1       0.452   2.066   1.092  0.00  0.00    +0.001 A 
ATOM     17  C   UNL     1       0.924   1.379   2.197  0.00  0.00    +0.013 A 
ATOM     18  C   UNL     1       0.952  -0.000   2.195  0.00  0.00    +0.067 A 
ATOM     19  C   UNL     1       0.503  -0.703   1.076  0.00  0.00    +0.048 A 
ATOM     20  C   UNL     1       0.027  -0.003  -0.035  0.00  0.00    +0.013 A 
BRANCH  18  21
ATOM     21  C   UNL     1       1.468  -0.747   3.398  0.00  0.00    +0.418 C 
ATOM     22  F   UNL     1       1.857   0.168   4.382  0.00  0.00    -0.166 F 
ATOM     23  F   UNL     1       0.457  -1.573   3.902  0.00  0.00    -0.166 F 
ATOM     24  F   UNL     1       2.567  -1.528   3.026  0.00  0.00    -0.166 F 
ENDBRANCH  18  21
ENDBRANCH   1  19
TORSDOF 3
