REMARK  Name = ZINC36269087
REMARK  5 active torsions:
REMARK  status: ('A' for Active; 'I' for Inactive)
REMARK    1  A    between atoms: C_1  and  C_2
REMARK    2  A    between atoms: C_2  and  S_3
REMARK    3  A    between atoms: S_3  and  C_6
REMARK    4  A    between atoms: C_11  and  N_12
REMARK    5  A    between atoms: C_18  and  N_24
REMARK                            x       y       z     vdW  Elec       q    Type
REMARK                         _______ _______ _______ _____ _____    ______ ____
ROOT
ATOM      1  N   UNL     1      -1.438  -2.486   1.352  0.00  0.00    -0.328 N 
ATOM      2  C   UNL     1      -2.294  -2.077   0.223  0.00  0.00    +0.109 C 
ATOM      3  C   UNL     1      -3.555  -1.455   0.834  0.00  0.00    +0.011 C 
ATOM      4  C   UNL     1      -4.796  -1.705   0.013  0.00  0.00    +0.004 C 
ATOM      5  C   UNL     1      -5.160  -3.189  -0.017  0.00  0.00    -0.016 C 
ATOM      6  C   UNL     1      -5.388  -3.656   1.425  0.00  0.00    -0.075 C 
ATOM      7  C   UNL     1      -4.074  -3.524   2.190  0.00  0.00    -0.011 C 
ATOM      8  C   UNL     1      -3.631  -2.083   2.239  0.00  0.00    +0.009 C 
ATOM      9  C   UNL     1      -2.121  -2.130   2.611  0.00  0.00    +0.109 C 
ENDROOT
BRANCH   1  15
ATOM     10  C   UNL     1       0.971  -2.355   1.290  0.00  0.00    +0.109 A 
ATOM     11  C   UNL     1       2.200  -2.977   1.192  0.00  0.00    +0.029 A 
ATOM     12  C   UNL     1       2.272  -4.350   1.046  0.00  0.00    +0.002 A 
ATOM     13  C   UNL     1       1.115  -5.105   0.997  0.00  0.00    +0.002 A 
ATOM     14  C   UNL     1      -0.118  -4.490   1.095  0.00  0.00    +0.025 A 
ATOM     15  C   UNL     1      -0.194  -3.111   1.248  0.00  0.00    +0.055 A 
BRANCH  10  16
ATOM     16  S   UNL     1       0.880  -0.606   1.476  0.00  0.00    -0.002 S 
ATOM     17  O   UNL     1      -0.490  -0.290   1.270  0.00  0.00    -0.169 OA
ATOM     18  O   UNL     1       1.879  -0.096   0.605  0.00  0.00    -0.169 OA
BRANCH  16  20
ATOM     19  C   UNL     1       1.414   1.213   3.449  0.00  0.00    +0.028 C 
ATOM     20  C   UNL     1       1.339  -0.296   3.203  0.00  0.00    +0.168 C 
ENDBRANCH  16  20
ENDBRANCH  10  16
ENDBRANCH   1  15
BRANCH   6  21
ATOM     21  N   UNL     1      -5.827  -5.058   1.427  0.00  0.00    +0.380 N 
ATOM     22  H   UNL     1      -5.118  -5.632   0.997  0.00  0.00    -0.090 HD
ATOM     23  H   UNL     1      -5.976  -5.362   2.377  0.00  0.00    -0.090 HD
ATOM     24  H   UNL     1      -6.688  -5.141   0.907  0.00  0.00    -0.090 HD
ENDBRANCH   6  21
TORSDOF 4
