REMARK  Name = ZINC64921859
REMARK  8 active torsions:
REMARK  status: ('A' for Active; 'I' for Inactive)
REMARK    1  A    between atoms: C_1  and  C_2
REMARK    2  A    between atoms: C_2  and  C_3
REMARK    3  A    between atoms: C_10  and  S_15
REMARK    4  A    between atoms: S_15  and  N_18
REMARK    5  A    between atoms: C_21  and  C_24
REMARK    6  A    between atoms: N_26  and  C_27
REMARK    7  A    between atoms: C_29  and  C_34
REMARK    8  A    between atoms: C_32  and  C_33
REMARK                            x       y       z     vdW  Elec       q    Type
REMARK                         _______ _______ _______ _____ _____    ______ ____
ROOT
ATOM      1  N   UNL     1       6.877  -3.728   1.462  0.00  0.00    -0.177 NA
ATOM      2  C   UNL     1       6.722  -5.049   0.837  0.00  0.00    +0.110 C 
ATOM      3  C   UNL     1       7.933  -5.913   1.203  0.00  0.00    +0.030 C 
ATOM      4  C   UNL     1       9.216  -5.178   0.809  0.00  0.00    +0.078 C 
ATOM      5  C   UNL     1       9.311  -3.862   1.583  0.00  0.00    +0.030 C 
ATOM      6  C   UNL     1       8.113  -2.972   1.218  0.00  0.00    +0.110 C 
ENDROOT
BRANCH   4   7
ATOM      7  C   UNL     1      10.409  -6.040   1.136  0.00  0.00    +0.220 C 
ATOM      8  O   UNL     1      10.248  -7.133   1.635  0.00  0.00    -0.275 OA
ATOM      9  N   UNL     1      11.654  -5.595   0.875  0.00  0.00    -0.285 N 
ATOM     10  H   UNL     1      11.780  -4.756   0.403  0.00  0.00    +0.155 HD
BRANCH   9  11
ATOM     11  C   UNL     1      12.764  -6.342   1.283  0.00  0.00    +0.037 A 
ATOM     12  C   UNL     1      12.657  -7.219   2.354  0.00  0.00    +0.027 A 
ATOM     13  C   UNL     1      13.755  -7.955   2.755  0.00  0.00    -0.049 A 
ATOM     14  C   UNL     1      14.960  -7.819   2.090  0.00  0.00    +0.004 A 
ATOM     15  C   UNL     1      15.070  -6.947   1.023  0.00  0.00    +0.005 A 
ATOM     16  C   UNL     1      13.974  -6.213   0.613  0.00  0.00    -0.029 A 
ATOM     17  C   UNL     1      14.093  -5.268  -0.554  0.00  0.00    +0.045 C 
ATOM     18  C   UNL     1      13.639  -8.906   3.918  0.00  0.00    +0.044 C 
ENDBRANCH   9  11
ENDBRANCH   4   7
BRANCH   1  19
ATOM     19  S   UNL     1       5.679  -3.101   2.418  0.00  0.00    +0.061 S 
ATOM     20  O   UNL     1       6.300  -2.157   3.280  0.00  0.00    -0.153 OA
ATOM     21  O   UNL     1       4.932  -4.205   2.910  0.00  0.00    -0.153 OA
BRANCH  19  28
ATOM     22  C   UNL     1       0.722  -0.456  -1.175  0.00  0.00    +0.259 C 
ATOM     23  C   UNL     1       0.629  -1.959  -1.256  0.00  0.00    +0.258 C 
ATOM     24  O   UNL     1      -0.279  -2.481  -1.868  0.00  0.00    -0.271 OA
ATOM     25  N   UNL     1       1.559  -2.721  -0.643  0.00  0.00    -0.279 N 
ATOM     26  C   UNL     1       2.667  -2.101  -0.049  0.00  0.00    +0.078 A 
ATOM     27  C   UNL     1       3.517  -2.819   0.778  0.00  0.00    +0.055 A 
ATOM     28  C   UNL     1       4.598  -2.190   1.367  0.00  0.00    +0.107 A 
ATOM     29  C   UNL     1       4.832  -0.847   1.134  0.00  0.00    +0.032 A 
ATOM     30  C   UNL     1       3.991  -0.126   0.306  0.00  0.00    +0.049 A 
ATOM     31  C   UNL     1       2.911  -0.751  -0.292  0.00  0.00    +0.143 A 
ATOM     32  O   UNL     1       2.095  -0.061  -1.133  0.00  0.00    -0.478 OA
ATOM     33  H   UNL     1       1.462  -3.685  -0.613  0.00  0.00    +0.155 HD
BRANCH  22  35
ATOM     34  C   UNL     1      -0.004   1.561   0.108  0.00  0.00    +0.008 C 
ATOM     35  C   UNL     1       0.013   0.031   0.090  0.00  0.00    +0.051 C 
ENDBRANCH  22  35
ENDBRANCH  19  28
ENDBRANCH   1  19
TORSDOF 5
