REMARK  Name = ZINC03172100
REMARK  3 active torsions:
REMARK  status: ('A' for Active; 'I' for Inactive)
REMARK    1  A    between atoms: C_1  and  C_2
REMARK    2  A    between atoms: C_5  and  N_8
REMARK    3  A    between atoms: N_11  and  N_14
REMARK                            x       y       z     vdW  Elec       q    Type
REMARK                         _______ _______ _______ _____ _____    ______ ____
ROOT
ATOM      1  N   UNL     1      -4.782   1.000   0.904  0.00  0.00    -0.327 N 
ATOM      2  C   UNL     1      -4.415   2.418   1.023  0.00  0.00    +0.125 C 
ATOM      3  C   UNL     1      -3.416   2.778  -0.082  0.00  0.00    +0.145 C 
ATOM      4  N   UNL     1      -2.288   1.836  -0.016  0.00  0.00    -0.252 N 
ATOM      5  C   UNL     1      -2.584   0.396   0.003  0.00  0.00    +0.145 C 
ATOM      6  C   UNL     1      -3.616   0.130   1.110  0.00  0.00    +0.125 C 
ENDROOT
BRANCH   4   7
ATOM      7  N   UNL     1      -1.071   2.263   0.020  0.00  0.00    -0.179 NA
ATOM      8  C   UNL     1      -0.287   2.098  -1.021  0.00  0.00    +0.152 C 
ATOM      9  C   UNL     1      -0.659   1.579  -2.358  0.00  0.00    +0.028 A 
ATOM     10  C   UNL     1      -1.855   1.129  -2.905  0.00  0.00    +0.012 A 
ATOM     11  C   UNL     1      -1.888   0.695  -4.215  0.00  0.00    +0.001 A 
ATOM     12  C   UNL     1      -0.734   0.709  -4.980  0.00  0.00    +0.002 A 
ATOM     13  C   UNL     1       0.458   1.155  -4.446  0.00  0.00    +0.024 A 
ATOM     14  C   UNL     1       0.511   1.595  -3.128  0.00  0.00    +0.043 A 
ATOM     15  N   UNL     1       1.560   2.084  -2.357  0.00  0.00    -0.280 N 
ATOM     16  C   UNL     1       1.153   2.395  -1.115  0.00  0.00    +0.269 C 
ATOM     17  O   UNL     1       1.851   2.844  -0.224  0.00  0.00    -0.268 OA
ATOM     18  H   UNL     1       2.470   2.187  -2.676  0.00  0.00    +0.155 HD
ENDBRANCH   4   7
BRANCH   1  23
ATOM     19  C   UNL     1      -8.964  -0.324   4.497  0.00  0.00    +0.044 C 
ATOM     20  C   UNL     1      -7.853   0.028   3.542  0.00  0.00    -0.050 A 
ATOM     21  C   UNL     1      -7.325  -0.942   2.710  0.00  0.00    +0.005 A 
ATOM     22  C   UNL     1      -6.306  -0.623   1.834  0.00  0.00    +0.023 A 
ATOM     23  C   UNL     1      -5.812   0.674   1.789  0.00  0.00    +0.030 A 
ATOM     24  C   UNL     1      -6.341   1.645   2.630  0.00  0.00    +0.023 A 
ATOM     25  C   UNL     1      -7.363   1.320   3.500  0.00  0.00    +0.005 A 
ENDBRANCH   1  23
TORSDOF 2
