REMARK  Name = ZINC59715391
REMARK  5 active torsions:
REMARK  status: ('A' for Active; 'I' for Inactive)
REMARK    1  A    between atoms: C_8  and  C_10
REMARK    2  A    between atoms: C_13  and  N_17
REMARK    3  A    between atoms: C_15  and  O_16
REMARK    4  A    between atoms: C_18  and  C_20
REMARK    5  A    between atoms: C_21  and  C_22
REMARK                            x       y       z     vdW  Elec       q    Type
REMARK                         _______ _______ _______ _____ _____    ______ ____
ROOT
ATOM      1  C   UNL     1       3.629  -3.355  -0.034  0.00  0.00    +0.078 A 
ATOM      2  C   UNL     1       2.968  -4.574   0.140  0.00  0.00    +0.018 A 
ATOM      3  C   UNL     1       3.680  -5.751   0.119  0.00  0.00    +0.024 A 
ATOM      4  C   UNL     1       5.059  -5.733  -0.074  0.00  0.00    +0.037 A 
ATOM      5  C   UNL     1       5.724  -4.526  -0.248  0.00  0.00    +0.069 A 
ATOM      6  C   UNL     1       5.016  -3.337  -0.234  0.00  0.00    +0.131 A 
ENDROOT
BRANCH   1  14
ATOM      7  C   UNL     1      -0.023   1.365   0.159  0.00  0.00    +0.002 A 
ATOM      8  C   UNL     1       1.146   2.080  -0.059  0.00  0.00    +0.004 A 
ATOM      9  C   UNL     1       2.354   1.424  -0.186  0.00  0.00    +0.048 A 
ATOM     10  C   UNL     1       2.403   0.042  -0.096  0.00  0.00    +0.156 A 
ATOM     11  C   UNL     1       1.222  -0.685   0.124  0.00  0.00    +0.110 A 
ATOM     12  C   UNL     1       0.007  -0.008   0.251  0.00  0.00    +0.031 A 
ATOM     13  N   UNL     1       1.573  -1.997   0.166  0.00  0.00    -0.209 NA
ATOM     14  C   UNL     1       2.868  -2.091  -0.013  0.00  0.00    +0.232 A 
ATOM     15  O   UNL     1       3.402  -0.866  -0.176  0.00  0.00    -0.435 OA
ENDBRANCH   1  14
BRANCH   4  16
ATOM     16  N   UNL     1       5.775  -6.930  -0.093  0.00  0.00    -0.282 N 
ATOM     17  C   UNL     1       5.208  -8.046  -0.592  0.00  0.00    +0.241 C 
ATOM     18  O   UNL     1       4.109  -7.990  -1.113  0.00  0.00    -0.270 OA
ATOM     19  H   UNL     1       6.681  -6.959   0.253  0.00  0.00    +0.155 HD
BRANCH  17  20
ATOM     20  C   UNL     1       5.913  -9.325  -0.507  0.00  0.00    +0.068 C 
ATOM     21  C   UNL     1       5.345 -10.443  -1.007  0.00  0.00    +0.014 C 
BRANCH  21  22
ATOM     22  C   UNL     1       6.054 -11.729  -0.922  0.00  0.00    -0.006 A 
ATOM     23  C   UNL     1       7.314 -11.798  -0.318  0.00  0.00    +0.011 A 
ATOM     24  C   UNL     1       7.972 -13.007  -0.242  0.00  0.00    +0.020 A 
ATOM     25  C   UNL     1       7.388 -14.152  -0.760  0.00  0.00    +0.042 A 
ATOM     26  C   UNL     1       6.142 -14.092  -1.360  0.00  0.00    +0.040 A 
ATOM     27  C   UNL     1       5.468 -12.890  -1.439  0.00  0.00    +0.049 A 
ATOM     28 CL   UNL     1       3.901 -12.818  -2.184  0.00  0.00    -0.083 Cl
ATOM     29 CL   UNL     1       8.226 -15.669  -0.659  0.00  0.00    -0.083 Cl
ENDBRANCH  21  22
ENDBRANCH  17  20
ENDBRANCH   4  16
BRANCH   6  30
ATOM     30  O   UNL     1       5.664  -2.157  -0.409  0.00  0.00    -0.506 OA
ATOM     31  H   UNL     1       5.976  -1.754   0.413  0.00  0.00    +0.292 HD
ENDBRANCH   6  30
TORSDOF 5
