REMARK  Name = ZINC63399768
REMARK  11 active torsions:
REMARK  status: ('A' for Active; 'I' for Inactive)
REMARK    1  A    between atoms: C_1  and  N_2
REMARK    2  A    between atoms: N_2  and  C_3
REMARK    3  A    between atoms: N_2  and  C_4
REMARK    4  A    between atoms: C_7  and  C_10
REMARK    5  A    between atoms: C_10  and  C_12
REMARK    6  A    between atoms: C_10  and  C_29
REMARK    7  A    between atoms: C_12  and  N_13
REMARK    8  A    between atoms: C_14  and  C_16
REMARK    9  A    between atoms: C_16  and  C_17
REMARK   10  A    between atoms: C_17  and  C_18
REMARK   11  A    between atoms: C_18  and  N_19
REMARK                            x       y       z     vdW  Elec       q    Type
REMARK                         _______ _______ _______ _____ _____    ______ ____
ROOT
ATOM      1  C   UNL     1      -0.006  -2.813  -4.924  0.00  0.00    +0.064 C 
ENDROOT
BRANCH   1   2
ATOM      2  C   UNL     1       1.215  -2.433  -5.721  0.00  0.00    -0.033 C 
ATOM      3  C   UNL     1       2.193  -3.260  -6.154  0.00  0.00    -0.000 A 
ATOM      4  C   UNL     1       2.406  -4.706  -6.018  0.00  0.00    +0.010 A 
ATOM      5  C   UNL     1       3.506  -5.262  -6.572  0.00  0.00    +0.001 A 
ATOM      6  C   UNL     1       4.447  -4.495  -7.272  0.00  0.00    +0.002 A 
ATOM      7  C   UNL     1       4.321  -3.161  -7.440  0.00  0.00    +0.026 A 
ATOM      8  C   UNL     1       3.201  -2.472  -6.898  0.00  0.00    +0.043 A 
ATOM      9  N   UNL     1       2.860  -1.206  -6.924  0.00  0.00    -0.380 N 
ATOM     10  C   UNL     1       1.591  -1.050  -6.204  0.00  0.00    +0.145 C 
ATOM     11  H   UNL     1       3.360  -0.493  -7.352  0.00  0.00    +0.160 HD
ENDBRANCH   1   2
BRANCH   1  15
ATOM     12  C   UNL     1       0.000  -0.696  -1.211  0.00  0.00    +0.029 A 
ATOM     13  C   UNL     1       0.013  -2.085  -1.221  0.00  0.00    +0.023 A 
ATOM     14  C   UNL     1       0.010  -2.766  -2.422  0.00  0.00    +0.006 A 
ATOM     15  C   UNL     1      -0.005  -2.066  -3.615  0.00  0.00    -0.039 A 
ATOM     16  C   UNL     1      -0.018  -0.684  -3.609  0.00  0.00    +0.006 A 
ATOM     17  C   UNL     1      -0.021   0.004  -2.411  0.00  0.00    +0.023 A 
BRANCH  12  19
ATOM     18  C   UNL     1      -0.018   1.461   0.010  0.00  0.00    +0.129 C 
ATOM     19  N   UNL     1       0.002  -0.004   0.002  0.00  0.00    -0.336 N 
ATOM     20  C   UNL     1       0.024  -0.743   1.267  0.00  0.00    +0.129 C 
ENDBRANCH  12  19
ENDBRANCH   1  15
BRANCH   1  21
ATOM     21  C   UNL     1      -1.265  -2.451  -5.716  0.00  0.00    +0.116 C 
BRANCH  21  22
ATOM     22  N   UNL     1      -1.327  -3.265  -6.933  0.00  0.00    -0.314 N 
ATOM     23  C   UNL     1      -2.356  -3.117  -7.790  0.00  0.00    +0.213 C 
ATOM     24  O   UNL     1      -3.231  -2.311  -7.554  0.00  0.00    -0.276 OA
ATOM     25  H   UNL     1      -0.627  -3.909  -7.121  0.00  0.00    +0.149 HD
BRANCH  23  26
ATOM     26  C   UNL     1      -2.420  -3.954  -9.042  0.00  0.00    +0.097 C 
BRANCH  26  27
ATOM     27  C   UNL     1      -3.678  -3.592  -9.833  0.00  0.00    +0.031 C 
BRANCH  27  28
ATOM     28  C   UNL     1      -3.743  -4.442 -11.104  0.00  0.00    +0.129 C 
BRANCH  28  29
ATOM     29  N   UNL     1      -4.948  -4.095 -11.862  0.00  0.00    -0.274 N 
ATOM     30  C   UNL     1      -6.205  -4.685 -11.728  0.00  0.00    +0.090 A 
ATOM     31  C   UNL     1      -6.700  -5.696 -10.919  0.00  0.00    +0.030 A 
ATOM     32  C   UNL     1      -8.027  -6.069 -11.021  0.00  0.00    +0.002 A 
ATOM     33  C   UNL     1      -8.860  -5.437 -11.928  0.00  0.00    +0.004 A 
ATOM     34  C   UNL     1      -8.373  -4.429 -12.737  0.00  0.00    +0.048 A 
ATOM     35  C   UNL     1      -7.044  -4.047 -12.642  0.00  0.00    +0.157 A 
ATOM     36  O   UNL     1      -6.301  -3.115 -13.288  0.00  0.00    -0.407 OA
ATOM     37  C   UNL     1      -5.046  -3.144 -12.812  0.00  0.00    +0.421 A 
ATOM     38  O   UNL     1      -4.138  -2.426 -13.184  0.00  0.00    -0.223 OA
ENDBRANCH  28  29
ENDBRANCH  27  28
ENDBRANCH  26  27
ENDBRANCH  23  26
ENDBRANCH  21  22
ENDBRANCH   1  21
TORSDOF 9
