REMARK  Name = ZINC40282542
REMARK  4 active torsions:
REMARK  status: ('A' for Active; 'I' for Inactive)
REMARK    1  A    between atoms: C_1  and  O_2
REMARK    2  A    between atoms: O_2  and  C_3
REMARK    3  A    between atoms: C_8  and  C_9
REMARK    4  A    between atoms: C_9  and  C_11
REMARK                            x       y       z     vdW  Elec       q    Type
REMARK                         _______ _______ _______ _____ _____    ______ ____
ROOT
ATOM      1  C   UNL     1      -1.414  -3.020   0.304  0.00  0.00    -0.027 A 
ATOM      2  C   UNL     1      -1.801  -3.739   1.421  0.00  0.00    +0.007 A 
ATOM      3  C   UNL     1      -3.141  -3.921   1.703  0.00  0.00    +0.028 A 
ATOM      4  C   UNL     1      -4.102  -3.379   0.863  0.00  0.00    +0.067 A 
ATOM      5  C   UNL     1      -3.712  -2.654  -0.264  0.00  0.00    +0.067 A 
ATOM      6  C   UNL     1      -2.364  -2.472  -0.536  0.00  0.00    +0.033 A 
ATOM      7  N   UNL     1      -4.879  -2.241  -0.902  0.00  0.00    -0.306 N 
ATOM      8  H   UNL     1      -4.926  -1.717  -1.717  0.00  0.00    +0.170 HD
ATOM      9  C   UNL     1      -5.931  -2.696  -0.196  0.00  0.00    +0.325 A 
ATOM     10  O   UNL     1      -7.100  -2.511  -0.482  0.00  0.00    -0.247 OA
ATOM     11  N   UNL     1      -5.495  -3.386   0.875  0.00  0.00    -0.306 N 
ATOM     12  H   UNL     1      -6.055  -3.814   1.540  0.00  0.00    +0.170 HD
ENDROOT
BRANCH   1  13
ATOM     13  C   UNL     1       0.051  -2.828   0.005  0.00  0.00    +0.120 C 
ATOM     14 BR   UNL     1       0.936  -4.581  -0.086  0.00  0.00    -0.078 Br
BRANCH  13  20
ATOM     15  C   UNL     1       0.626  -0.619   1.042  0.00  0.00    +0.125 A 
ATOM     16  C   UNL     1       1.202   0.139   2.051  0.00  0.00    +0.047 A 
ATOM     17  C   UNL     1       1.836  -0.487   3.107  0.00  0.00    +0.023 A 
ATOM     18  C   UNL     1       1.896  -1.869   3.158  0.00  0.00    +0.042 A 
ATOM     19  C   UNL     1       1.323  -2.626   2.152  0.00  0.00    +0.028 A 
ATOM     20  C   UNL     1       0.682  -2.003   1.097  0.00  0.00    +0.013 A 
ATOM     21 CL   UNL     1       2.694  -2.654   4.485  0.00  0.00    -0.084 Cl
BRANCH  15  23
ATOM     22  C   UNL     1      -0.017   1.425   0.010  0.00  0.00    +0.277 C 
ATOM     23  O   UNL     1       0.002  -0.004   0.002  0.00  0.00    -0.495 OA
ENDBRANCH  15  23
ENDBRANCH  13  20
ENDBRANCH   1  13
TORSDOF 3
