REMARK  Name = ZINC35973783
REMARK  13 active torsions:
REMARK  status: ('A' for Active; 'I' for Inactive)
REMARK    1  A    between atoms: C_1  and  C_2
REMARK    2  A    between atoms: C_2  and  C_3
REMARK    3  A    between atoms: C_3  and  C_5
REMARK    4  A    between atoms: C_3  and  O_6
REMARK    5  A    between atoms: O_6  and  C_7
REMARK    6  A    between atoms: C_7  and  C_9
REMARK    7  A    between atoms: C_10  and  C_39
REMARK    8  A    between atoms: C_14  and  C_16
REMARK    9  A    between atoms: C_19  and  O_25
REMARK   10  A    between atoms: C_20  and  O_22
REMARK   11  A    between atoms: O_22  and  C_23
REMARK   12  A    between atoms: C_23  and  C_24
REMARK   13  A    between atoms: C_29  and  C_32
REMARK                            x       y       z     vdW  Elec       q    Type
REMARK                         _______ _______ _______ _____ _____    ______ ____
ROOT
ATOM      1  C   UNL     1      -0.031   0.351  -4.775  0.00  0.00    +0.065 C 
ATOM      2  C   UNL     1       0.680   0.791  -5.828  0.00  0.00    +0.016 C 
ATOM      3  N   UNL     1       0.046   1.290  -6.932  0.00  0.00    -0.321 N 
ATOM      4  C   UNL     1      -1.252   1.720  -6.857  0.00  0.00    +0.016 C 
ATOM      5  C   UNL     1      -2.048   1.321  -5.842  0.00  0.00    +0.024 C 
ATOM      6  C   UNL     1      -1.531   0.379  -4.782  0.00  0.00    +0.092 C 
ATOM      7  C   UNL     1      -3.377   1.768  -5.745  0.00  0.00    +0.162 C 
ATOM      8  O   UNL     1      -4.070   1.385  -4.823  0.00  0.00    -0.292 OA
ATOM      9  C   UNL     1      -3.958   2.714  -6.761  0.00  0.00    +0.088 C 
ATOM     10  C   UNL     1      -2.832   3.572  -7.346  0.00  0.00    +0.032 C 
ATOM     11  C   UNL     1      -1.768   2.643  -7.933  0.00  0.00    +0.059 C 
ATOM     12  C   UNL     1       2.185   0.736  -5.791  0.00  0.00    +0.061 C 
ATOM     13  H   UNL     1       0.520   1.340  -7.776  0.00  0.00    +0.152 HD
ENDROOT
BRANCH  10  14
ATOM     14  C   UNL     1      -3.385   4.464  -8.428  0.00  0.00    -0.043 A 
ATOM     15  C   UNL     1      -3.994   3.907  -9.537  0.00  0.00    +0.005 A 
ATOM     16  C   UNL     1      -4.501   4.724 -10.530  0.00  0.00    +0.020 A 
ATOM     17  C   UNL     1      -4.399   6.099 -10.413  0.00  0.00    +0.041 A 
ATOM     18  C   UNL     1      -3.788   6.655  -9.303  0.00  0.00    +0.020 A 
ATOM     19  C   UNL     1      -3.287   5.837  -8.308  0.00  0.00    +0.005 A 
ATOM     20 CL   UNL     1      -5.034   7.126 -11.660  0.00  0.00    -0.084 Cl
ENDBRANCH  10  14
BRANCH   6  21
ATOM     21  C   UNL     1      -2.051  -1.010  -5.052  0.00  0.00    -0.032 A 
ATOM     22  C   UNL     1      -1.714  -1.657  -6.226  0.00  0.00    +0.008 A 
ATOM     23  C   UNL     1      -2.188  -2.930  -6.478  0.00  0.00    +0.049 A 
ATOM     24  C   UNL     1      -3.003  -3.562  -5.552  0.00  0.00    +0.158 A 
ATOM     25  C   UNL     1      -3.342  -2.911  -4.370  0.00  0.00    +0.162 A 
ATOM     26  C   UNL     1      -2.859  -1.636  -4.122  0.00  0.00    +0.054 A 
BRANCH  24  27
ATOM     27  O   UNL     1      -3.470  -4.815  -5.799  0.00  0.00    -0.503 OA
ATOM     28  H   UNL     1      -2.893  -5.521  -5.477  0.00  0.00    +0.292 HD
ENDBRANCH  24  27
BRANCH  25  29
ATOM     29  O   UNL     1      -4.141  -3.527  -3.458  0.00  0.00    -0.489 OA
BRANCH  29  30
ATOM     30  C   UNL     1      -4.448  -2.799  -2.268  0.00  0.00    +0.226 C 
ATOM     31  C   UNL     1      -5.352  -3.646  -1.370  0.00  0.00    +0.048 C 
ENDBRANCH  29  30
ENDBRANCH  25  29
ENDBRANCH   6  21
BRANCH   1  32
ATOM     32  C   UNL     1       0.648  -0.154  -3.642  0.00  0.00    +0.338 C 
ATOM     33  O   UNL     1       0.710   0.509  -2.624  0.00  0.00    -0.245 OA
BRANCH  32  34
ATOM     34  O   UNL     1       1.228  -1.372  -3.690  0.00  0.00    -0.458 OA
BRANCH  34  35
ATOM     35  C   UNL     1       1.897  -1.819  -2.509  0.00  0.00    +0.173 C 
ATOM     36  C   UNL     1       3.361  -1.377  -2.554  0.00  0.00    +0.052 C 
BRANCH  35  38
ATOM     37  C   UNL     1       0.371  -3.782  -2.260  0.00  0.00    +0.007 C 
ATOM     38  C   UNL     1       1.828  -3.345  -2.431  0.00  0.00    +0.041 C 
ENDBRANCH  35  38
ENDBRANCH  34  35
ENDBRANCH  32  34
ENDBRANCH   1  32
TORSDOF 9
