REMARK  Name = ZINC64656451
REMARK  3 active torsions:
REMARK  status: ('A' for Active; 'I' for Inactive)
REMARK    1  A    between atoms: C_5  and  C_7
REMARK    2  A    between atoms: C_7  and  S_8
REMARK    3  A    between atoms: S_8  and  C_9
REMARK                            x       y       z     vdW  Elec       q    Type
REMARK                         _______ _______ _______ _____ _____    ______ ____
ROOT
ATOM      1  C   UNL     1       1.276  -4.553   1.506  0.00  0.00    +0.160 A 
ATOM      2  N   UNL     1       1.280  -5.282   0.407  0.00  0.00    -0.133 NA
ATOM      3  N   UNL     1       1.299  -6.654   0.495  0.00  0.00    -0.125 NA
ATOM      4  C   UNL     1       1.312  -7.236   1.679  0.00  0.00    +0.185 A 
ATOM      5  S   UNL     1       1.305  -5.819   2.767  0.00  0.00    -0.024 S 
ATOM      6  N   UNL     1       1.331  -8.589   1.995  0.00  0.00    -0.308 N 
ATOM      7  C   UNL     1       1.337  -9.151   3.353  0.00  0.00    +0.107 C 
ATOM      8  C   UNL     1       1.386 -10.687   3.213  0.00  0.00    +0.020 C 
ATOM      9  C   UNL     1       1.976 -10.888   1.792  0.00  0.00    +0.020 C 
ATOM     10  C   UNL     1       1.342  -9.698   1.024  0.00  0.00    +0.107 C 
ENDROOT
BRANCH   1  11
ATOM     11  S   UNL     1       1.254  -2.800   1.685  0.00  0.00    -0.092 S 
BRANCH  11  12
ATOM     12  C   UNL     1       1.229  -2.186  -0.022  0.00  0.00    +0.112 C 
BRANCH  12  17
ATOM     13  C   UNL     1      -0.017   1.378   0.010  0.00  0.00    +0.000 A 
ATOM     14  C   UNL     1       1.171   2.086   0.002  0.00  0.00    +0.001 A 
ATOM     15  C   UNL     1       2.377   1.412  -0.013  0.00  0.00    +0.015 A 
ATOM     16  C   UNL     1       2.397   0.029  -0.021  0.00  0.00    +0.022 A 
ATOM     17  C   UNL     1       1.208  -0.679  -0.013  0.00  0.00    -0.023 A 
ATOM     18  C   UNL     1       0.002  -0.004   0.002  0.00  0.00    +0.005 A 
ATOM     19 BR   UNL     1       4.047  -0.894  -0.042  0.00  0.00    -0.050 Br
ENDBRANCH  12  17
ENDBRANCH  11  12
ENDBRANCH   1  11
TORSDOF 3
