REMARK  Name = ZINC39272617
REMARK  5 active torsions:
REMARK  status: ('A' for Active; 'I' for Inactive)
REMARK    1  A    between atoms: C_1  and  C_2
REMARK    2  A    between atoms: C_4  and  C_16
REMARK    3  A    between atoms: C_9  and  O_14
REMARK    4  A    between atoms: O_14  and  C_15
REMARK    5  A    between atoms: C_21  and  C_23
REMARK                            x       y       z     vdW  Elec       q    Type
REMARK                         _______ _______ _______ _____ _____    ______ ____
ROOT
ATOM      1  C   UNL     1      -1.743  -1.313  -1.235  0.00  0.00    +0.057 A 
ATOM      2  C   UNL     1      -0.788  -2.032  -1.876  0.00  0.00    +0.072 A 
ATOM      3  S   UNL     1      -1.726  -2.679  -3.251  0.00  0.00    -0.060 S 
ATOM      4  C   UNL     1      -3.208  -1.980  -2.871  0.00  0.00    +0.165 A 
ATOM      5  N   UNL     1      -4.412  -2.082  -3.557  0.00  0.00    -0.261 N 
ATOM      6  C   UNL     1      -4.485  -2.820  -4.683  0.00  0.00    +0.251 C 
ATOM      7  O   UNL     1      -3.498  -3.395  -5.098  0.00  0.00    -0.270 OA
ATOM      8  N   UNL     1      -2.952  -1.315  -1.765  0.00  0.00    -0.229 NA
ATOM      9  H   UNL     1      -5.200  -1.623  -3.226  0.00  0.00    +0.157 HD
ENDROOT
BRANCH   1  12
ATOM     10  C   UNL     1      -0.019   1.526   0.010  0.00  0.00    +0.033 C 
ATOM     11  C   UNL     1       0.002  -0.004   0.002  0.00  0.00    +0.112 C 
ATOM     12  C   UNL     1      -1.439  -0.551   0.029  0.00  0.00    +0.075 C 
ATOM     13  C   UNL     1      -1.432  -1.487   1.241  0.00  0.00    +0.074 C 
ATOM     14  C   UNL     1      -2.501  -1.140   2.243  0.00  0.00    +0.029 C 
ATOM     15  C   UNL     1      -2.254  -1.307   3.549  0.00  0.00    +0.117 C 
ATOM     16  C   UNL     1      -0.982  -1.824   4.061  0.00  0.00    +0.047 C 
ATOM     17  C   UNL     1       0.136  -1.783   3.279  0.00  0.00    +0.027 C 
ATOM     18  C   UNL     1      -0.088  -1.259   1.913  0.00  0.00    +0.044 C 
ATOM     19  N   UNL     1       0.665  -0.503   1.209  0.00  0.00    -0.284 NA
BRANCH  15  20
ATOM     20  O   UNL     1      -3.228  -0.983   4.440  0.00  0.00    -0.495 OA
ATOM     21  C   UNL     1      -4.455  -0.483   3.906  0.00  0.00    +0.277 C 
ENDBRANCH  15  20
ENDBRANCH   1  12
BRANCH   6  22
ATOM     22  C   UNL     1      -5.766  -2.929  -5.413  0.00  0.00    +0.056 A 
ATOM     23  C   UNL     1      -5.856  -3.697  -6.580  0.00  0.00    +0.031 A 
ATOM     24  C   UNL     1      -7.079  -3.767  -7.226  0.00  0.00    +0.037 A 
ATOM     25  C   UNL     1      -8.162  -3.082  -6.702  0.00  0.00    +0.126 A 
ATOM     26  N   UNL     1      -8.046  -2.366  -5.600  0.00  0.00    -0.261 NA
ATOM     27  C   UNL     1      -6.906  -2.274  -4.947  0.00  0.00    +0.123 A 
ATOM     28 BR   UNL     1      -7.268  -4.786  -8.808  0.00  0.00    -0.049 Br
ENDBRANCH   6  22
TORSDOF 3
