REMARK  Name = ZINC34829961
REMARK  7 active torsions:
REMARK  status: ('A' for Active; 'I' for Inactive)
REMARK    1  A    between atoms: C_1  and  C_2
REMARK    2  A    between atoms: C_5  and  C_8
REMARK    3  A    between atoms: N_17  and  C_18
REMARK    4  A    between atoms: C_18  and  C_19
REMARK    5  A    between atoms: C_25  and  C_28
REMARK    6  A    between atoms: N_31  and  C_32
REMARK    7  A    between atoms: C_32  and  C_33
REMARK                            x       y       z     vdW  Elec       q    Type
REMARK                         _______ _______ _______ _____ _____    ______ ____
ROOT
ATOM      1  C   UNL     1      -3.082  -4.811   1.915  0.00  0.00    +0.199 C 
ATOM      2  O   UNL     1      -2.601  -5.370   2.878  0.00  0.00    -0.278 OA
ATOM      3  N   UNL     1      -4.405  -4.555   1.876  0.00  0.00    -0.300 N 
ATOM      4  C   UNL     1      -5.003  -3.884   0.714  0.00  0.00    +0.126 C 
ATOM      5  C   UNL     1      -5.758  -2.641   1.200  0.00  0.00    +0.128 C 
ATOM      6  N   UNL     1      -6.628  -3.028   2.319  0.00  0.00    -0.280 N 
ATOM      7  C   UNL     1      -6.030  -3.699   3.482  0.00  0.00    +0.092 C 
ATOM      8  C   UNL     1      -5.276  -4.947   2.993  0.00  0.00    +0.130 C 
ATOM      9  C   UNL     1      -5.060  -2.746   4.182  0.00  0.00    +0.030 C 
ATOM     10  C   UNL     1      -7.951  -2.772   2.280  0.00  0.00    +0.303 C 
ATOM     11  O   UNL     1      -8.676  -3.181   3.167  0.00  0.00    -0.253 OA
ATOM     12  N   UNL     1      -8.470  -2.064   1.258  0.00  0.00    -0.295 N 
ATOM     13  H   UNL     1      -7.906  -1.800   0.514  0.00  0.00    +0.151 HD
ENDROOT
BRANCH   1  14
ATOM     14  C   UNL     1      -2.201  -4.403   0.763  0.00  0.00    +0.020 C 
BRANCH  14  23
ATOM     15  C   UNL     1       0.057  -4.286  -0.022  0.00  0.00    -0.005 C 
ATOM     16  C   UNL     1       1.479  -4.780   0.225  0.00  0.00    -0.047 A 
ATOM     17  C   UNL     1       2.614  -4.202  -0.338  0.00  0.00    +0.010 A 
ATOM     18  C   UNL     1       3.839  -4.706  -0.060  0.00  0.00    +0.045 A 
ATOM     19  S   UNL     1       3.442  -6.058   1.038  0.00  0.00    -0.101 S 
ATOM     20  C   UNL     1       1.684  -5.851   1.042  0.00  0.00    -0.010 A 
ATOM     21  C   UNL     1       0.632  -6.638   1.754  0.00  0.00    +0.024 C 
ATOM     22  C   UNL     1      -0.727  -6.255   1.141  0.00  0.00    -0.072 C 
ATOM     23  N   UNL     1      -0.813  -4.791   1.046  0.00  0.00    +0.393 N 
ATOM     24  H   UNL     1      -0.529  -4.386   1.925  0.00  0.00    -0.080 HD
BRANCH  15  29
ATOM     25  C   UNL     1      -0.019   1.492  -0.013  0.00  0.00    +0.044 C 
ATOM     26  C   UNL     1       0.001  -0.015  -0.015  0.00  0.00    -0.050 A 
ATOM     27  C   UNL     1       0.003  -0.704  -1.213  0.00  0.00    +0.003 A 
ATOM     28  C   UNL     1       0.022  -2.086  -1.216  0.00  0.00    +0.002 A 
ATOM     29  C   UNL     1       0.038  -2.779  -0.020  0.00  0.00    -0.057 A 
ATOM     30  C   UNL     1       0.037  -2.090   1.179  0.00  0.00    +0.002 A 
ATOM     31  C   UNL     1       0.022  -0.708   1.181  0.00  0.00    +0.003 A 
ENDBRANCH  15  29
ENDBRANCH  14  23
ENDBRANCH   1  14
BRANCH  12  32
ATOM     32  C   UNL     1      -9.887  -1.692   1.270  0.00  0.00    +0.141 C 
BRANCH  32  33
ATOM     33  C   UNL     1     -10.212  -0.910   0.023  0.00  0.00    -0.030 A 
ATOM     34  C   UNL     1     -10.083   0.467   0.017  0.00  0.00    +0.005 A 
ATOM     35  C   UNL     1     -10.380   1.184  -1.127  0.00  0.00    +0.000 A 
ATOM     36  C   UNL     1     -10.807   0.525  -2.264  0.00  0.00    +0.000 A 
ATOM     37  C   UNL     1     -10.934  -0.852  -2.259  0.00  0.00    +0.000 A 
ATOM     38  C   UNL     1     -10.633  -1.569  -1.117  0.00  0.00    +0.005 A 
ENDBRANCH  32  33
ENDBRANCH  12  32
TORSDOF 5
