REMARK  Name = ZINC13556623
REMARK  5 active torsions:
REMARK  status: ('A' for Active; 'I' for Inactive)
REMARK    1  A    between atoms: C_1  and  C_2
REMARK    2  A    between atoms: C_6  and  C_8
REMARK    3  A    between atoms: C_13  and  C_18
REMARK    4  A    between atoms: C_13  and  C_19
REMARK    5  A    between atoms: C_25  and  O_27
REMARK                            x       y       z     vdW  Elec       q    Type
REMARK                         _______ _______ _______ _____ _____    ______ ____
ROOT
ATOM      1  C   UNL     1       0.181  -2.922   2.399  0.00  0.00    +0.058 C 
ATOM      2  C   UNL     1       1.475  -3.731   2.527  0.00  0.00    +0.081 C 
ATOM      3  C   UNL     1       1.311  -4.721   3.683  0.00  0.00    +0.180 C 
ATOM      4  C   UNL     1       0.944  -3.963   4.963  0.00  0.00    +0.096 C 
ATOM      5  C   UNL     1       2.057  -2.961   5.278  0.00  0.00    +0.040 C 
ATOM      6  N   UNL     1       3.361  -3.615   5.237  0.00  0.00    -0.362 N 
ATOM      7  C   UNL     1       3.585  -4.774   4.566  0.00  0.00    +0.142 C 
ATOM      8  N   UNL     1       2.575  -5.428   3.913  0.00  0.00    -0.288 N 
ATOM      9  S   UNL     1       5.117  -5.412   4.537  0.00  0.00    -0.016 SA
ATOM     10  C   UNL     1       1.829  -2.375   6.673  0.00  0.00    +0.034 C 
ATOM     11  C   UNL     1       2.026  -1.831   4.246  0.00  0.00    +0.034 C 
ATOM     12  O   UNL     1       0.282  -5.649   3.355  0.00  0.00    -0.468 OA
ATOM     13  C   UNL     1      -0.897  -5.150   2.897  0.00  0.00    +0.131 A 
ATOM     14  C   UNL     1      -1.005  -3.854   2.425  0.00  0.00    +0.002 A 
ATOM     15  C   UNL     1      -2.225  -3.388   1.963  0.00  0.00    +0.011 A 
ATOM     16  C   UNL     1      -3.335  -4.208   1.974  0.00  0.00    +0.046 A 
ATOM     17  C   UNL     1      -3.232  -5.508   2.449  0.00  0.00    +0.120 A 
ATOM     18  C   UNL     1      -2.015  -5.976   2.910  0.00  0.00    +0.091 A 
ATOM     19  H   UNL     1       2.694  -6.341   3.609  0.00  0.00    +0.152 HD
ATOM     20  H   UNL     1       4.100  -3.203   5.711  0.00  0.00    +0.162 HD
ENDROOT
BRANCH   1  26
ATOM     21  C   UNL     1       0.040   1.423  -0.078  0.00  0.00    +0.044 C 
ATOM     22  C   UNL     1       0.124  -0.081  -0.086  0.00  0.00    -0.050 A 
ATOM     23  C   UNL     1       0.212  -0.762  -1.286  0.00  0.00    +0.003 A 
ATOM     24  C   UNL     1       0.289  -2.142  -1.293  0.00  0.00    +0.001 A 
ATOM     25  C   UNL     1       0.279  -2.841  -0.100  0.00  0.00    +0.004 A 
ATOM     26  C   UNL     1       0.192  -2.160   1.099  0.00  0.00    -0.039 A 
ATOM     27  C   UNL     1       0.119  -0.780   1.107  0.00  0.00    +0.007 A 
ENDBRANCH   1  26
BRANCH  17  28
ATOM     28  O   UNL     1      -4.323  -6.317   2.462  0.00  0.00    -0.507 OA
ATOM     29  H   UNL     1      -4.440  -6.833   1.652  0.00  0.00    +0.292 HD
ENDBRANCH  17  28
TORSDOF 2
