REMARK  Name = ZINC22830907
REMARK  11 active torsions:
REMARK  status: ('A' for Active; 'I' for Inactive)
REMARK    1  A    between atoms: C_1  and  C_2
REMARK    2  A    between atoms: C_5  and  C_8
REMARK    3  A    between atoms: C_11  and  S_14
REMARK    4  A    between atoms: N_12  and  N_13
REMARK    5  A    between atoms: S_14  and  C_15
REMARK    6  A    between atoms: C_15  and  C_16
REMARK    7  A    between atoms: C_17  and  C_33
REMARK    8  A    between atoms: C_18  and  C_27
REMARK    9  A    between atoms: N_23  and  C_24
REMARK   10  A    between atoms: C_33  and  O_35
REMARK   11  A    between atoms: O_35  and  C_36
REMARK                            x       y       z     vdW  Elec       q    Type
REMARK                         _______ _______ _______ _____ _____    ______ ____
ROOT
ATOM      1  C   UNL     1      -2.157   3.701  -1.525  0.00  0.00    +0.037 C 
ATOM      2  C   UNL     1      -1.580   2.495  -1.337  0.00  0.00    +0.079 C 
ATOM      3  C   UNL     1      -0.891   2.242  -0.012  0.00  0.00    +0.144 C 
ATOM      4  N   UNL     1      -0.908   3.340   0.969  0.00  0.00    -0.288 N 
ATOM      5  C   UNL     1      -1.526   4.489   0.635  0.00  0.00    +0.307 C 
ATOM      6  O   UNL     1      -1.545   5.402   1.438  0.00  0.00    -0.252 OA
ATOM      7  N   UNL     1      -2.120   4.659  -0.553  0.00  0.00    -0.255 N 
ATOM      8  H   UNL     1      -0.423   3.210   1.948  0.00  0.00    +0.151 HD
ENDROOT
BRANCH   3   9
ATOM      9  C   UNL     1       0.548   1.894  -0.295  0.00  0.00    -0.023 A 
ATOM     10  C   UNL     1       1.461   2.896  -0.567  0.00  0.00    +0.006 A 
ATOM     11  C   UNL     1       2.779   2.577  -0.834  0.00  0.00    +0.000 A 
ATOM     12  C   UNL     1       3.185   1.255  -0.827  0.00  0.00    +0.000 A 
ATOM     13  C   UNL     1       2.272   0.253  -0.555  0.00  0.00    +0.000 A 
ATOM     14  C   UNL     1       0.954   0.573  -0.289  0.00  0.00    +0.006 A 
ENDBRANCH   3   9
BRANCH   7  15
ATOM     15  C   UNL     1      -2.767   5.946  -0.825  0.00  0.00    +0.083 C 
ATOM     16  C   UNL     1      -3.712   6.501   0.243  0.00  0.00    +0.025 C 
ATOM     17  C   UNL     1      -4.278   5.940  -1.064  0.00  0.00    +0.025 C 
ENDBRANCH   7  15
BRANCH   2  18
ATOM     18  C   UNL     1      -1.617   1.502  -2.344  0.00  0.00    +0.339 C 
ATOM     19  O   UNL     1      -2.061   1.768  -3.445  0.00  0.00    -0.245 OA
BRANCH  18  20
ATOM     20  O   UNL     1      -1.159   0.260  -2.083  0.00  0.00    -0.465 OA
ATOM     21  C   UNL     1      -1.226  -0.693  -3.146  0.00  0.00    +0.280 C 
ENDBRANCH  18  20
ENDBRANCH   2  18
BRANCH   1  22
ATOM     22  C   UNL     1      -2.853   3.995  -2.829  0.00  0.00    +0.129 C 
BRANCH  22  23
ATOM     23  S   UNL     1      -1.683   4.760  -3.979  0.00  0.00    -0.079 S 
BRANCH  23  27
ATOM     24  C   UNL     1      -3.514   5.509  -7.348  0.00  0.00    +0.182 A 
ATOM     25  N   UNL     1      -4.462   4.967  -6.620  0.00  0.00    -0.127 NA
ATOM     26  N   UNL     1      -4.002   4.660  -5.459  0.00  0.00    -0.121 NA
ATOM     27  C   UNL     1      -2.732   4.989  -5.376  0.00  0.00    +0.209 A 
ATOM     28  N   UNL     1      -2.379   5.545  -6.572  0.00  0.00    -0.224 N 
BRANCH  24  33
ATOM     29  C   UNL     1      -4.019   7.404 -12.758  0.00  0.00    +0.044 C 
ATOM     30  C   UNL     1      -3.887   6.908 -11.341  0.00  0.00    -0.050 A 
ATOM     31  C   UNL     1      -5.022   6.647 -10.594  0.00  0.00    +0.004 A 
ATOM     32  C   UNL     1      -4.908   6.193  -9.297  0.00  0.00    +0.012 A 
ATOM     33  C   UNL     1      -3.644   5.996  -8.738  0.00  0.00    +0.021 A 
ATOM     34  C   UNL     1      -2.503   6.266  -9.496  0.00  0.00    +0.012 A 
ATOM     35  C   UNL     1      -2.631   6.715 -10.794  0.00  0.00    +0.004 A 
ENDBRANCH  24  33
BRANCH  28  36
ATOM     36  N   UNL     1      -1.153   6.034  -6.924  0.00  0.00    -0.295 N 
ATOM     37  H   UNL     1      -0.321   6.004  -6.205  0.00  0.00    +0.163 HD
ATOM     38  H   UNL     1      -0.998   6.458  -7.928  0.00  0.00    +0.163 HD
ENDBRANCH  28  36
ENDBRANCH  23  27
ENDBRANCH  22  23
ENDBRANCH   1  22
TORSDOF 9
