REMARK  Name = ZINC23119204
REMARK  9 active torsions:
REMARK  status: ('A' for Active; 'I' for Inactive)
REMARK    1  A    between atoms: C_1  and  C_2
REMARK    2  A    between atoms: C_7  and  C_8
REMARK    3  A    between atoms: C_8  and  C_9
REMARK    4  A    between atoms: N_11  and  C_12
REMARK    5  A    between atoms: N_11  and  C_19
REMARK    6  A    between atoms: C_12  and  C_13
REMARK    7  A    between atoms: C_20  and  N_35
REMARK    8  A    between atoms: N_21  and  C_28
REMARK    9  A    between atoms: C_28  and  C_29
REMARK                            x       y       z     vdW  Elec       q    Type
REMARK                         _______ _______ _______ _____ _____    ______ ____
ROOT
ATOM      1  C   UNL     1      -2.883   1.177   4.740  0.00  0.00    +0.140 A 
ATOM      2  C   UNL     1      -3.189   2.398   5.306  0.00  0.00    +0.128 A 
ATOM      3  N   UNL     1      -4.411   2.569   5.915  0.00  0.00    -0.276 N 
ATOM      4  C   UNL     1      -5.297   1.558   5.959  0.00  0.00    +0.331 A 
ATOM      5  O   UNL     1      -6.371   1.728   6.502  0.00  0.00    -0.246 OA
ATOM      6  N   UNL     1      -5.016   0.361   5.413  0.00  0.00    -0.273 N 
ATOM      7  H   UNL     1      -5.672  -0.352   5.458  0.00  0.00    +0.173 HD
ATOM      8  C   UNL     1      -3.836   0.143   4.800  0.00  0.00    +0.277 A 
ATOM      9  O   UNL     1      -3.593  -0.944   4.304  0.00  0.00    -0.266 OA
ENDROOT
BRANCH   1  12
ATOM     10  C   UNL     1      -1.586   0.760   2.776  0.00  0.00    +0.225 C 
ATOM     11  O   UNL     1      -2.596   0.834   2.109  0.00  0.00    -0.275 OA
ATOM     12  N   UNL     1      -1.639   0.971   4.108  0.00  0.00    -0.260 N 
BRANCH  10  13
ATOM     13  C   UNL     1      -0.271   0.431   2.118  0.00  0.00    +0.131 C 
BRANCH  13  20
ATOM     14  C   UNL     1      -0.208   2.782   0.440  0.00  0.00    +0.044 C 
ATOM     15  C   UNL     1      -0.443   1.426  -0.173  0.00  0.00    -0.047 A 
ATOM     16  C   UNL     1      -0.622   1.306  -1.538  0.00  0.00    +0.003 A 
ATOM     17  C   UNL     1      -0.838   0.061  -2.100  0.00  0.00    +0.000 A 
ATOM     18  C   UNL     1      -0.873  -1.063  -1.297  0.00  0.00    +0.000 A 
ATOM     19  C   UNL     1      -0.693  -0.943   0.068  0.00  0.00    +0.004 A 
ATOM     20  C   UNL     1      -0.473   0.301   0.630  0.00  0.00    -0.036 A 
ENDBRANCH  13  20
ENDBRANCH  10  13
BRANCH  12  21
ATOM     21  C   UNL     1      -0.405   0.987   4.897  0.00  0.00    +0.149 C 
BRANCH  21  22
ATOM     22  C   UNL     1      -0.174  -0.376   5.497  0.00  0.00    -0.030 A 
ATOM     23  C   UNL     1      -0.777  -0.715   6.694  0.00  0.00    +0.005 A 
ATOM     24  C   UNL     1      -0.566  -1.966   7.244  0.00  0.00    +0.000 A 
ATOM     25  C   UNL     1       0.247  -2.877   6.597  0.00  0.00    +0.000 A 
ATOM     26  C   UNL     1       0.849  -2.538   5.399  0.00  0.00    +0.000 A 
ATOM     27  C   UNL     1       0.635  -1.290   4.847  0.00  0.00    +0.005 A 
ENDBRANCH  21  22
ENDBRANCH  12  21
ENDBRANCH   1  12
BRANCH   2  28
ATOM     28  N   UNL     1      -2.284   3.432   5.261  0.00  0.00    -0.343 N 
ATOM     29  H   UNL     1      -1.469   3.341   4.743  0.00  0.00    +0.144 HD
ATOM     30  H   UNL     1      -2.461   4.252   5.747  0.00  0.00    +0.144 HD
ENDBRANCH   2  28
BRANCH   3  31
ATOM     31  C   UNL     1      -4.749   3.860   6.519  0.00  0.00    +0.163 C 
BRANCH  31  32
ATOM     32  C   UNL     1      -5.420   4.735   5.493  0.00  0.00    -0.028 A 
ATOM     33  C   UNL     1      -4.660   5.566   4.690  0.00  0.00    +0.005 A 
ATOM     34  C   UNL     1      -5.276   6.369   3.748  0.00  0.00    +0.000 A 
ATOM     35  C   UNL     1      -6.651   6.341   3.609  0.00  0.00    +0.000 A 
ATOM     36  C   UNL     1      -7.410   5.510   4.411  0.00  0.00    +0.000 A 
ATOM     37  C   UNL     1      -6.794   4.704   5.350  0.00  0.00    +0.005 A 
ENDBRANCH  31  32
ENDBRANCH   3  31
TORSDOF 8
