REMARK  Name = ZINC62900457
REMARK  5 active torsions:
REMARK  status: ('A' for Active; 'I' for Inactive)
REMARK    1  A    between atoms: C_1  and  C_2
REMARK    2  A    between atoms: C_2  and  C_3
REMARK    3  A    between atoms: C_3  and  C_8
REMARK    4  A    between atoms: N_10  and  C_11
REMARK    5  A    between atoms: C_12  and  C_19
REMARK                            x       y       z     vdW  Elec       q    Type
REMARK                         _______ _______ _______ _____ _____    ______ ____
ROOT
ATOM      1  C   UNL     1      -0.064   0.109   2.490  0.00  0.00    +0.222 C 
ATOM      2  O   UNL     1      -0.408  -0.655   3.367  0.00  0.00    -0.275 OA
ATOM      3  N   UNL     1      -0.365   1.420   2.582  0.00  0.00    -0.279 N 
ATOM      4  H   UNL     1      -0.026   2.042   1.920  0.00  0.00    +0.155 HD
ENDROOT
BRANCH   3   5
ATOM      5  C   UNL     1      -1.160   1.878   3.623  0.00  0.00    +0.090 A 
ATOM      6  C   UNL     1      -1.572   3.174   3.871  0.00  0.00    +0.084 A 
ATOM      7  C   UNL     1      -2.413   3.397   5.045  0.00  0.00    -0.018 A 
ATOM      8  C   UNL     1      -2.680   2.281   5.748  0.00  0.00    -0.004 A 
ATOM      9  S   UNL     1      -1.847   0.986   4.866  0.00  0.00    -0.077 S 
ATOM     10  C   UNL     1      -3.544   2.567   6.947  0.00  0.00    +0.043 C 
ATOM     11  C   UNL     1      -3.438   4.095   7.149  0.00  0.00    +0.010 C 
ATOM     12  C   UNL     1      -3.102   4.579   5.723  0.00  0.00    +0.037 C 
BRANCH   6  13
ATOM     13  C   UNL     1      -1.190   4.254   3.012  0.00  0.00    +0.102 C 
ATOM     14  N   UNL     1      -0.887   5.111   2.330  0.00  0.00    -0.191 NA
ENDBRANCH   6  13
ENDBRANCH   3   5
BRANCH   1  15
ATOM     15  C   UNL     1       0.701  -0.407   1.299  0.00  0.00    +0.030 C 
ATOM     16  C   UNL     1       2.148   0.137   1.311  0.00  0.00    -0.005 C 
ATOM     17  C   UNL     1       2.949  -1.022   1.956  0.00  0.00    -0.082 C 
ATOM     18  N   UNL     1       2.295  -2.236   1.403  0.00  0.00    +0.380 N 
ATOM     19  C   UNL     1       0.846  -1.938   1.379  0.00  0.00    -0.067 C 
ATOM     20  H   UNL     1       2.629  -2.416   0.468  0.00  0.00    -0.086 HD
ATOM     21  H   UNL     1       2.477  -3.031   1.998  0.00  0.00    -0.086 HD
BRANCH  15  23
ATOM     22  C   UNL     1      -1.439  -0.540   0.018  0.00  0.00    +0.005 C 
ATOM     23  C   UNL     1      -0.005  -0.008   0.002  0.00  0.00    +0.011 C 
ENDBRANCH  15  23
ENDBRANCH   1  15
TORSDOF 4
