REMARK  Name = ZINC44776878
REMARK  5 active torsions:
REMARK  status: ('A' for Active; 'I' for Inactive)
REMARK    1  A    between atoms: C_1  and  C_2
REMARK    2  A    between atoms: C_2  and  C_3
REMARK    3  A    between atoms: C_10  and  C_12
REMARK    4  A    between atoms: C_12  and  C_19
REMARK    5  A    between atoms: C_19  and  N_21
REMARK                            x       y       z     vdW  Elec       q    Type
REMARK                         _______ _______ _______ _____ _____    ______ ____
ROOT
ATOM      1  C   UNL     1      -2.087   1.264  -3.423  0.00  0.00    +0.091 C 
ATOM      2  C   UNL     1      -3.488   1.906  -3.375  0.00  0.00    +0.023 C 
ATOM      3  C   UNL     1      -3.577   2.768  -2.145  0.00  0.00    +0.001 C 
ATOM      4  C   UNL     1      -3.226   4.241  -2.431  0.00  0.00    +0.000 C 
ATOM      5  C   UNL     1      -2.014   4.394  -3.370  0.00  0.00    +0.000 C 
ATOM      6  C   UNL     1      -0.908   3.426  -3.046  0.00  0.00    +0.001 C 
ATOM      7  C   UNL     1      -1.075   2.177  -3.935  0.00  0.00    +0.023 C 
ENDROOT
BRANCH   1  14
ATOM      8  C   UNL     1       0.009   0.107  -0.426  0.00  0.00    +0.101 C 
ATOM      9  C   UNL     1       1.389   0.758  -0.280  0.00  0.00    +0.182 C 
ATOM     10  O   UNL     1       2.240   0.299  -1.333  0.00  0.00    -0.376 OA
ATOM     11  C   UNL     1       1.795   0.656  -2.643  0.00  0.00    +0.179 C 
ATOM     12  C   UNL     1       0.435  -0.000  -2.910  0.00  0.00    +0.136 C 
ATOM     13  N   UNL     1      -0.469   0.335  -1.799  0.00  0.00    -0.293 N 
ATOM     14  C   UNL     1      -1.699   0.835  -2.031  0.00  0.00    +0.228 C 
ATOM     15  O   UNL     1      -2.492   0.942  -1.121  0.00  0.00    -0.275 OA
BRANCH   8  17
ATOM     16  C   UNL     1      -0.423   0.571   1.991  0.00  0.00    +0.006 C 
ATOM     17  C   UNL     1      -0.966   0.737   0.570  0.00  0.00    +0.021 C 
ENDBRANCH   8  17
ENDBRANCH   1  14
BRANCH   1  18
ATOM     18  C   UNL     1      -2.140   0.047  -4.311  0.00  0.00    +0.061 C 
ATOM     19  S   UNL     1      -1.336   0.030  -5.693  0.00  0.00    -0.040 S 
BRANCH  18  20
ATOM     20  N   UNL     1      -2.865  -1.027  -3.939  0.00  0.00    -0.355 N 
ATOM     21  H   UNL     1      -3.410  -0.990  -3.138  0.00  0.00    +0.143 HD
ATOM     22  H   UNL     1      -2.841  -1.836  -4.473  0.00  0.00    +0.143 HD
ENDBRANCH  18  20
ENDBRANCH   1  18
TORSDOF 4
