REMARK  Name = ZINC37298737
REMARK  6 active torsions:
REMARK  status: ('A' for Active; 'I' for Inactive)
REMARK    1  A    between atoms: C_1  and  C_2
REMARK    2  A    between atoms: C_5  and  N_19
REMARK    3  A    between atoms: C_7  and  N_8
REMARK    4  A    between atoms: N_8  and  C_9
REMARK    5  A    between atoms: C_9  and  C_11
REMARK    6  A    between atoms: C_9  and  C_12
REMARK                            x       y       z     vdW  Elec       q    Type
REMARK                         _______ _______ _______ _____ _____    ______ ____
ROOT
ATOM      1  N   UNL     1       0.025  -0.016   2.415  0.00  0.00    -0.337 N 
ATOM      2  H   UNL     1       0.012   0.954   2.422  0.00  0.00    +0.147 HD
ENDROOT
BRANCH   1   9
ATOM      3  C   UNL     1      -0.018   1.503   0.010  0.00  0.00    +0.045 C 
ATOM      4  C   UNL     1       0.002  -0.004   0.002  0.00  0.00    -0.029 A 
ATOM      5  C   UNL     1       0.006  -0.689  -1.198  0.00  0.00    +0.007 A 
ATOM      6  C   UNL     1       0.025  -2.071  -1.206  0.00  0.00    +0.033 A 
ATOM      7  C   UNL     1       0.040  -2.773  -0.014  0.00  0.00    +0.128 A 
ATOM      8  C   UNL     1       0.036  -2.095   1.188  0.00  0.00    +0.056 A 
ATOM      9  C   UNL     1       0.023  -0.706   1.200  0.00  0.00    +0.033 A 
BRANCH   7  10
ATOM     10  N   UNL     1       0.059  -4.253  -0.028  0.00  0.00    +0.056 N 
ATOM     11  O   UNL     1       0.062  -4.848  -1.081  0.00  0.00    -0.126 OA
ATOM     12  O   UNL     1       0.072  -4.867   1.013  0.00  0.00    -0.126 OA
ENDBRANCH   7  10
ENDBRANCH   1   9
BRANCH   1  13
ATOM     13  C   UNL     1       0.047  -0.758   3.678  0.00  0.00    +0.098 C 
ATOM     14  C   UNL     1      -1.381  -1.144   4.068  0.00  0.00    +0.033 C 
BRANCH  13  15
ATOM     15  C   UNL     1       0.646   0.106   4.758  0.00  0.00    -0.028 A 
ATOM     16  C   UNL     1       0.331   1.451   4.821  0.00  0.00    +0.006 A 
ATOM     17  C   UNL     1       0.880   2.244   5.811  0.00  0.00    +0.015 A 
ATOM     18  C   UNL     1       1.745   1.692   6.739  0.00  0.00    +0.013 A 
ATOM     19  C   UNL     1       2.060   0.347   6.675  0.00  0.00    +0.015 A 
ATOM     20  C   UNL     1       1.506  -0.447   5.688  0.00  0.00    +0.006 A 
ATOM     21  I   UNL     1       2.578   2.893   8.239  0.00  0.00    -0.044 I 
ENDBRANCH  13  15
ENDBRANCH   1  13
TORSDOF 4
