REMARK  Name = ZINC03521993
REMARK  6 active torsions:
REMARK  status: ('A' for Active; 'I' for Inactive)
REMARK    1  A    between atoms: C_1  and  C_2
REMARK    2  A    between atoms: N_13  and  C_26
REMARK    3  A    between atoms: C_14  and  S_16
REMARK    4  A    between atoms: S_16  and  C_17
REMARK    5  A    between atoms: C_17  and  C_19
REMARK    6  A    between atoms: C_17  and  C_20
REMARK                            x       y       z     vdW  Elec       q    Type
REMARK                         _______ _______ _______ _____ _____    ______ ____
ROOT
ATOM      1  C   UNL     1      -0.445 -10.183  -1.831  0.00  0.00    +0.008 C 
ATOM      2  C   UNL     1      -0.091  -8.952  -0.995  0.00  0.00    -0.009 C 
ATOM      3  C   UNL     1       1.295  -8.439  -1.397  0.00  0.00    +0.008 C 
ATOM      4  C   UNL     1       1.760  -7.370  -0.407  0.00  0.00    +0.037 C 
ATOM      5  C   UNL     1       0.674  -6.306  -0.285  0.00  0.00    -0.023 A 
ATOM      6  C   UNL     1      -0.591  -6.564  -0.674  0.00  0.00    -0.004 A 
ATOM      7  S   UNL     1      -1.486  -5.068  -0.353  0.00  0.00    -0.073 S 
ATOM      8  C   UNL     1      -0.154  -4.096   0.303  0.00  0.00    +0.117 A 
ATOM      9  C   UNL     1       0.944  -4.971   0.251  0.00  0.00    +0.076 A 
ATOM     10  C   UNL     1       2.185  -4.443   0.729  0.00  0.00    +0.268 A 
ATOM     11  O   UNL     1       3.192  -5.130   0.723  0.00  0.00    -0.267 OA
ATOM     12  N   UNL     1       2.227  -3.175   1.180  0.00  0.00    -0.255 N 
ATOM     13  C   UNL     1       1.106  -2.393   1.200  0.00  0.00    +0.178 A 
ATOM     14  N   UNL     1      -0.049  -2.856   0.766  0.00  0.00    -0.215 NA
ATOM     15  C   UNL     1      -1.121  -7.842  -1.250  0.00  0.00    +0.046 C 
ENDROOT
BRANCH  12  16
ATOM     16  C   UNL     1       3.440  -2.650   1.644  0.00  0.00    +0.052 A 
ATOM     17  C   UNL     1       3.787  -2.776   2.982  0.00  0.00    +0.026 A 
ATOM     18  C   UNL     1       4.986  -2.263   3.435  0.00  0.00    +0.002 A 
ATOM     19  C   UNL     1       5.836  -1.613   2.559  0.00  0.00    +0.000 A 
ATOM     20  C   UNL     1       5.491  -1.480   1.227  0.00  0.00    +0.002 A 
ATOM     21  C   UNL     1       4.296  -1.997   0.767  0.00  0.00    +0.026 A 
ENDBRANCH  12  16
BRANCH  13  22
ATOM     22  S   UNL     1       1.208  -0.742   1.807  0.00  0.00    -0.075 S 
BRANCH  22  23
ATOM     23  C   UNL     1      -0.511  -0.220   1.589  0.00  0.00    +0.137 C 
ATOM     24  C   UNL     1      -0.851  -0.197   0.097  0.00  0.00    +0.029 C 
BRANCH  23  25
ATOM     25  C   UNL     1      -0.694   1.160   2.167  0.00  0.00    +0.233 C 
ATOM     26  O   UNL     1       0.255   1.910   2.258  0.00  0.00    -0.274 OA
ATOM     27  N   UNL     1      -1.913   1.562   2.578  0.00  0.00    -0.239 N 
ATOM     28  C   UNL     1      -2.076   2.795   3.096  0.00  0.00    +0.303 C 
ATOM     29  O   UNL     1      -1.125   3.545   3.191  0.00  0.00    -0.253 OA
ATOM     30  N   UNL     1      -3.295   3.197   3.507  0.00  0.00    -0.313 N 
ATOM     31  H   UNL     1      -2.672   0.963   2.502  0.00  0.00    +0.159 HD
ATOM     32  H   UNL     1      -4.055   2.599   3.430  0.00  0.00    +0.146 HD
ATOM     33  H   UNL     1      -3.413   4.085   3.879  0.00  0.00    +0.146 HD
ENDBRANCH  23  25
ENDBRANCH  22  23
ENDBRANCH  13  22
TORSDOF 4
