REMARK  Name = ZINC35004908
REMARK  6 active torsions:
REMARK  status: ('A' for Active; 'I' for Inactive)
REMARK    1  A    between atoms: C_1  and  C_2
REMARK    2  A    between atoms: C_2  and  N_3
REMARK    3  A    between atoms: N_3  and  C_4
REMARK    4  A    between atoms: C_4  and  C_5
REMARK    5  A    between atoms: C_10  and  N_13
REMARK    6  A    between atoms: C_24  and  C_26
REMARK                            x       y       z     vdW  Elec       q    Type
REMARK                         _______ _______ _______ _____ _____    ______ ____
ROOT
ATOM      1  C   UNL     1      -0.636  -1.940   2.519  0.00  0.00    +0.233 C 
ATOM      2  O   UNL     1      -0.518  -2.694   1.576  0.00  0.00    -0.274 OA
ATOM      3  N   UNL     1      -1.352  -2.317   3.597  0.00  0.00    -0.300 N 
ATOM      4  C   UNL     1      -1.508  -1.413   4.745  0.00  0.00    +0.110 C 
ATOM      5  C   UNL     1      -1.074  -2.150   6.016  0.00  0.00    +0.044 C 
ATOM      6  C   UNL     1      -1.859  -3.458   6.135  0.00  0.00    +0.095 C 
ATOM      7  C   UNL     1      -1.552  -4.351   4.930  0.00  0.00    +0.044 C 
ATOM      8  C   UNL     1      -1.996  -3.636   3.645  0.00  0.00    +0.110 C 
ENDROOT
BRANCH   6   9
ATOM      9  N   UNL     1      -1.470  -4.150   7.367  0.00  0.00    -0.289 N 
ATOM     10  C   UNL     1      -2.323  -4.489   8.415  0.00  0.00    +0.070 A 
ATOM     11  C   UNL     1      -3.680  -4.311   8.633  0.00  0.00    +0.028 A 
ATOM     12  C   UNL     1      -4.255  -4.768   9.802  0.00  0.00    +0.002 A 
ATOM     13  C   UNL     1      -3.481  -5.404  10.758  0.00  0.00    +0.002 A 
ATOM     14  C   UNL     1      -2.128  -5.586  10.550  0.00  0.00    +0.028 A 
ATOM     15  C   UNL     1      -1.542  -5.131   9.378  0.00  0.00    +0.067 A 
ATOM     16  N   UNL     1      -0.240  -5.162   8.886  0.00  0.00    -0.306 N 
ATOM     17  H   UNL     1       0.528  -5.547   9.336  0.00  0.00    +0.170 HD
ATOM     18  C   UNL     1      -0.230  -4.572   7.676  0.00  0.00    +0.328 A 
ATOM     19  O   UNL     1       0.753  -4.436   6.970  0.00  0.00    -0.247 OA
ENDBRANCH   6   9
BRANCH   1  20
ATOM     20  C   UNL     1       0.019  -0.583   2.486  0.00  0.00    +0.203 C 
BRANCH  20  21
ATOM     21  N   UNL     1       0.732  -0.416   1.217  0.00  0.00    -0.289 N 
ATOM     22  C   UNL     1       2.022  -0.792   1.114  0.00  0.00    +0.248 C 
ATOM     23  O   UNL     1       2.570  -1.346   2.048  0.00  0.00    -0.270 OA
BRANCH  22  24
ATOM     24  C   UNL     1       2.769  -0.531  -0.130  0.00  0.00    +0.045 A 
ATOM     25  C   UNL     1       2.329  -1.056  -1.336  0.00  0.00    +0.014 A 
ATOM     26  C   UNL     1       3.028  -0.813  -2.511  0.00  0.00    +0.001 A 
ATOM     27  C   UNL     1       4.162  -0.056  -2.515  0.00  0.00    +0.008 A 
ATOM     28  C   UNL     1       4.644   0.496  -1.316  0.00  0.00    -0.017 A 
ATOM     29  C   UNL     1       3.942   0.265  -0.108  0.00  0.00    -0.006 A 
ATOM     30  C   UNL     1       4.422   0.820   1.086  0.00  0.00    +0.009 A 
ATOM     31  C   UNL     1       5.553   1.580   1.070  0.00  0.00    +0.001 A 
ATOM     32  C   UNL     1       6.242   1.813  -0.118  0.00  0.00    +0.001 A 
ATOM     33  C   UNL     1       5.812   1.279  -1.294  0.00  0.00    +0.008 A 
ENDBRANCH  22  24
BRANCH  21  35
ATOM     34  C   UNL     1       0.337   1.658  -0.017  0.00  0.00    +0.024 C 
ATOM     35  C   UNL     1       0.042   0.159   0.059  0.00  0.00    +0.105 C 
ENDBRANCH  21  35
ENDBRANCH  20  21
ENDBRANCH   1  20
TORSDOF 5
