REMARK  Name = ZINC36076947
REMARK  10 active torsions:
REMARK  status: ('A' for Active; 'I' for Inactive)
REMARK    1  A    between atoms: C_1  and  C_2
REMARK    2  A    between atoms: C_2  and  C_3
REMARK    3  A    between atoms: C_3  and  N_4
REMARK    4  A    between atoms: N_4  and  C_5
REMARK    5  A    between atoms: N_4  and  C_8
REMARK    6  A    between atoms: C_5  and  C_6
REMARK    7  A    between atoms: C_6  and  C_7
REMARK    8  A    between atoms: C_8  and  C_9
REMARK    9  A    between atoms: C_14  and  C_27
REMARK   10  A    between atoms: C_25  and  O_26
REMARK                            x       y       z     vdW  Elec       q    Type
REMARK                         _______ _______ _______ _____ _____    ______ ____
ROOT
ATOM      1  C   UNL     1      -2.294  -4.123   0.279  0.00  0.00    +0.202 C 
ATOM      2  O   UNL     1      -1.197  -4.647   0.342  0.00  0.00    -0.278 OA
ATOM      3  N   UNL     1      -3.385  -4.865   0.353  0.00  0.00    -0.272 N 
ATOM      4  C   UNL     1      -3.283  -6.203   0.499  0.00  0.00    +0.126 A 
ATOM      5  C   UNL     1      -4.454  -6.981   0.571  0.00  0.00    +0.048 A 
ATOM      6  C   UNL     1      -4.360  -8.333   0.717  0.00  0.00    -0.031 A 
ATOM      7  C   UNL     1      -3.076  -8.909   0.791  0.00  0.00    +0.084 A 
ATOM      8  C   UNL     1      -1.936  -8.068   0.712  0.00  0.00    +0.091 A 
ATOM      9  N   UNL     1      -2.076  -6.763   0.566  0.00  0.00    -0.231 NA
ATOM     10  C   UNL     1      -0.610  -8.707   0.794  0.00  0.00    +0.044 A 
ATOM     11  C   UNL     1       0.562  -7.957   0.726  0.00  0.00    +0.014 A 
ATOM     12  C   UNL     1       1.783  -8.590   0.807  0.00  0.00    +0.001 A 
ATOM     13  C   UNL     1       1.847  -9.967   0.955  0.00  0.00    +0.004 A 
ATOM     14  C   UNL     1       0.695 -10.720   1.023  0.00  0.00    +0.047 A 
ATOM     15  C   UNL     1      -0.548 -10.102   0.945  0.00  0.00    +0.141 A 
ATOM     16  O   UNL     1      -1.680 -10.834   1.012  0.00  0.00    -0.424 OA
ATOM     17  C   UNL     1      -2.897 -10.293   0.942  0.00  0.00    +0.294 A 
ATOM     18  C   UNL     1      -5.597  -9.189   0.797  0.00  0.00    +0.045 C 
ATOM     19  H   UNL     1      -4.259  -4.447   0.304  0.00  0.00    +0.156 HD
ENDROOT
BRANCH  17  20
ATOM     20  O   UNL     1      -3.976 -11.090   1.017  0.00  0.00    -0.480 OA
ATOM     21  H   UNL     1      -3.765 -12.028   1.120  0.00  0.00    +0.295 HD
ENDBRANCH  17  20
BRANCH   1  22
ATOM     22  C   UNL     1      -2.408  -2.629   0.117  0.00  0.00    +0.019 C 
BRANCH  22  23
ATOM     23  N   UNL     1      -1.071  -2.055  -0.083  0.00  0.00    +0.385 N 
ATOM     24  H   UNL     1      -0.460  -2.357   0.661  0.00  0.00    -0.081 HD
BRANCH  23  25
ATOM     25  C   UNL     1      -0.532  -2.507  -1.373  0.00  0.00    -0.078 C 
BRANCH  25  27
ATOM     26  C   UNL     1       1.469  -2.483  -2.869  0.00  0.00    +0.002 C 
ATOM     27  C   UNL     1       0.908  -2.012  -1.526  0.00  0.00    -0.022 C 
ENDBRANCH  25  27
ENDBRANCH  23  25
BRANCH  23  28
ATOM     28  C   UNL     1      -1.161  -0.589  -0.078  0.00  0.00    -0.078 C 
BRANCH  28  29
ATOM     29  C   UNL     1      -1.599  -0.111   1.308  0.00  0.00    -0.022 C 
ATOM     30  C   UNL     1      -1.562   1.418   1.355  0.00  0.00    +0.002 C 
ENDBRANCH  28  29
ENDBRANCH  23  28
ENDBRANCH  22  23
ENDBRANCH   1  22
TORSDOF 7
