REMARK  Name = ZINC00194911
REMARK  7 active torsions:
REMARK  status: ('A' for Active; 'I' for Inactive)
REMARK    1  A    between atoms: C_1  and  C_2
REMARK    2  A    between atoms: C_5  and  C_7
REMARK    3  A    between atoms: C_12  and  C_16
REMARK    4  A    between atoms: C_12  and  C_17
REMARK    5  A    between atoms: C_19  and  C_25
REMARK    6  A    between atoms: C_21  and  O_23
REMARK    7  A    between atoms: O_23  and  C_24
REMARK                            x       y       z     vdW  Elec       q    Type
REMARK                         _______ _______ _______ _____ _____    ______ ____
ROOT
ATOM      1  C   UNL     1       1.684  -3.245  -0.023  0.00  0.00    +0.129 C 
ATOM      2  C   UNL     1       2.542  -3.203   1.217  0.00  0.00    +0.031 C 
ATOM      3  C   UNL     1       3.912  -3.133   1.133  0.00  0.00    +0.050 C 
ATOM      4  C   UNL     1       4.757  -3.101   2.385  0.00  0.00    +0.062 C 
ATOM      5  C   UNL     1       3.979  -2.416   3.511  0.00  0.00    -0.023 C 
ATOM      6  C   UNL     1       2.677  -3.188   3.743  0.00  0.00    +0.086 C 
ATOM      7  C   UNL     1       1.899  -3.235   2.457  0.00  0.00    +0.162 C 
ATOM      8  O   UNL     1       0.684  -3.302   2.497  0.00  0.00    -0.292 OA
ATOM      9  C   UNL     1       3.658  -0.975   3.110  0.00  0.00    +0.011 C 
ATOM     10  C   UNL     1       4.816  -2.423   4.792  0.00  0.00    +0.011 C 
ATOM     11  N   UNL     1       4.538  -3.092  -0.041  0.00  0.00    -0.256 NA
ATOM     12  C   UNL     1       3.906  -3.118  -1.194  0.00  0.00    +0.049 C 
ATOM     13  C   UNL     1       2.526  -3.191  -1.263  0.00  0.00    +0.072 C 
ATOM     14  C   UNL     1       1.912  -3.216  -2.498  0.00  0.00    +0.338 C 
ATOM     15  O   UNL     1       2.656  -3.168  -3.620  0.00  0.00    -0.245 OA
ATOM     16  C   UNL     1       4.704  -3.066  -2.471  0.00  0.00    +0.066 C 
ENDROOT
BRANCH   1  21
ATOM     17  C   UNL     1      -0.018   1.503   0.010  0.00  0.00    +0.086 C 
ATOM     18  C   UNL     1       0.002  -0.004   0.002  0.00  0.00    +0.102 A 
ATOM     19  C   UNL     1      -1.078  -0.805   0.003  0.00  0.00    +0.044 A 
ATOM     20  C   UNL     1      -0.601  -2.136  -0.007  0.00  0.00    +0.046 A 
ATOM     21  C   UNL     1       0.742  -2.069  -0.013  0.00  0.00    +0.117 A 
ATOM     22  O   UNL     1       1.102  -0.775  -0.013  0.00  0.00    -0.464 OA
ENDBRANCH   1  21
BRANCH  14  23
ATOM     23  O   UNL     1       0.570  -3.287  -2.582  0.00  0.00    -0.465 OA
ATOM     24  C   UNL     1       0.002  -3.309  -3.893  0.00  0.00    +0.280 C 
ENDBRANCH  14  23
TORSDOF 2
