REMARK  Name = ZINC20208102
REMARK  9 active torsions:
REMARK  status: ('A' for Active; 'I' for Inactive)
REMARK    1  A    between atoms: C_1  and  C_2
REMARK    2  A    between atoms: C_2  and  O_3
REMARK    3  A    between atoms: O_3  and  C_4
REMARK    4  A    between atoms: C_9  and  N_10
REMARK    5  A    between atoms: C_11  and  C_32
REMARK    6  A    between atoms: C_13  and  C_16
REMARK    7  A    between atoms: C_14  and  C_15
REMARK    8  A    between atoms: C_26  and  S_28
REMARK    9  A    between atoms: S_28  and  C_31
REMARK                            x       y       z     vdW  Elec       q    Type
REMARK                         _______ _______ _______ _____ _____    ______ ____
ROOT
ATOM      1  C   UNL     1      -6.555   0.309   1.684  0.00  0.00    +0.026 C 
ATOM      2  C   UNL     1      -7.798   0.647   1.188  0.00  0.00    +0.081 C 
ATOM      3  C   UNL     1      -8.250   0.210  -0.161  0.00  0.00    +0.153 C 
ATOM      4  N   UNL     1      -7.898  -0.927  -0.702  0.00  0.00    -0.283 NA
ATOM      5  N   UNL     1      -9.095   1.143  -0.799  0.00  0.00    -0.150 N 
ATOM      6  C   UNL     1      -9.782   2.030   0.002  0.00  0.00    +0.182 C 
ATOM      7  N   UNL     1      -9.677   2.181   1.298  0.00  0.00    -0.152 NA
ATOM      8  C   UNL     1      -8.757   1.460   1.974  0.00  0.00    +0.273 C 
ATOM      9  O   UNL     1      -8.713   1.479   3.194  0.00  0.00    -0.268 OA
ATOM     10  S   UNL     1     -10.790   2.890  -1.177  0.00  0.00    -0.015 S 
ATOM     11  C   UNL     1     -10.162   2.092  -2.648  0.00  0.00    +0.235 C 
ATOM     12  N   UNL     1      -9.306   1.242  -2.158  0.00  0.00    -0.145 NA
ATOM     13  H   UNL     1      -8.193  -1.149  -1.599  0.00  0.00    +0.188 HD
ENDROOT
BRANCH   1  17
ATOM     14  N   UNL     1      -3.810  -1.371   0.092  0.00  0.00    -0.314 N 
ATOM     15  C   UNL     1      -4.475  -0.932  -1.019  0.00  0.00    +0.022 A 
ATOM     16  C   UNL     1      -5.572  -0.256  -0.639  0.00  0.00    +0.031 A 
ATOM     17  C   UNL     1      -5.587  -0.278   0.830  0.00  0.00    -0.003 A 
ATOM     18  C   UNL     1      -4.463  -0.994   1.210  0.00  0.00    +0.028 A 
ATOM     19  C   UNL     1      -4.042  -1.296   2.625  0.00  0.00    +0.064 C 
ATOM     20  C   UNL     1      -4.045  -1.169  -2.443  0.00  0.00    +0.064 C 
BRANCH  14  26
ATOM     21  C   UNL     1      -1.390  -1.460   0.091  0.00  0.00    +0.144 A 
ATOM     22  C   UNL     1      -0.217  -2.198   0.077  0.00  0.00    +0.048 A 
ATOM     23  C   UNL     1      -0.271  -3.579   0.040  0.00  0.00    +0.004 A 
ATOM     24  C   UNL     1      -1.492  -4.228   0.015  0.00  0.00    +0.002 A 
ATOM     25  C   UNL     1      -2.665  -3.498   0.028  0.00  0.00    +0.030 A 
ATOM     26  C   UNL     1      -2.620  -2.112   0.072  0.00  0.00    +0.088 A 
BRANCH  21  27
ATOM     27  O   UNL     1      -1.339  -0.102   0.127  0.00  0.00    -0.490 OA
BRANCH  27  29
ATOM     28  C   UNL     1      -0.187   2.022   0.185  0.00  0.00    +0.048 C 
ATOM     29  C   UNL     1      -0.043   0.499   0.144  0.00  0.00    +0.226 C 
ENDBRANCH  27  29
ENDBRANCH  21  27
ENDBRANCH  14  26
ENDBRANCH   1  17
BRANCH  11  30
ATOM     30  S   UNL     1     -10.593   2.380  -4.332  0.00  0.00    +0.019 S 
ATOM     31  O   UNL     1     -10.933   3.759  -4.388  0.00  0.00    -0.168 OA
ATOM     32  O   UNL     1      -9.496   1.874  -5.079  0.00  0.00    -0.168 OA
ATOM     33  C   UNL     1     -12.067   1.362  -4.618  0.00  0.00    +0.202 C 
ENDBRANCH  11  30
TORSDOF 5
