REMARK  Name = ZINC49506602
REMARK  5 active torsions:
REMARK  status: ('A' for Active; 'I' for Inactive)
REMARK    1  A    between atoms: C_1  and  C_2
REMARK    2  A    between atoms: C_2  and  C_4
REMARK    3  A    between atoms: C_2  and  N_11
REMARK    4  A    between atoms: N_11  and  C_12
REMARK    5  A    between atoms: C_17  and  N_18
REMARK                            x       y       z     vdW  Elec       q    Type
REMARK                         _______ _______ _______ _____ _____    ______ ____
ROOT
ATOM      1  C   UNL     1      -0.239  -0.669   2.384  0.00  0.00    +0.051 A 
ATOM      2  C   UNL     1      -1.605  -0.427   2.280  0.00  0.00    +0.026 A 
ATOM      3  C   UNL     1      -2.418  -0.623   3.381  0.00  0.00    +0.019 A 
ATOM      4  C   UNL     1      -1.868  -1.054   4.564  0.00  0.00    +0.041 A 
ATOM      5  C   UNL     1      -0.487  -1.311   4.711  0.00  0.00    +0.100 A 
ATOM      6  C   UNL     1       0.323  -1.108   3.569  0.00  0.00    +0.073 A 
ATOM      7  N   UNL     1      -0.147  -1.726   5.949  0.00  0.00    -0.246 NA
ATOM      8  C   UNL     1      -1.026  -1.867   6.898  0.00  0.00    +0.157 A 
ATOM      9  S   UNL     1      -2.486  -1.432   6.184  0.00  0.00    -0.075 S 
ENDROOT
BRANCH   6  10
ATOM     10  N   UNL     1       1.701  -1.348   3.640  0.00  0.00    -0.355 N 
ATOM     11  H   UNL     1       2.259  -1.206   2.860  0.00  0.00    +0.142 HD
ATOM     12  H   UNL     1       2.098  -1.656   4.470  0.00  0.00    +0.142 HD
ENDBRANCH   6  10
BRANCH   1  13
ATOM     13  N   UNL     1       0.583  -0.469   1.264  0.00  0.00    -0.336 N 
ATOM     14  H   UNL     1       1.536  -0.639   1.325  0.00  0.00    +0.147 HD
BRANCH  13  16
ATOM     15  C   UNL     1      -0.092   1.523   0.016  0.00  0.00    +0.033 C 
ATOM     16  C   UNL     1       0.002  -0.004   0.002  0.00  0.00    +0.099 C 
BRANCH  16  17
ATOM     17  C   UNL     1       0.875  -0.443  -1.145  0.00  0.00    -0.009 A 
ATOM     18  C   UNL     1       2.228  -0.647  -0.945  0.00  0.00    +0.007 A 
ATOM     19  C   UNL     1       3.029  -1.050  -1.997  0.00  0.00    +0.000 A 
ATOM     20  C   UNL     1       2.478  -1.248  -3.250  0.00  0.00    +0.001 A 
ATOM     21  C   UNL     1       1.126  -1.044  -3.451  0.00  0.00    +0.020 A 
ATOM     22  C   UNL     1       0.323  -0.647  -2.397  0.00  0.00    +0.046 A 
ATOM     23 CL   UNL     1      -1.377  -0.397  -2.647  0.00  0.00    -0.083 Cl
ENDBRANCH  16  17
ENDBRANCH  13  16
ENDBRANCH   1  13
TORSDOF 4
