REMARK  Name = ZINC00643449
REMARK  6 active torsions:
REMARK  status: ('A' for Active; 'I' for Inactive)
REMARK    1  A    between atoms: C_1  and  C_2
REMARK    2  A    between atoms: C_5  and  N_8
REMARK    3  A    between atoms: C_9  and  C_20
REMARK    4  A    between atoms: C_20  and  C_22
REMARK    5  A    between atoms: C_20  and  C_23
REMARK    6  A    between atoms: C_23  and  C_24
REMARK                            x       y       z     vdW  Elec       q    Type
REMARK                         _______ _______ _______ _____ _____    ______ ____
ROOT
ATOM      1  N   UNL     1       0.059  -4.169  -0.021  0.00  0.00    -0.248 N 
ATOM      2  C   UNL     1       0.180  -4.893   1.245  0.00  0.00    +0.169 C 
ATOM      3  N   UNL     1       0.925  -6.141   1.048  0.00  0.00    -0.325 N 
ATOM      4  C   UNL     1       0.640  -6.924  -0.066  0.00  0.00    +0.041 A 
ATOM      5  C   UNL     1       0.813  -8.297  -0.055  0.00  0.00    +0.024 A 
ATOM      6  C   UNL     1       0.525  -9.032  -1.190  0.00  0.00    +0.002 A 
ATOM      7  C   UNL     1       0.067  -8.405  -2.337  0.00  0.00    +0.001 A 
ATOM      8  C   UNL     1      -0.116  -7.038  -2.363  0.00  0.00    +0.015 A 
ATOM      9  C   UNL     1       0.165  -6.285  -1.225  0.00  0.00    +0.058 A 
ATOM     10  C   UNL     1      -0.041  -4.826  -1.194  0.00  0.00    +0.254 C 
ATOM     11  O   UNL     1      -0.296  -4.220  -2.217  0.00  0.00    -0.270 OA
ATOM     12  H   UNL     1       1.605  -6.416   1.683  0.00  0.00    +0.148 HD
ENDROOT
BRANCH   1  17
ATOM     13  C   UNL     1      -0.017   1.503   0.012  0.00  0.00    +0.044 C 
ATOM     14  C   UNL     1       0.003  -0.004   0.003  0.00  0.00    -0.050 A 
ATOM     15  C   UNL     1      -1.059  -0.705  -0.538  0.00  0.00    +0.005 A 
ATOM     16  C   UNL     1      -1.044  -2.086  -0.548  0.00  0.00    +0.024 A 
ATOM     17  C   UNL     1       0.040  -2.771  -0.013  0.00  0.00    +0.038 A 
ATOM     18  C   UNL     1       1.105  -2.064   0.529  0.00  0.00    +0.024 A 
ATOM     19  C   UNL     1       1.086  -0.683   0.532  0.00  0.00    +0.005 A 
ENDBRANCH   1  17
BRANCH   2  20
ATOM     20  C   UNL     1      -1.217  -5.220   1.777  0.00  0.00    +0.029 C 
ATOM     21  C   UNL     1      -1.094  -5.978   3.101  0.00  0.00    +0.011 C 
BRANCH  20  22
ATOM     22  C   UNL     1      -1.994  -3.921   2.003  0.00  0.00    +0.042 C 
BRANCH  22  23
ATOM     23  C   UNL     1      -3.408  -4.246   2.409  0.00  0.00    -0.043 A 
ATOM     24  C   UNL     1      -4.385  -4.399   1.444  0.00  0.00    +0.007 A 
ATOM     25  C   UNL     1      -5.684  -4.697   1.811  0.00  0.00    +0.050 A 
ATOM     26  C   UNL     1      -6.009  -4.844   3.150  0.00  0.00    +0.166 A 
ATOM     27  C   UNL     1      -5.024  -4.690   4.123  0.00  0.00    +0.166 A 
ATOM     28  C   UNL     1      -3.724  -4.397   3.747  0.00  0.00    +0.053 A 
ATOM     29  O   UNL     1      -5.590  -4.882   5.350  0.00  0.00    -0.453 OA
ATOM     30  C   UNL     1      -7.009  -4.750   5.144  0.00  0.00    +0.466 C 
ATOM     31  O   UNL     1      -7.192  -5.131   3.768  0.00  0.00    -0.453 OA
ENDBRANCH  22  23
ENDBRANCH  20  22
ENDBRANCH   2  20
TORSDOF 4
