REMARK  Name = ZINC54219854
REMARK  6 active torsions:
REMARK  status: ('A' for Active; 'I' for Inactive)
REMARK    1  A    between atoms: C_1  and  C_2
REMARK    2  A    between atoms: N_10  and  N_11
REMARK    3  A    between atoms: C_12  and  C_13
REMARK    4  A    between atoms: C_17  and  O_19
REMARK    5  A    between atoms: O_19  and  C_20
REMARK    6  A    between atoms: C_20  and  C_21
REMARK                            x       y       z     vdW  Elec       q    Type
REMARK                         _______ _______ _______ _____ _____    ______ ____
ROOT
ATOM      1  C   UNL     1      -6.011  -0.980   0.027  0.00  0.00    -0.002 A 
ATOM      2  C   UNL     1      -5.972  -2.377   0.024  0.00  0.00    +0.010 A 
ATOM      3  C   UNL     1      -7.147  -3.099   0.026  0.00  0.00    +0.004 A 
ATOM      4  C   UNL     1      -8.366  -2.444   0.031  0.00  0.00    +0.046 A 
ATOM      5  C   UNL     1      -8.415  -1.057   0.033  0.00  0.00    +0.122 A 
ATOM      6  C   UNL     1      -7.242  -0.322   0.037  0.00  0.00    +0.055 A 
ENDROOT
BRANCH   1   8
ATOM      7  N   UNL     1      -3.614  -0.819   0.015  0.00  0.00    -0.189 NA
ATOM      8  C   UNL     1      -4.756  -0.205   0.025  0.00  0.00    +0.138 C 
BRANCH   7  18
ATOM      9  C   UNL     1      -0.018   1.503   0.010  0.00  0.00    +0.071 C 
ATOM     10  C   UNL     1       0.002  -0.004   0.002  0.00  0.00    +0.100 A 
ATOM     11  C   UNL     1      -1.210  -0.734   0.004  0.00  0.00    +0.166 A 
ATOM     12  N   UNL     1      -1.155  -2.062  -0.004  0.00  0.00    -0.174 NA
ATOM     13  C   UNL     1       0.038  -2.662  -0.013  0.00  0.00    +0.364 A 
ATOM     14  O   UNL     1       0.104  -3.880  -0.021  0.00  0.00    -0.243 OA
ATOM     15  N   UNL     1       1.169  -1.933  -0.015  0.00  0.00    -0.226 N 
ATOM     16  H   UNL     1       2.026  -2.387  -0.022  0.00  0.00    +0.194 HD
ATOM     17  N   UNL     1       1.138  -0.647  -0.012  0.00  0.00    -0.172 NA
ATOM     18  N   UNL     1      -2.422  -0.083   0.014  0.00  0.00    -0.219 N 
ATOM     19  H   UNL     1      -2.451   0.887   0.020  0.00  0.00    +0.176 HD
ENDBRANCH   7  18
ENDBRANCH   1   8
BRANCH   5  20
ATOM     20  O   UNL     1      -9.616  -0.420   0.037  0.00  0.00    -0.487 OA
BRANCH  20  21
ATOM     21  C   UNL     1     -10.786  -1.241   0.038  0.00  0.00    +0.266 C 
BRANCH  21  22
ATOM     22  C   UNL     1     -12.013  -0.366   0.043  0.00  0.00    +0.008 A 
ATOM     23  C   UNL     1     -11.881   1.010   0.039  0.00  0.00    +0.010 A 
ATOM     24  C   UNL     1     -13.005   1.813   0.043  0.00  0.00    +0.020 A 
ATOM     25  C   UNL     1     -14.265   1.240   0.051  0.00  0.00    +0.042 A 
ATOM     26  C   UNL     1     -14.398  -0.137   0.054  0.00  0.00    +0.040 A 
ATOM     27  C   UNL     1     -13.271  -0.940   0.045  0.00  0.00    +0.049 A 
ATOM     28 CL   UNL     1     -13.437  -2.668   0.043  0.00  0.00    -0.083 Cl
ATOM     29 CL   UNL     1     -15.678   2.248   0.056  0.00  0.00    -0.083 Cl
ENDBRANCH  21  22
ENDBRANCH  20  21
ENDBRANCH   5  20
TORSDOF 5
