REMARK  Name = ZINC06087206
REMARK  4 active torsions:
REMARK  status: ('A' for Active; 'I' for Inactive)
REMARK    1  A    between atoms: C_1  and  N_2
REMARK    2  A    between atoms: N_2  and  C_3
REMARK    3  A    between atoms: C_9  and  C_11
REMARK    4  A    between atoms: C_11  and  N_12
REMARK                            x       y       z     vdW  Elec       q    Type
REMARK                         _______ _______ _______ _____ _____    ______ ____
ROOT
ATOM      1  N   UNL     1      -0.932  -0.967  -5.355  0.00  0.00    -0.290 N 
ATOM      2  C   UNL     1      -0.990  -2.308  -5.142  0.00  0.00    +0.203 A 
ATOM      3  N   UNL     1      -1.780  -3.101  -5.798  0.00  0.00    -0.235 NA
ATOM      4  C   UNL     1      -2.608  -2.638  -6.768  0.00  0.00    +0.096 A 
ATOM      5  C   UNL     1      -2.612  -1.257  -7.064  0.00  0.00    +0.068 A 
ATOM      6  C   UNL     1      -1.710  -0.385  -6.297  0.00  0.00    +0.262 A 
ATOM      7  O   UNL     1      -1.664   0.814  -6.503  0.00  0.00    -0.267 OA
ATOM      8  C   UNL     1      -3.453  -0.758  -8.056  0.00  0.00    +0.035 A 
ATOM      9  C   UNL     1      -4.279  -1.621  -8.745  0.00  0.00    +0.043 A 
ATOM     10  C   UNL     1      -4.278  -2.980  -8.457  0.00  0.00    +0.042 A 
ATOM     11  C   UNL     1      -3.453  -3.493  -7.480  0.00  0.00    +0.068 A 
ATOM     12 CL   UNL     1      -3.465  -5.195  -7.134  0.00  0.00    -0.081 Cl
ATOM     13 CL   UNL     1      -5.329  -1.004  -9.982  0.00  0.00    -0.083 Cl
ENDROOT
BRANCH   1  14
ATOM     14  C   UNL     1      -0.015  -0.145  -4.562  0.00  0.00    +0.222 C 
BRANCH  14  17
ATOM     15  C   UNL     1       1.328   1.494  -2.680  0.00  0.00    +0.132 C 
ATOM     16  N   UNL     1      -0.067   1.120  -2.437  0.00  0.00    -0.300 N 
ATOM     17  C   UNL     1      -0.720   0.341  -3.322  0.00  0.00    +0.235 C 
ATOM     18  O   UNL     1      -1.875   0.032  -3.121  0.00  0.00    -0.274 OA
BRANCH  16  19
ATOM     19  C   UNL     1      -0.753   1.593  -1.232  0.00  0.00    +0.076 C 
ATOM     20  C   UNL     1      -0.013   1.086   0.008  0.00  0.00    +0.022 C 
ATOM     21  C   UNL     1      -0.729   1.579   1.267  0.00  0.00    +0.002 C 
ATOM     22  C   UNL     1      -0.750   3.109   1.275  0.00  0.00    +0.000 C 
ATOM     23  C   UNL     1      -1.490   3.616   0.036  0.00  0.00    +0.002 C 
ATOM     24  C   UNL     1      -0.773   3.123  -1.223  0.00  0.00    +0.022 C 
ENDBRANCH  16  19
ENDBRANCH  14  17
ENDBRANCH   1  14
TORSDOF 3
