REMARK  Name = ZINC09617102
REMARK  9 active torsions:
REMARK  status: ('A' for Active; 'I' for Inactive)
REMARK    1  A    between atoms: N_9  and  C_23
REMARK    2  A    between atoms: N_12  and  C_13
REMARK    3  A    between atoms: C_13  and  C_14
REMARK    4  A    between atoms: N_16  and  C_17
REMARK    5  A    between atoms: C_17  and  C_18
REMARK    6  A    between atoms: C_26  and  C_29
REMARK    7  A    between atoms: C_29  and  C_30
REMARK    8  A    between atoms: N_32  and  C_33
REMARK    9  A    between atoms: C_33  and  C_34
REMARK                            x       y       z     vdW  Elec       q    Type
REMARK                         _______ _______ _______ _____ _____    ______ ____
ROOT
ATOM      1  C   UNL     1      -1.140   2.951   0.971  0.00  0.00    +0.001 A 
ATOM      2  C   UNL     1      -1.169   1.670   0.440  0.00  0.00    +0.002 A 
ATOM      3  C   UNL     1      -0.020   1.089  -0.060  0.00  0.00    +0.027 A 
ATOM      4  C   UNL     1       1.172   1.796  -0.042  0.00  0.00    +0.059 A 
ATOM      5  C   UNL     1       1.201   3.097   0.490  0.00  0.00    +0.064 A 
ATOM      6  C   UNL     1       0.037   3.670   0.997  0.00  0.00    +0.015 A 
ATOM      7  C   UNL     1       2.485   3.820   0.494  0.00  0.00    +0.269 A 
ATOM      8  O   UNL     1       2.565   4.947   0.943  0.00  0.00    -0.266 OA
ATOM      9  N   UNL     1       3.571   3.199  -0.014  0.00  0.00    -0.228 N 
ATOM     10  C   UNL     1       3.493   1.955  -0.511  0.00  0.00    +0.337 A 
ATOM     11  O   UNL     1       4.501   1.441  -0.957  0.00  0.00    -0.246 OA
ATOM     12  N   UNL     1       2.348   1.252  -0.539  0.00  0.00    -0.284 N 
ENDROOT
BRANCH   9  13
ATOM     13  C   UNL     1       4.804   3.866  -0.022  0.00  0.00    +0.054 A 
ATOM     14  C   UNL     1       5.665   3.749   1.060  0.00  0.00    +0.027 A 
ATOM     15  C   UNL     1       6.881   4.404   1.048  0.00  0.00    +0.006 A 
ATOM     16  C   UNL     1       7.237   5.184  -0.038  0.00  0.00    -0.038 A 
ATOM     17  C   UNL     1       6.379   5.306  -1.116  0.00  0.00    +0.006 A 
ATOM     18  C   UNL     1       5.164   4.649  -1.111  0.00  0.00    +0.027 A 
BRANCH  16  19
ATOM     19  C   UNL     1       8.561   5.902  -0.046  0.00  0.00    +0.130 C 
BRANCH  19  20
ATOM     20  C   UNL     1       8.394   7.271   0.563  0.00  0.00    +0.217 C 
ATOM     21  O   UNL     1       7.307   7.627   0.964  0.00  0.00    -0.275 OA
ATOM     22  N   UNL     1       9.454   8.098   0.662  0.00  0.00    -0.313 N 
ATOM     23  H   UNL     1      10.323   7.812   0.341  0.00  0.00    +0.149 HD
BRANCH  22  24
ATOM     24  C   UNL     1       9.291   9.428   1.254  0.00  0.00    +0.135 C 
BRANCH  24  25
ATOM     25  C   UNL     1      10.636  10.157   1.246  0.00  0.00    +0.135 C 
ATOM     26  C   UNL     1      10.476  11.559   1.867  0.00  0.00    +0.035 C 
ATOM     27  C   UNL     1      11.467  11.562   3.056  0.00  0.00    +0.031 C 
ATOM     28  C   UNL     1      12.444  10.423   2.668  0.00  0.00    +0.160 C 
ATOM     29  O   UNL     1      11.587   9.439   2.050  0.00  0.00    -0.375 OA
ENDBRANCH  24  25
ENDBRANCH  22  24
ENDBRANCH  19  20
ENDBRANCH  16  19
ENDBRANCH   9  13
BRANCH  12  30
ATOM     30  C   UNL     1       2.340  -0.102  -1.099  0.00  0.00    +0.222 C 
BRANCH  30  31
ATOM     31  C   UNL     1       2.042  -0.034  -2.574  0.00  0.00    +0.233 C 
ATOM     32  O   UNL     1       1.854   1.040  -3.106  0.00  0.00    -0.274 OA
ATOM     33  N   UNL     1       1.984  -1.166  -3.303  0.00  0.00    -0.307 N 
ATOM     34  H   UNL     1       2.134  -2.024  -2.878  0.00  0.00    +0.149 HD
BRANCH  33  35
ATOM     35  C   UNL     1       1.694  -1.099  -4.738  0.00  0.00    +0.178 C 
BRANCH  35  36
ATOM     36  C   UNL     1       1.686  -2.492  -5.314  0.00  0.00    +0.122 A 
ATOM     37  C   UNL     1       0.615  -3.300  -5.402  0.00  0.00    +0.046 A 
ATOM     38  C   UNL     1       1.057  -4.502  -6.003  0.00  0.00    +0.041 A 
ATOM     39  C   UNL     1       2.372  -4.355  -6.245  0.00  0.00    +0.195 A 
ATOM     40  O   UNL     1       2.746  -3.134  -5.831  0.00  0.00    -0.466 OA
ENDBRANCH  35  36
ENDBRANCH  33  35
ENDBRANCH  30  31
ENDBRANCH  12  30
TORSDOF 9
