REMARK  Name = ZINC05518960
REMARK  6 active torsions:
REMARK  status: ('A' for Active; 'I' for Inactive)
REMARK    1  A    between atoms: C_1  and  O_2
REMARK    2  A    between atoms: O_2  and  C_3
REMARK    3  A    between atoms: C_3  and  C_5
REMARK    4  A    between atoms: C_7  and  C_24
REMARK    5  A    between atoms: C_24  and  O_26
REMARK    6  A    between atoms: O_26  and  C_27
REMARK                            x       y       z     vdW  Elec       q    Type
REMARK                         _______ _______ _______ _____ _____    ______ ____
ROOT
ATOM      1  C   UNL     1       2.741   4.357  -1.511  0.00  0.00    +0.188 C 
ATOM      2  C   UNL     1       2.529   5.857  -1.431  0.00  0.00    +0.159 C 
ATOM      3  N   UNL     1       2.227   6.158  -0.208  0.00  0.00    -0.183 NA
ATOM      4  N   UNL     1       2.174   5.189   0.621  0.00  0.00    -0.252 N 
ATOM      5  C   UNL     1       2.485   3.915  -0.051  0.00  0.00    +0.119 C 
ATOM      6  C   UNL     1       1.286   3.022  -0.013  0.00  0.00    -0.004 A 
ATOM      7  C   UNL     1       0.036   3.625   0.087  0.00  0.00    +0.007 A 
ATOM      8  C   UNL     1      -1.115   2.865   0.096  0.00  0.00    +0.000 A 
ATOM      9  C   UNL     1      -1.040   1.487   0.004  0.00  0.00    +0.001 A 
ATOM     10  C   UNL     1       0.194   0.877  -0.077  0.00  0.00    +0.015 A 
ATOM     11  C   UNL     1       1.357   1.643  -0.085  0.00  0.00    +0.018 A 
ATOM     12  S   UNL     1       2.913   0.823  -0.173  0.00  0.00    -0.089 S 
ATOM     13  C   UNL     1       4.044   1.992   0.502  0.00  0.00    +0.018 A 
ATOM     14  C   UNL     1       3.744   3.342   0.516  0.00  0.00    -0.004 A 
ATOM     15  C   UNL     1       4.660   4.227   1.076  0.00  0.00    +0.007 A 
ATOM     16  C   UNL     1       5.853   3.772   1.598  0.00  0.00    +0.000 A 
ATOM     17  C   UNL     1       6.154   2.422   1.572  0.00  0.00    +0.001 A 
ATOM     18  C   UNL     1       5.250   1.534   1.026  0.00  0.00    +0.015 A 
ATOM     19  H   UNL     1       1.960   5.279   1.563  0.00  0.00    +0.169 HD
ENDROOT
BRANCH   1  20
ATOM     20  C   UNL     1       1.747   3.723  -2.448  0.00  0.00    +0.319 C 
ATOM     21  O   UNL     1       0.698   4.276  -2.681  0.00  0.00    -0.250 OA
BRANCH  20  23
ATOM     22  C   UNL     1       1.021   1.991  -3.915  0.00  0.00    +0.280 C 
ATOM     23  O   UNL     1       2.025   2.543  -3.024  0.00  0.00    -0.467 OA
ENDBRANCH  20  23
ENDBRANCH   1  20
BRANCH   2  24
ATOM     24  C   UNL     1       2.645   6.799  -2.541  0.00  0.00    +0.356 C 
ATOM     25  O   UNL     1       2.936   6.397  -3.652  0.00  0.00    -0.244 OA
BRANCH  24  26
ATOM     26  O   UNL     1       2.429   8.115  -2.335  0.00  0.00    -0.464 OA
ATOM     27  C   UNL     1       2.559   8.979  -3.466  0.00  0.00    +0.280 C 
ENDBRANCH  24  26
ENDBRANCH   2  24
TORSDOF 4
