REMARK  Name = ZINC57608148
REMARK  10 active torsions:
REMARK  status: ('A' for Active; 'I' for Inactive)
REMARK    1  A    between atoms: C_1  and  C_2
REMARK    2  A    between atoms: C_2  and  C_3
REMARK    3  A    between atoms: C_10  and  C_15
REMARK    4  A    between atoms: C_15  and  C_17
REMARK    5  A    between atoms: C_15  and  N_28
REMARK    6  A    between atoms: N_21  and  C_22
REMARK    7  A    between atoms: N_28  and  C_29
REMARK    8  A    between atoms: N_28  and  C_36
REMARK    9  A    between atoms: C_29  and  C_30
REMARK   10  A    between atoms: C_36  and  C_37
REMARK                            x       y       z     vdW  Elec       q    Type
REMARK                         _______ _______ _______ _____ _____    ______ ____
ROOT
ATOM      1  C   UNL     1      -6.312  -1.834  -3.024  0.00  0.00    +0.163 C 
ENDROOT
BRANCH   1   9
ATOM      2  C   UNL     1      -1.026   0.663  -0.999  0.00  0.00    -0.047 A 
ATOM      3  C   UNL     1      -1.498   1.032   0.253  0.00  0.00    +0.005 A 
ATOM      4  C   UNL     1      -2.801   0.773   0.618  0.00  0.00    +0.026 A 
ATOM      5  C   UNL     1      -3.655   0.136  -0.276  0.00  0.00    +0.049 A 
ATOM      6  C   UNL     1      -3.173  -0.237  -1.545  0.00  0.00    -0.001 A 
ATOM      7  C   UNL     1      -1.847   0.041  -1.896  0.00  0.00    +0.013 A 
ATOM      8  C   UNL     1      -4.079  -0.907  -2.480  0.00  0.00    +0.021 A 
ATOM      9  C   UNL     1      -5.354  -1.146  -2.087  0.00  0.00    +0.042 A 
ATOM     10  C   UNL     1      -5.788  -0.752  -0.803  0.00  0.00    +0.254 A 
ATOM     11  O   UNL     1      -6.939  -0.976  -0.469  0.00  0.00    -0.268 OA
ATOM     12  N   UNL     1      -4.963  -0.136   0.062  0.00  0.00    -0.322 N 
ATOM     13  H   UNL     1      -5.293   0.121   0.937  0.00  0.00    +0.169 HD
BRANCH   2  15
ATOM     14  C   UNL     1       0.486   2.340  -2.025  0.00  0.00    +0.009 C 
ATOM     15  C   UNL     1       0.404   0.957  -1.375  0.00  0.00    +0.032 C 
ENDBRANCH   2  15
ENDBRANCH   1   9
BRANCH   1  16
ATOM     16  C   UNL     1      -7.496  -0.937  -3.280  0.00  0.00    +0.173 A 
ATOM     17  N   UNL     1      -8.538  -0.775  -2.502  0.00  0.00    -0.111 NA
ATOM     18  N   UNL     1      -9.329   0.071  -3.066  0.00  0.00    -0.023 NA
ATOM     19  N   UNL     1      -8.818   0.453  -4.185  0.00  0.00    -0.044 NA
ATOM     20  N   UNL     1      -7.686  -0.142  -4.350  0.00  0.00    -0.224 N 
BRANCH  20  21
ATOM     21  C   UNL     1      -6.778   0.015  -5.489  0.00  0.00    +0.111 C 
ATOM     22  C   UNL     1      -6.218   1.439  -5.503  0.00  0.00    +0.027 C 
ATOM     23  C   UNL     1      -5.270   1.603  -6.692  0.00  0.00    +0.002 C 
ATOM     24  C   UNL     1      -6.034   1.343  -7.992  0.00  0.00    +0.000 C 
ATOM     25  C   UNL     1      -6.594  -0.081  -7.979  0.00  0.00    +0.002 C 
ATOM     26  C   UNL     1      -7.542  -0.245  -6.789  0.00  0.00    +0.027 C 
ENDBRANCH  20  21
ENDBRANCH   1  16
BRANCH   1  27
ATOM     27  N   UNL     1      -6.772  -3.091  -2.419  0.00  0.00    -0.277 NA
BRANCH  27  28
ATOM     28  C   UNL     1      -7.598  -3.857  -3.361  0.00  0.00    +0.122 C 
BRANCH  28  29
ATOM     29  C   UNL     1      -8.988  -3.275  -3.400  0.00  0.00    -0.015 A 
ATOM     30  C   UNL     1      -9.856  -3.457  -2.334  0.00  0.00    +0.008 A 
ATOM     31  C   UNL     1     -11.124  -2.903  -2.413  0.00  0.00    +0.020 A 
ATOM     32  C   UNL     1     -11.479  -2.193  -3.545  0.00  0.00    +0.111 A 
ATOM     33  N   UNL     1     -10.628  -2.041  -4.540  0.00  0.00    -0.263 NA
ATOM     34  C   UNL     1      -9.411  -2.548  -4.496  0.00  0.00    +0.115 A 
ENDBRANCH  28  29
ENDBRANCH  27  28
BRANCH  27  35
ATOM     35  C   UNL     1      -5.637  -3.892  -1.942  0.00  0.00    +0.160 C 
BRANCH  35  36
ATOM     36  C   UNL     1      -5.418  -3.627  -0.474  0.00  0.00    +0.119 A 
ATOM     37  C   UNL     1      -6.083  -4.212   0.538  0.00  0.00    +0.046 A 
ATOM     38  C   UNL     1      -5.560  -3.673   1.736  0.00  0.00    +0.041 A 
ATOM     39  C   UNL     1      -4.607  -2.792   1.385  0.00  0.00    +0.195 A 
ATOM     40  O   UNL     1      -4.521  -2.773   0.044  0.00  0.00    -0.467 OA
ENDBRANCH  35  36
ENDBRANCH  27  35
ENDBRANCH   1  27
TORSDOF 9
