REMARK  Name = ZINC21145722
REMARK  8 active torsions:
REMARK  status: ('A' for Active; 'I' for Inactive)
REMARK    1  A    between atoms: C_1  and  C_2
REMARK    2  A    between atoms: C_3  and  C_7
REMARK    3  A    between atoms: C_10  and  S_13
REMARK    4  A    between atoms: N_11  and  N_12
REMARK    5  A    between atoms: S_13  and  C_14
REMARK    6  A    between atoms: C_14  and  C_16
REMARK    7  A    between atoms: C_14  and  C_17
REMARK    8  A    between atoms: N_19  and  C_20
REMARK                            x       y       z     vdW  Elec       q    Type
REMARK                         _______ _______ _______ _____ _____    ______ ____
ROOT
ATOM      1  C   UNL     1      -2.508  -0.384   0.033  0.00  0.00    +0.185 A 
ATOM      2  N   UNL     1      -2.964   0.847   0.042  0.00  0.00    -0.127 NA
ATOM      3  N   UNL     1      -4.249   0.839   0.046  0.00  0.00    -0.121 NA
ATOM      4  C   UNL     1      -4.693  -0.397   0.039  0.00  0.00    +0.209 A 
ATOM      5  N   UNL     1      -3.601  -1.219   0.025  0.00  0.00    -0.224 N 
ENDROOT
BRANCH   1   8
ATOM      6  C   UNL     1      -0.021   1.525   0.052  0.00  0.00    +0.087 C 
ATOM      7  C   UNL     1       0.003   0.019   0.035  0.00  0.00    +0.112 A 
ATOM      8  C   UNL     1      -1.087  -0.795   0.027  0.00  0.00    +0.061 A 
ATOM      9  C   UNL     1      -0.561  -2.166   0.011  0.00  0.00    +0.053 A 
ATOM     10  C   UNL     1       0.777  -2.049   0.011  0.00  0.00    +0.196 A 
ATOM     11  O   UNL     1       1.103  -0.748   0.021  0.00  0.00    -0.467 OA
ENDBRANCH   1   8
BRANCH   5  12
ATOM     12  N   UNL     1      -3.596  -2.585   0.008  0.00  0.00    -0.295 N 
ATOM     13  H   UNL     1      -3.593  -2.958   0.946  0.00  0.00    +0.163 HD
ATOM     14  H   UNL     1      -4.376  -2.943  -0.521  0.00  0.00    +0.163 HD
ENDBRANCH   5  12
BRANCH   4  15
ATOM     15  S   UNL     1      -6.381  -0.901   0.040  0.00  0.00    -0.072 S 
BRANCH  15  16
ATOM     16  C   UNL     1      -7.306   0.660   0.053  0.00  0.00    +0.137 C 
ATOM     17  C   UNL     1      -7.037   1.401   1.364  0.00  0.00    +0.029 C 
BRANCH  16  18
ATOM     18  C   UNL     1      -8.780   0.372  -0.068  0.00  0.00    +0.230 C 
ATOM     19  O   UNL     1      -9.220  -0.700   0.291  0.00  0.00    -0.274 OA
ATOM     20  N   UNL     1      -9.609   1.305  -0.576  0.00  0.00    -0.285 N 
ATOM     21  H   UNL     1      -9.270   2.185  -0.801  0.00  0.00    +0.155 HD
BRANCH  20  22
ATOM     22  C   UNL     1     -10.961   1.004  -0.779  0.00  0.00    +0.035 A 
ATOM     23  C   UNL     1     -11.637   1.539  -1.867  0.00  0.00    +0.023 A 
ATOM     24  C   UNL     1     -12.970   1.240  -2.066  0.00  0.00    +0.003 A 
ATOM     25  C   UNL     1     -13.633   0.408  -1.181  0.00  0.00    +0.020 A 
ATOM     26  C   UNL     1     -12.963  -0.127  -0.096  0.00  0.00    +0.043 A 
ATOM     27  C   UNL     1     -11.626   0.165   0.105  0.00  0.00    +0.043 A 
ATOM     28 CL   UNL     1     -13.799  -1.169   1.012  0.00  0.00    -0.083 Cl
ENDBRANCH  20  22
ENDBRANCH  16  18
ENDBRANCH  15  16
ENDBRANCH   4  15
TORSDOF 6
