REMARK  Name = ZINC00799655
REMARK  4 active torsions:
REMARK  status: ('A' for Active; 'I' for Inactive)
REMARK    1  A    between atoms: C_4  and  C_7
REMARK    2  A    between atoms: C_9  and  C_17
REMARK    3  A    between atoms: N_19  and  C_20
REMARK    4  A    between atoms: C_21  and  C_29
REMARK                            x       y       z     vdW  Elec       q    Type
REMARK                         _______ _______ _______ _____ _____    ______ ____
ROOT
ATOM      1  C   UNL     1       1.213   3.575   0.010  0.00  0.00    +0.249 C 
ATOM      2  O   UNL     1       2.274   4.160   0.095  0.00  0.00    -0.270 OA
ATOM      3  N   UNL     1       0.063   4.272  -0.077  0.00  0.00    -0.275 N 
ATOM      4  H   UNL     1      -0.784   3.805  -0.145  0.00  0.00    +0.156 HD
ENDROOT
BRANCH   1   7
ATOM      5  C   UNL     1       0.002  -0.004   0.016  0.00  0.00    +0.072 A 
ATOM      6  C   UNL     1      -0.017   1.399   0.024  0.00  0.00    +0.042 A 
ATOM      7  C   UNL     1       1.183   2.097   0.002  0.00  0.00    +0.048 A 
ATOM      8  C   UNL     1       2.417   1.310  -0.029  0.00  0.00    +0.013 A 
ATOM      9  C   UNL     1       3.674   1.923  -0.054  0.00  0.00    +0.011 A 
ATOM     10  C   UNL     1       4.798   1.153  -0.084  0.00  0.00    +0.001 A 
ATOM     11  C   UNL     1       4.711  -0.238  -0.090  0.00  0.00    +0.002 A 
ATOM     12  C   UNL     1       3.504  -0.866  -0.067  0.00  0.00    +0.028 A 
ATOM     13  C   UNL     1       2.321  -0.104  -0.036  0.00  0.00    +0.072 A 
ATOM     14  N   UNL     1       1.124  -0.692  -0.013  0.00  0.00    -0.247 NA
BRANCH   5  18
ATOM     15  C   UNL     1      -3.692  -2.107   0.084  0.00  0.00    +0.000 A 
ATOM     16  C   UNL     1      -2.501  -2.808   0.054  0.00  0.00    +0.001 A 
ATOM     17  C   UNL     1      -1.298  -2.131   0.032  0.00  0.00    +0.010 A 
ATOM     18  C   UNL     1      -1.286  -0.737   0.040  0.00  0.00    +0.000 A 
ATOM     19  C   UNL     1      -2.490  -0.035   0.076  0.00  0.00    +0.010 A 
ATOM     20  C   UNL     1      -3.687  -0.723   0.091  0.00  0.00    +0.001 A 
ENDBRANCH   5  18
ENDBRANCH   1   7
BRANCH   3  21
ATOM     21  C   UNL     1       0.091   5.657  -0.070  0.00  0.00    +0.085 A 
ATOM     22  C   UNL     1      -0.975   6.542  -0.156  0.00  0.00    +0.068 A 
ATOM     23  C   UNL     1      -0.673   7.963  -0.121  0.00  0.00    -0.023 A 
ATOM     24  C   UNL     1       0.639   8.270  -0.018  0.00  0.00    -0.004 A 
ATOM     25  S   UNL     1       1.466   6.706   0.040  0.00  0.00    -0.077 S 
ATOM     26  C   UNL     1       1.245   9.638   0.033  0.00  0.00    +0.043 C 
ATOM     27  C   UNL     1       0.187  10.653  -0.425  0.00  0.00    +0.005 C 
ATOM     28  C   UNL     1      -1.124  10.365   0.311  0.00  0.00    +0.005 C 
ATOM     29  C   UNL     1      -1.731   9.057  -0.198  0.00  0.00    +0.037 C 
BRANCH  22  30
ATOM     30  C   UNL     1      -2.355   6.061  -0.272  0.00  0.00    +0.244 C 
ATOM     31  O   UNL     1      -3.015   5.858   0.730  0.00  0.00    -0.270 OA
ATOM     32  N   UNL     1      -2.893   5.843  -1.489  0.00  0.00    -0.325 N 
ATOM     33  H   UNL     1      -2.366   6.005  -2.287  0.00  0.00    +0.145 HD
ATOM     34  H   UNL     1      -3.805   5.525  -1.566  0.00  0.00    +0.145 HD
ENDBRANCH  22  30
ENDBRANCH   3  21
TORSDOF 4
