REMARK  Name = ZINC39940815
REMARK  5 active torsions:
REMARK  status: ('A' for Active; 'I' for Inactive)
REMARK    1  A    between atoms: C_4  and  N_7
REMARK    2  A    between atoms: C_8  and  S_22
REMARK    3  A    between atoms: S_22  and  C_23
REMARK    4  A    between atoms: C_23  and  C_24
REMARK    5  A    between atoms: C_24  and  C_26
REMARK                            x       y       z     vdW  Elec       q    Type
REMARK                         _______ _______ _______ _____ _____    ______ ____
ROOT
ATOM      1  N   UNL     1       3.621  -0.650  -0.037  0.00  0.00    -0.239 N 
ATOM      2  C   UNL     1       3.603  -2.106   0.061  0.00  0.00    +0.227 C 
ATOM      3  N   UNL     1       4.786  -2.609   0.782  0.00  0.00    -0.311 N 
ATOM      4  C   UNL     1       5.974  -1.960   0.548  0.00  0.00    +0.080 A 
ATOM      5  C   UNL     1       6.034  -0.634   0.098  0.00  0.00    +0.069 A 
ATOM      6  C   UNL     1       7.371  -0.094  -0.090  0.00  0.00    -0.023 A 
ATOM      7  C   UNL     1       8.370  -0.958   0.194  0.00  0.00    -0.005 A 
ATOM      8  S   UNL     1       7.554  -2.447   0.697  0.00  0.00    -0.078 S 
ATOM      9  C   UNL     1       9.841  -0.696   0.098  0.00  0.00    +0.043 C 
ATOM     10  C   UNL     1      10.053   0.580  -0.730  0.00  0.00    +0.005 C 
ATOM     11  C   UNL     1       9.112   1.670  -0.208  0.00  0.00    +0.005 C 
ATOM     12  C   UNL     1       7.665   1.322  -0.566  0.00  0.00    +0.037 C 
ATOM     13  C   UNL     1       4.755   0.072  -0.149  0.00  0.00    +0.256 C 
ATOM     14  O   UNL     1       4.728   1.255  -0.436  0.00  0.00    -0.269 OA
ATOM     15  H   UNL     1       4.729  -3.361   1.391  0.00  0.00    +0.149 HD
ENDROOT
BRANCH   1  19
ATOM     16  C   UNL     1      -0.017   1.377   0.011  0.00  0.00    +0.000 A 
ATOM     17  C   UNL     1       0.531   0.973  -1.192  0.00  0.00    +0.002 A 
ATOM     18  C   UNL     1       1.737   0.300  -1.212  0.00  0.00    +0.023 A 
ATOM     19  C   UNL     1       2.400   0.031  -0.021  0.00  0.00    +0.039 A 
ATOM     20  C   UNL     1       1.847   0.439   1.186  0.00  0.00    +0.023 A 
ATOM     21  C   UNL     1       0.640   1.111   1.198  0.00  0.00    +0.002 A 
ENDBRANCH   1  19
BRANCH   2  22
ATOM     22  S   UNL     1       3.582  -2.814  -1.609  0.00  0.00    -0.111 S 
BRANCH  22  23
ATOM     23  C   UNL     1       5.109  -2.195  -2.368  0.00  0.00    +0.151 C 
BRANCH  23  24
ATOM     24  C   UNL     1       5.216  -2.716  -3.778  0.00  0.00    +0.171 C 
ATOM     25  O   UNL     1       4.347  -3.435  -4.227  0.00  0.00    -0.291 OA
BRANCH  24  26
ATOM     26  C   UNL     1       6.327  -2.368  -4.576  0.00  0.00    +0.024 C 
ATOM     27  C   UNL     1       6.573  -2.753  -5.881  0.00  0.00    +0.006 A 
ATOM     28  C   UNL     1       5.859  -3.563  -6.796  0.00  0.00    +0.010 A 
ATOM     29  C   UNL     1       6.345  -3.778  -8.039  0.00  0.00    +0.001 A 
ATOM     30  C   UNL     1       7.556  -3.222  -8.481  0.00  0.00    +0.002 A 
ATOM     31  C   UNL     1       8.314  -2.435  -7.686  0.00  0.00    +0.026 A 
ATOM     32  C   UNL     1       7.856  -2.151  -6.316  0.00  0.00    +0.043 A 
ATOM     33  N   UNL     1       8.376  -1.441  -5.356  0.00  0.00    -0.380 N 
ATOM     34  C   UNL     1       7.495  -1.489  -4.185  0.00  0.00    +0.152 C 
ATOM     35  H   UNL     1       9.213  -0.953  -5.408  0.00  0.00    +0.160 HD
ENDBRANCH  24  26
ENDBRANCH  23  24
ENDBRANCH  22  23
ENDBRANCH   2  22
TORSDOF 5
