REMARK  Name = ZINC25224577
REMARK  6 active torsions:
REMARK  status: ('A' for Active; 'I' for Inactive)
REMARK    1  A    between atoms: C_7  and  C_11
REMARK    2  A    between atoms: C_11  and  C_12
REMARK    3  A    between atoms: C_12  and  N_13
REMARK    4  A    between atoms: N_13  and  C_14
REMARK    5  A    between atoms: N_19  and  C_22
REMARK    6  A    between atoms: C_27  and  C_28
REMARK                            x       y       z     vdW  Elec       q    Type
REMARK                         _______ _______ _______ _____ _____    ______ ____
ROOT
ATOM      1  C   UNL     1      -1.395  -1.981   0.005  0.00  0.00    +0.026 C 
ATOM      2  C   UNL     1      -2.738  -2.504  -0.546  0.00  0.00    +0.090 C 
ATOM      3  C   UNL     1      -3.317  -3.284   0.614  0.00  0.00    +0.225 C 
ATOM      4  O   UNL     1      -4.380  -3.868   0.606  0.00  0.00    -0.275 OA
ATOM      5  N   UNL     1      -2.470  -3.228   1.649  0.00  0.00    -0.211 N 
ATOM      6  C   UNL     1      -1.353  -2.522   1.417  0.00  0.00    +0.213 C 
ATOM      7  O   UNL     1      -0.454  -2.344   2.211  0.00  0.00    -0.277 OA
ENDROOT
BRANCH   5   8
ATOM      8  C   UNL     1      -2.728  -3.858   2.875  0.00  0.00    +0.055 A 
ATOM      9  C   UNL     1      -2.313  -5.166   3.086  0.00  0.00    +0.024 A 
ATOM     10  C   UNL     1      -2.563  -5.782   4.297  0.00  0.00    +0.002 A 
ATOM     11  C   UNL     1      -3.236  -5.101   5.294  0.00  0.00    +0.001 A 
ATOM     12  C   UNL     1      -3.656  -3.800   5.085  0.00  0.00    +0.014 A 
ATOM     13  C   UNL     1      -3.404  -3.177   3.878  0.00  0.00    +0.077 A 
BRANCH  13  14
ATOM     14  C   UNL     1      -3.862  -1.760   3.650  0.00  0.00    +0.419 C 
ATOM     15  F   UNL     1      -4.514  -1.291   4.796  0.00  0.00    -0.166 F 
ATOM     16  F   UNL     1      -2.755  -0.949   3.379  0.00  0.00    -0.166 F 
ATOM     17  F   UNL     1      -4.744  -1.723   2.565  0.00  0.00    -0.166 F 
ENDBRANCH  13  14
ENDBRANCH   5   8
BRANCH   1  18
ATOM     18  N   UNL     1      -1.376  -0.512   0.012  0.00  0.00    +0.387 N 
ATOM     19  H   UNL     1      -1.891  -0.158   0.917  0.00  0.00    -0.085 HD
ATOM     20  H   UNL     1      -1.908  -0.148  -0.879  0.00  0.00    -0.085 HD
BRANCH  18  21
ATOM     21  C   UNL     1       0.002  -0.004   0.002  0.00  0.00    -0.077 C 
BRANCH  21  22
ATOM     22  C   UNL     1      -0.019   1.526   0.010  0.00  0.00    +0.018 C 
BRANCH  22  29
ATOM     23  C   UNL     1       3.060   2.375  -3.421  0.00  0.00    +0.001 A 
ATOM     24  C   UNL     1       4.273   2.863  -2.951  0.00  0.00    +0.002 A 
ATOM     25  C   UNL     1       4.479   3.052  -1.602  0.00  0.00    +0.026 A 
ATOM     26  C   UNL     1       3.463   2.753  -0.699  0.00  0.00    +0.047 A 
ATOM     27  C   UNL     1       2.239   2.253  -1.180  0.00  0.00    +0.003 A 
ATOM     28  C   UNL     1       2.050   2.075  -2.552  0.00  0.00    +0.010 A 
ATOM     29  C   UNL     1       1.395   2.047  -0.000  0.00  0.00    -0.024 A 
ATOM     30  C   UNL     1       2.122   2.406   1.070  0.00  0.00    +0.087 A 
ATOM     31  N   UNL     1       3.361   2.830   0.671  0.00  0.00    -0.360 N 
ATOM     32  H   UNL     1       4.211   3.194   1.267  0.00  0.00    +0.165 HD
ENDBRANCH  22  29
ENDBRANCH  21  22
ENDBRANCH  18  21
ENDBRANCH   1  18
TORSDOF 6
