REMARK  Name = ZINC47043578
REMARK  8 active torsions:
REMARK  status: ('A' for Active; 'I' for Inactive)
REMARK    1  A    between atoms: C_1  and  C_2
REMARK    2  A    between atoms: C_2  and  C_3
REMARK    3  A    between atoms: C_2  and  C_4
REMARK    4  A    between atoms: C_4  and  C_6
REMARK    5  A    between atoms: C_4  and  C_23
REMARK    6  A    between atoms: C_6  and  N_7
REMARK    7  A    between atoms: N_13  and  C_16
REMARK    8  A    between atoms: C_21  and  O_22
REMARK                            x       y       z     vdW  Elec       q    Type
REMARK                         _______ _______ _______ _____ _____    ______ ____
ROOT
ATOM      1  N   UNL     1      -2.051   1.533  -1.019  0.00  0.00    -0.299 N 
ATOM      2  C   UNL     1      -2.587   2.276  -2.007  0.00  0.00    +0.302 C 
ATOM      3  O   UNL     1      -3.209   1.738  -2.903  0.00  0.00    -0.253 OA
ATOM      4  N   UNL     1      -2.432   3.615  -2.004  0.00  0.00    -0.283 N 
ATOM      5  C   UNL     1      -1.582   4.267  -0.998  0.00  0.00    +0.128 C 
ATOM      6  C   UNL     1      -0.530   5.117  -1.721  0.00  0.00    +0.124 C 
ATOM      7  N   UNL     1      -1.209   5.951  -2.723  0.00  0.00    -0.324 N 
ATOM      8  C   UNL     1      -2.059   5.299  -3.729  0.00  0.00    +0.124 C 
ATOM      9  C   UNL     1      -3.106   4.448  -3.009  0.00  0.00    +0.128 C 
ATOM     10  H   UNL     1      -1.619   1.967  -0.266  0.00  0.00    +0.150 HD
ENDROOT
BRANCH   7  11
ATOM     11  C   UNL     1      -1.048   7.341  -2.720  0.00  0.00    +0.072 A 
ATOM     12  C   UNL     1      -0.026   7.926  -3.452  0.00  0.00    +0.027 A 
ATOM     13  C   UNL     1       0.130   9.299  -3.447  0.00  0.00    +0.002 A 
ATOM     14  C   UNL     1      -0.731  10.093  -2.713  0.00  0.00    +0.004 A 
ATOM     15  C   UNL     1      -1.753   9.518  -1.980  0.00  0.00    +0.047 A 
ATOM     16  C   UNL     1      -1.919   8.143  -1.984  0.00  0.00    +0.138 A 
BRANCH  16  17
ATOM     17  O   UNL     1      -2.927   7.576  -1.269  0.00  0.00    -0.505 OA
ATOM     18  H   UNL     1      -2.685   7.349  -0.360  0.00  0.00    +0.292 HD
ENDBRANCH  16  17
ENDBRANCH   7  11
BRANCH   1  19
ATOM     19  C   UNL     1      -2.120   0.071  -1.081  0.00  0.00    +0.114 C 
BRANCH  19  20
ATOM     20  C   UNL     1      -1.336  -0.527   0.089  0.00  0.00    +0.039 C 
BRANCH  20  21
ATOM     21  C   UNL     1      -2.007  -0.154   1.386  0.00  0.00    -0.043 A 
ATOM     22  C   UNL     1      -3.310  -0.547   1.628  0.00  0.00    +0.004 A 
ATOM     23  C   UNL     1      -3.925  -0.206   2.818  0.00  0.00    +0.000 A 
ATOM     24  C   UNL     1      -3.237   0.528   3.766  0.00  0.00    +0.000 A 
ATOM     25  C   UNL     1      -1.934   0.920   3.524  0.00  0.00    +0.000 A 
ATOM     26  C   UNL     1      -1.317   0.575   2.336  0.00  0.00    +0.004 A 
ENDBRANCH  20  21
BRANCH  20  28
ATOM     27  C   UNL     1      -0.512  -2.432  -1.302  0.00  0.00    +0.008 C 
ATOM     28  C   UNL     1      -1.300  -2.050  -0.047  0.00  0.00    -0.008 C 
ATOM     29  C   UNL     1      -0.624  -2.657   1.184  0.00  0.00    +0.008 C 
ENDBRANCH  20  28
ENDBRANCH  19  20
ENDBRANCH   1  19
TORSDOF 6
