REMARK  Name = ZINC38742765
REMARK  5 active torsions:
REMARK  status: ('A' for Active; 'I' for Inactive)
REMARK    1  A    between atoms: C_1  and  C_2
REMARK    2  A    between atoms: C_2  and  C_3
REMARK    3  A    between atoms: C_2  and  C_4
REMARK    4  A    between atoms: C_6  and  C_10
REMARK    5  A    between atoms: C_18  and  C_20
REMARK                            x       y       z     vdW  Elec       q    Type
REMARK                         _______ _______ _______ _____ _____    ______ ____
ROOT
ATOM      1  C   UNL     1       0.938  -0.952   4.528  0.00  0.00    +0.206 C 
ATOM      2  N   UNL     1      -0.233  -1.685   5.064  0.00  0.00    -0.231 NA
ATOM      3  N   UNL     1       0.176  -2.232   6.369  0.00  0.00    -0.224 NA
ATOM      4  C   UNL     1       1.269  -1.327   6.779  0.00  0.00    +0.240 C 
ATOM      5  N   UNL     1       2.034  -1.186   5.496  0.00  0.00    -0.206 N 
ATOM      6  N   UNL     1       3.389  -1.394   5.633  0.00  0.00    -0.173 NA
ATOM      7  C   UNL     1       3.914  -1.968   6.676  0.00  0.00    +0.125 C 
ATOM      8  S   UNL     1       2.509  -2.196   7.810  0.00  0.00    -0.063 S 
ATOM      9  H   UNL     1      -1.029  -1.074   5.162  0.00  0.00    +0.143 HD
ATOM     10  H   UNL     1      -0.586  -2.200   7.029  0.00  0.00    +0.144 HD
ENDROOT
BRANCH   7  11
ATOM     11  C   UNL     1       5.328  -2.342   6.896  0.00  0.00    +0.012 A 
ATOM     12  C   UNL     1       5.711  -2.962   8.086  0.00  0.00    +0.014 A 
ATOM     13  C   UNL     1       7.030  -3.311   8.289  0.00  0.00    +0.050 A 
ATOM     14  C   UNL     1       7.979  -3.046   7.313  0.00  0.00    +0.166 A 
ATOM     15  C   UNL     1       7.603  -2.427   6.122  0.00  0.00    +0.167 A 
ATOM     16  C   UNL     1       6.281  -2.081   5.911  0.00  0.00    +0.060 A 
ATOM     17  O   UNL     1       8.711  -2.281   5.337  0.00  0.00    -0.453 OA
ATOM     18  C   UNL     1       9.834  -2.444   6.224  0.00  0.00    +0.466 C 
ATOM     19  O   UNL     1       9.323  -3.288   7.272  0.00  0.00    -0.453 OA
ENDBRANCH   7  11
BRANCH   1  22
ATOM     20  C   UNL     1       0.731  -0.503   1.223  0.00  0.00    +0.064 C 
ATOM     21  C   UNL     1       0.194  -1.291   2.157  0.00  0.00    +0.030 C 
ATOM     22  C   UNL     1       1.322  -1.500   3.152  0.00  0.00    +0.190 C 
ATOM     23  N   UNL     1       2.427  -0.722   2.567  0.00  0.00    -0.177 NA
ATOM     24  N   UNL     1       2.019  -0.219   1.517  0.00  0.00    -0.158 NA
BRANCH  20  26
ATOM     25  C   UNL     1      -0.019   1.526   0.010  0.00  0.00    +0.014 C 
ATOM     26  C   UNL     1       0.002  -0.004   0.002  0.00  0.00    +0.033 C 
ATOM     27  C   UNL     1       0.718  -0.497  -1.257  0.00  0.00    +0.014 C 
ENDBRANCH  20  26
ENDBRANCH   1  22
TORSDOF 3
