REMARK  Name = ZINC00207081
REMARK  8 active torsions:
REMARK  status: ('A' for Active; 'I' for Inactive)
REMARK    1  A    between atoms: C_1  and  C_2
REMARK    2  A    between atoms: C_2  and  O_3
REMARK    3  A    between atoms: O_3  and  C_4
REMARK    4  A    between atoms: C_4  and  C_6
REMARK    5  A    between atoms: C_7  and  C_25
REMARK    6  A    between atoms: C_9  and  N_24
REMARK    7  A    between atoms: C_10  and  C_22
REMARK    8  A    between atoms: C_11  and  C_13
REMARK                            x       y       z     vdW  Elec       q    Type
REMARK                         _______ _______ _______ _____ _____    ______ ____
ROOT
ATOM      1  C   UNL     1      -0.019   1.694   2.383  0.00  0.00    +0.087 C 
ATOM      2  C   UNL     1      -0.722   1.555   1.252  0.00  0.00    +0.115 C 
ATOM      3  O   UNL     1      -2.027   1.855   1.179  0.00  0.00    -0.445 OA
ATOM      4  C   UNL     1      -2.579   2.641   2.118  0.00  0.00    +0.198 C 
ATOM      5  C   UNL     1      -1.982   2.849   3.316  0.00  0.00    +0.098 C 
ATOM      6  C   UNL     1      -0.667   2.196   3.645  0.00  0.00    +0.105 C 
ATOM      7  C   UNL     1      -0.021   1.051   0.017  0.00  0.00    +0.087 C 
ENDROOT
BRANCH   6   8
ATOM      8  C   UNL     1      -0.903   1.038   4.581  0.00  0.00    -0.031 A 
ATOM      9  C   UNL     1      -1.710  -0.013   4.189  0.00  0.00    +0.008 A 
ATOM     10  C   UNL     1      -1.926  -1.079   5.043  0.00  0.00    +0.050 A 
ATOM     11  C   UNL     1      -1.340  -1.091   6.298  0.00  0.00    +0.166 A 
ATOM     12  C   UNL     1      -0.530  -0.029   6.695  0.00  0.00    +0.167 A 
ATOM     13  C   UNL     1      -0.315   1.033   5.832  0.00  0.00    +0.054 A 
ATOM     14  O   UNL     1      -0.078  -0.275   7.959  0.00  0.00    -0.453 OA
ATOM     15  C   UNL     1      -0.285  -1.683   8.175  0.00  0.00    +0.466 C 
ATOM     16  O   UNL     1      -1.394  -2.001   7.314  0.00  0.00    -0.453 OA
ENDBRANCH   6   8
BRANCH   4  17
ATOM     17  N   UNL     1      -3.777   3.256   1.852  0.00  0.00    -0.328 N 
ATOM     18  H   UNL     1      -4.185   3.830   2.519  0.00  0.00    +0.145 HD
ATOM     19  H   UNL     1      -4.215   3.116   0.998  0.00  0.00    +0.145 HD
ENDBRANCH   4  17
BRANCH   1  20
ATOM     20  C   UNL     1       1.359   1.364   2.392  0.00  0.00    +0.339 C 
ATOM     21  O   UNL     1       1.918   1.060   1.355  0.00  0.00    -0.245 OA
BRANCH  20  22
ATOM     22  O   UNL     1       2.050   1.386   3.550  0.00  0.00    -0.462 OA
BRANCH  22  24
ATOM     23  C   UNL     1       4.048   1.122   4.885  0.00  0.00    +0.048 C 
ATOM     24  C   UNL     1       3.436   1.042   3.485  0.00  0.00    +0.229 C 
ENDBRANCH  22  24
ENDBRANCH  20  22
ENDBRANCH   1  20
BRANCH   5  25
ATOM     25  C   UNL     1      -2.611   3.700   4.282  0.00  0.00    +0.101 C 
ATOM     26  N   UNL     1      -3.110   4.374   5.048  0.00  0.00    -0.191 NA
ENDBRANCH   5  25
TORSDOF 6
