REMARK  Name = ZINC40900410
REMARK  10 active torsions:
REMARK  status: ('A' for Active; 'I' for Inactive)
REMARK    1  A    between atoms: C_1  and  C_2
REMARK    2  A    between atoms: C_9  and  N_13
REMARK    3  A    between atoms: C_10  and  C_11
REMARK    4  A    between atoms: N_13  and  C_14
REMARK    5  A    between atoms: C_14  and  N_16
REMARK    6  A    between atoms: C_17  and  C_19
REMARK    7  A    between atoms: C_19  and  C_20
REMARK    8  A    between atoms: C_20  and  C_21
REMARK    9  A    between atoms: C_21  and  O_22
REMARK   10  A    between atoms: O_22  and  C_23
REMARK                            x       y       z     vdW  Elec       q    Type
REMARK                         _______ _______ _______ _____ _____    ______ ____
ROOT
ATOM      1  C   UNL     1       1.677  -6.097   3.322  0.00  0.00    +0.141 C 
ATOM      2  S   UNL     1       2.673  -4.820   3.877  0.00  0.00    -0.018 S 
ENDROOT
BRANCH   1   3
ATOM      3  N   UNL     1       1.874  -7.351   3.775  0.00  0.00    -0.268 N 
ATOM      4  C   UNL     1       2.856  -7.599   4.664  0.00  0.00    +0.219 C 
ATOM      5  O   UNL     1       3.561  -6.695   5.057  0.00  0.00    -0.275 OA
ATOM      6  H   UNL     1       1.310  -8.074   3.461  0.00  0.00    +0.156 HD
BRANCH   4   7
ATOM      7  C   UNL     1       3.076  -9.002   5.171  0.00  0.00    +0.099 C 
BRANCH   7   8
ATOM      8  C   UNL     1       4.242  -9.009   6.161  0.00  0.00    +0.050 C 
BRANCH   8   9
ATOM      9  C   UNL     1       4.466 -10.432   6.675  0.00  0.00    +0.229 C 
BRANCH   9  10
ATOM     10  O   UNL     1       5.555 -10.439   7.601  0.00  0.00    -0.490 OA
BRANCH  10  11
ATOM     11  C   UNL     1       5.887 -11.635   8.155  0.00  0.00    +0.139 A 
ATOM     12  C   UNL     1       5.183 -12.779   7.810  0.00  0.00    +0.048 A 
ATOM     13  C   UNL     1       5.522 -13.994   8.374  0.00  0.00    +0.023 A 
ATOM     14  C   UNL     1       6.563 -14.070   9.282  0.00  0.00    +0.043 A 
ATOM     15  C   UNL     1       7.267 -12.931   9.628  0.00  0.00    +0.043 A 
ATOM     16  C   UNL     1       6.935 -11.714   9.061  0.00  0.00    +0.084 A 
ATOM     17 CL   UNL     1       7.823 -10.285   9.490  0.00  0.00    -0.080 Cl
ATOM     18 CL   UNL     1       6.986 -15.598   9.989  0.00  0.00    -0.083 Cl
ENDBRANCH  10  11
ENDBRANCH   9  10
ENDBRANCH   8   9
ENDBRANCH   7   8
ENDBRANCH   4   7
ENDBRANCH   1   3
BRANCH   1  19
ATOM     19  N   UNL     1       0.695  -5.848   2.433  0.00  0.00    -0.290 N 
ATOM     20  H   UNL     1       0.131  -6.572   2.119  0.00  0.00    +0.154 HD
BRANCH  19  28
ATOM     21  C   UNL     1      -0.019   1.526   0.010  0.00  0.00    +0.008 C 
ATOM     22  C   UNL     1       0.002  -0.004   0.002  0.00  0.00    -0.009 C 
ATOM     23  C   UNL     1      -1.434  -0.537   0.019  0.00  0.00    +0.008 C 
ATOM     24  C   UNL     1      -1.433  -2.045  -0.237  0.00  0.00    +0.037 C 
ATOM     25  C   UNL     1      -0.464  -2.704   0.734  0.00  0.00    -0.018 A 
ATOM     26  C   UNL     1       0.485  -1.986   1.374  0.00  0.00    -0.004 A 
ATOM     27  S   UNL     1       1.343  -3.168   2.372  0.00  0.00    -0.077 S 
ATOM     28  C   UNL     1       0.492  -4.557   1.967  0.00  0.00    +0.089 A 
ATOM     29  C   UNL     1      -0.459  -4.119   1.060  0.00  0.00    +0.084 A 
ATOM     30  C   UNL     1       0.739  -0.515   1.248  0.00  0.00    +0.046 C 
BRANCH  29  31
ATOM     31  C   UNL     1      -1.399  -5.024   0.470  0.00  0.00    +0.102 C 
ATOM     32  N   UNL     1      -2.145  -5.741   0.001  0.00  0.00    -0.191 NA
ENDBRANCH  29  31
ENDBRANCH  19  28
ENDBRANCH   1  19
TORSDOF 9
