REMARK  Name = ZINC35123344
REMARK  7 active torsions:
REMARK  status: ('A' for Active; 'I' for Inactive)
REMARK    1  A    between atoms: C_1  and  C_2
REMARK    2  A    between atoms: C_2  and  C_3
REMARK    3  A    between atoms: C_3  and  O_4
REMARK    4  A    between atoms: O_4  and  C_5
REMARK    5  A    between atoms: C_5  and  C_7
REMARK    6  A    between atoms: C_11  and  C_22
REMARK    7  A    between atoms: C_14  and  C_16
REMARK                            x       y       z     vdW  Elec       q    Type
REMARK                         _______ _______ _______ _____ _____    ______ ____
ROOT
ATOM      1  C   UNL     1      -2.709  -4.373  -0.301  0.00  0.00    +0.196 C 
ATOM      2  C   UNL     1      -1.872  -5.605   0.154  0.00  0.00    +0.105 C 
ATOM      3  S   UNL     1      -2.554  -6.849  -1.031  0.00  0.00    -0.136 S 
ATOM      4  C   UNL     1      -4.245  -6.128  -1.176  0.00  0.00    +0.138 C 
ATOM      5  N   UNL     1      -4.076  -4.770  -0.629  0.00  0.00    -0.271 N 
ATOM      6  C   UNL     1      -5.123  -3.941  -0.444  0.00  0.00    +0.248 C 
ATOM      7  O   UNL     1      -4.936  -2.749  -0.298  0.00  0.00    -0.270 OA
ENDROOT
BRANCH   6   8
ATOM      8  C   UNL     1      -6.498  -4.483  -0.418  0.00  0.00    +0.037 A 
ATOM      9  C   UNL     1      -6.804  -5.582   0.386  0.00  0.00    +0.013 A 
ATOM     10  C   UNL     1      -8.089  -6.082   0.406  0.00  0.00    +0.001 A 
ATOM     11  C   UNL     1      -9.075  -5.496  -0.369  0.00  0.00    +0.000 A 
ATOM     12  C   UNL     1      -8.779  -4.407  -1.168  0.00  0.00    +0.001 A 
ATOM     13  C   UNL     1      -7.498  -3.893  -1.192  0.00  0.00    +0.013 A 
ENDBRANCH   6   8
BRANCH   4  14
ATOM     14  C   UNL     1      -4.687  -6.077  -2.639  0.00  0.00    +0.020 C 
ATOM     15  C   UNL     1      -6.034  -5.358  -2.740  0.00  0.00    +0.006 C 
ATOM     16  C   UNL     1      -6.476  -5.307  -4.204  0.00  0.00    +0.000 C 
ATOM     17  C   UNL     1      -6.617  -6.731  -4.745  0.00  0.00    +0.000 C 
ATOM     18  C   UNL     1      -5.270  -7.450  -4.644  0.00  0.00    +0.000 C 
ATOM     19  C   UNL     1      -4.827  -7.501  -3.180  0.00  0.00    +0.006 C 
ENDBRANCH   4  14
BRANCH   1  20
ATOM     20  C   UNL     1      -2.740  -3.356   0.810  0.00  0.00    +0.329 C 
ATOM     21  O   UNL     1      -3.566  -3.446   1.688  0.00  0.00    -0.249 OA
BRANCH  20  22
ATOM     22  O   UNL     1      -1.851  -2.351   0.825  0.00  0.00    -0.463 OA
BRANCH  22  23
ATOM     23  C   UNL     1      -1.948  -1.416   1.901  0.00  0.00    +0.232 C 
BRANCH  23  25
ATOM     24  C   UNL     1      -1.054   0.725   2.829  0.00  0.00    +0.007 C 
ATOM     25  C   UNL     1      -0.951  -0.276   1.677  0.00  0.00    +0.038 C 
ENDBRANCH  23  25
ENDBRANCH  22  23
ENDBRANCH  20  22
ENDBRANCH   1  20
TORSDOF 6
