REMARK  Name = ZINC19941436
REMARK  13 active torsions:
REMARK  status: ('A' for Active; 'I' for Inactive)
REMARK    1  A    between atoms: C_1  and  C_2
REMARK    2  A    between atoms: C_2  and  C_3
REMARK    3  A    between atoms: C_3  and  N_4
REMARK    4  A    between atoms: N_7  and  C_10
REMARK    5  A    between atoms: C_10  and  C_12
REMARK    6  A    between atoms: C_10  and  C_26
REMARK    7  A    between atoms: C_16  and  C_24
REMARK    8  A    between atoms: C_24  and  C_25
REMARK    9  A    between atoms: N_30  and  C_31
REMARK   10  A    between atoms: C_31  and  C_32
REMARK   11  A    between atoms: C_31  and  C_33
REMARK   12  A    between atoms: C_31  and  C_34
REMARK   13  A    between atoms: C_34  and  C_35
REMARK                            x       y       z     vdW  Elec       q    Type
REMARK                         _______ _______ _______ _____ _____    ______ ____
ROOT
ATOM      1  C   UNL     1       0.187   0.909  -0.103  0.00  0.00    +0.162 C 
ENDROOT
BRANCH   1   2
ATOM      2  C   UNL     1       1.518   1.542  -0.418  0.00  0.00    +0.042 A 
ATOM      3  C   UNL     1       2.603   0.759  -0.636  0.00  0.00    +0.021 A 
ATOM      4  C   UNL     1       3.881   1.405  -0.944  0.00  0.00    -0.001 A 
ATOM      5  C   UNL     1       5.034   0.649  -1.183  0.00  0.00    +0.013 A 
ATOM      6  C   UNL     1       6.212   1.282  -1.462  0.00  0.00    -0.047 A 
ATOM      7  C   UNL     1       6.275   2.668  -1.510  0.00  0.00    +0.005 A 
ATOM      8  C   UNL     1       5.152   3.432  -1.279  0.00  0.00    +0.026 A 
ATOM      9  C   UNL     1       3.941   2.810  -0.993  0.00  0.00    +0.049 A 
ATOM     10  N   UNL     1       2.802   3.549  -0.756  0.00  0.00    -0.322 N 
ATOM     11  H   UNL     1       2.842   4.648  -0.793  0.00  0.00    +0.169 HD
ATOM     12  C   UNL     1       1.632   2.947  -0.479  0.00  0.00    +0.254 A 
ATOM     13  O   UNL     1       0.645   3.633  -0.275  0.00  0.00    -0.268 OA
BRANCH   6  14
ATOM     14  C   UNL     1       7.454   0.469  -1.718  0.00  0.00    +0.032 C 
ATOM     15  C   UNL     1       7.561   0.158  -3.213  0.00  0.00    +0.009 C 
ENDBRANCH   6  14
ENDBRANCH   1   2
BRANCH   1  19
ATOM     16  N   UNL     1      -1.277   1.307   3.839  0.00  0.00    +0.381 N 
ATOM     17  C   UNL     1      -2.202   1.581   2.730  0.00  0.00    -0.063 C 
ATOM     18  C   UNL     1      -1.669   0.929   1.452  0.00  0.00    +0.067 C 
ATOM     19  N   UNL     1      -0.328   1.455   1.159  0.00  0.00    -0.292 NA
ATOM     20  C   UNL     1       0.596   1.181   2.268  0.00  0.00    +0.067 C 
ATOM     21  C   UNL     1       0.063   1.833   3.546  0.00  0.00    -0.063 C 
ATOM     22  H   UNL     1      -1.197   0.215   3.952  0.00  0.00    -0.082 HD
BRANCH  16  23
ATOM     23  C   UNL     1      -1.793   1.853   5.102  0.00  0.00    -0.079 C 
BRANCH  23  25
ATOM     24  C   UNL     1      -1.242   2.340   7.490  0.00  0.00    +0.002 C 
ATOM     25  C   UNL     1      -0.705   1.771   6.175  0.00  0.00    -0.022 C 
ENDBRANCH  23  25
ENDBRANCH  16  23
ENDBRANCH   1  19
BRANCH   1  26
ATOM     26  C   UNL     1      -0.786   1.208  -1.214  0.00  0.00    +0.174 A 
ATOM     27  N   UNL     1      -1.305   2.376  -1.508  0.00  0.00    -0.111 NA
ATOM     28  N   UNL     1      -2.088   2.220  -2.519  0.00  0.00    -0.023 NA
ATOM     29  N   UNL     1      -2.082   0.984  -2.879  0.00  0.00    -0.043 NA
ATOM     30  N   UNL     1      -1.287   0.329  -2.102  0.00  0.00    -0.222 N 
BRANCH  30  31
ATOM     31  C   UNL     1      -0.989  -1.104  -2.171  0.00  0.00    +0.062 C 
ATOM     32  C   UNL     1       0.519  -1.304  -2.330  0.00  0.00    +0.036 C 
ATOM     33  C   UNL     1      -1.461  -1.785  -0.885  0.00  0.00    +0.036 C 
BRANCH  31  34
ATOM     34  C   UNL     1      -1.714  -1.719  -3.369  0.00  0.00    +0.026 C 
ATOM     35  C   UNL     1      -1.403  -3.215  -3.441  0.00  0.00    +0.006 C 
ENDBRANCH  31  34
ENDBRANCH  30  31
ENDBRANCH   1  26
TORSDOF 8
