REMARK  Name = ZINC39935916
REMARK  10 active torsions:
REMARK  status: ('A' for Active; 'I' for Inactive)
REMARK    1  A    between atoms: C_1  and  C_2
REMARK    2  A    between atoms: C_4  and  C_36
REMARK    3  A    between atoms: C_5  and  C_34
REMARK    4  A    between atoms: C_6  and  N_16
REMARK    5  A    between atoms: N_8  and  C_9
REMARK    6  A    between atoms: C_9  and  C_10
REMARK    7  A    between atoms: C_17  and  C_19
REMARK    8  A    between atoms: C_19  and  S_20
REMARK    9  A    between atoms: S_20  and  C_21
REMARK   10  A    between atoms: C_24  and  C_27
REMARK                            x       y       z     vdW  Elec       q    Type
REMARK                         _______ _______ _______ _____ _____    ______ ____
ROOT
ATOM      1  N   UNL     1      -0.922   0.168   2.447  0.00  0.00    -0.294 N 
ATOM      2  C   UNL     1      -0.993   0.122   3.792  0.00  0.00    +0.225 C 
ATOM      3  O   UNL     1      -0.656  -0.882   4.383  0.00  0.00    -0.275 OA
ATOM      4  H   UNL     1      -1.267   0.938   1.969  0.00  0.00    +0.151 HD
ENDROOT
BRANCH   1   9
ATOM      5  C   UNL     1       0.230   1.421  -0.272  0.00  0.00    +0.029 C 
ATOM      6  C   UNL     1       0.523  -0.081  -0.273  0.00  0.00    +0.083 C 
ATOM      7  C   UNL     1      -0.737  -0.859  -0.573  0.00  0.00    -0.039 C 
ATOM      8  C   UNL     1      -1.223  -1.356   0.562  0.00  0.00    +0.065 C 
ATOM      9  C   UNL     1      -0.324  -0.946   1.706  0.00  0.00    +0.186 C 
ATOM     10  N   UNL     1       0.950  -0.521   1.076  0.00  0.00    -0.269 NA
ATOM     11  C   UNL     1      -1.345  -1.044  -1.939  0.00  0.00    +0.042 C 
BRANCH   8  12
ATOM     12  C   UNL     1      -2.408  -2.151   0.681  0.00  0.00    +0.098 C 
ATOM     13  N   UNL     1      -3.348  -2.782   0.775  0.00  0.00    -0.191 NA
ENDBRANCH   8  12
BRANCH  10  14
ATOM     14  C   UNL     1       1.565   0.586   1.821  0.00  0.00    +0.122 C 
BRANCH  14  15
ATOM     15  C   UNL     1       2.458   0.030   2.900  0.00  0.00    -0.033 A 
ATOM     16  C   UNL     1       1.996  -0.064   4.200  0.00  0.00    +0.005 A 
ATOM     17  C   UNL     1       2.816  -0.574   5.189  0.00  0.00    +0.000 A 
ATOM     18  C   UNL     1       4.097  -0.990   4.879  0.00  0.00    +0.000 A 
ATOM     19  C   UNL     1       4.558  -0.897   3.580  0.00  0.00    +0.000 A 
ATOM     20  C   UNL     1       3.737  -0.392   2.589  0.00  0.00    +0.005 A 
ENDBRANCH  14  15
ENDBRANCH  10  14
ENDBRANCH   1   9
BRANCH   2  21
ATOM     21  C   UNL     1      -1.490   1.318   4.562  0.00  0.00    +0.173 C 
BRANCH  21  22
ATOM     22  S   UNL     1      -1.467   0.947   6.338  0.00  0.00    -0.077 S 
BRANCH  22  23
ATOM     23  C   UNL     1      -2.067   2.423   7.089  0.00  0.00    +0.185 A 
ATOM     24  N   UNL     1      -2.436   3.517   6.459  0.00  0.00    -0.201 NA
ATOM     25  H   UNL     1      -2.051   1.996   9.127  0.00  0.00    +0.191 HD
ATOM     26  C   UNL     1      -2.838   4.436   7.348  0.00  0.00    +0.185 A 
ATOM     27  N   UNL     1      -2.728   3.934   8.557  0.00  0.00    -0.151 NA
ATOM     28  N   UNL     1      -2.236   2.627   8.415  0.00  0.00    -0.253 N 
BRANCH  26  29
ATOM     29  C   UNL     1      -3.326   5.798   7.020  0.00  0.00    +0.056 A 
ATOM     30  C   UNL     1      -3.401   6.213   5.692  0.00  0.00    +0.014 A 
ATOM     31  C   UNL     1      -3.856   7.481   5.393  0.00  0.00    +0.001 A 
ATOM     32  C   UNL     1      -4.238   8.341   6.407  0.00  0.00    +0.003 A 
ATOM     33  C   UNL     1      -4.166   7.936   7.727  0.00  0.00    +0.039 A 
ATOM     34  C   UNL     1      -3.717   6.666   8.040  0.00  0.00    +0.134 A 
ATOM     35  F   UNL     1      -3.653   6.269   9.330  0.00  0.00    -0.205 F 
ENDBRANCH  26  29
ENDBRANCH  22  23
ENDBRANCH  21  22
ENDBRANCH   2  21
TORSDOF 8
