REMARK  Name = ZINC14309348
REMARK  5 active torsions:
REMARK  status: ('A' for Active; 'I' for Inactive)
REMARK    1  A    between atoms: C_1  and  C_2
REMARK    2  A    between atoms: C_5  and  N_9
REMARK    3  A    between atoms: C_7  and  C_8
REMARK    4  A    between atoms: N_12  and  C_16
REMARK    5  A    between atoms: C_16  and  N_17
REMARK                            x       y       z     vdW  Elec       q    Type
REMARK                         _______ _______ _______ _____ _____    ______ ____
ROOT
ATOM      1  N   UNL     1       3.611   1.869  -0.022  0.00  0.00    -0.292 N 
ATOM      2  C   UNL     1       2.325   1.369  -0.184  0.00  0.00    +0.185 A 
ATOM      3  N   UNL     1       1.186   2.012  -0.182  0.00  0.00    -0.146 NA
ATOM      4  N   UNL     1       0.002   1.335  -0.361  0.00  0.00    -0.234 N 
ATOM      5  C   UNL     1       0.042  -0.010  -0.538  0.00  0.00    +0.146 A 
ATOM      6  S   UNL     1      -1.244  -1.114  -0.781  0.00  0.00    -0.023 S 
ATOM      7  S   UNL     1       1.800  -0.316  -0.450  0.00  0.00    -0.026 S 
ATOM      8  H   UNL     1       3.776   2.955   0.035  0.00  0.00    +0.154 HD
ENDROOT
BRANCH   1  13
ATOM      9  C   UNL     1       8.011  -1.690   0.352  0.00  0.00    +0.044 C 
ATOM     10  C   UNL     1       6.842  -0.745   0.252  0.00  0.00    -0.047 A 
ATOM     11  C   UNL     1       7.003   0.491  -0.349  0.00  0.00    +0.005 A 
ATOM     12  C   UNL     1       5.934   1.360  -0.441  0.00  0.00    +0.023 A 
ATOM     13  C   UNL     1       4.695   0.992   0.069  0.00  0.00    +0.033 A 
ATOM     14  C   UNL     1       4.538  -0.248   0.676  0.00  0.00    +0.027 A 
ATOM     15  C   UNL     1       5.610  -1.114   0.761  0.00  0.00    -0.046 A 
ATOM     16  C   UNL     1       5.440  -2.462   1.414  0.00  0.00    +0.044 C 
ENDBRANCH   1  13
BRANCH   4  17
ATOM     17  C   UNL     1      -1.276   2.051  -0.365  0.00  0.00    +0.232 C 
BRANCH  17  18
ATOM     18  N   UNL     1      -1.810   2.107   1.002  0.00  0.00    -0.279 NA
ATOM     19  C   UNL     1      -3.204   2.573   1.004  0.00  0.00    +0.091 C 
ATOM     20  C   UNL     1      -3.841   2.228   2.361  0.00  0.00    +0.058 C 
ATOM     21  C   UNL     1      -2.882   2.638   3.431  0.00  0.00    -0.005 A 
ATOM     22  C   UNL     1      -1.569   2.965   3.265  0.00  0.00    -0.023 A 
ATOM     23  C   UNL     1      -0.867   3.321   4.414  0.00  0.00    +0.013 A 
ATOM     24  C   UNL     1      -1.492   3.328   5.615  0.00  0.00    +0.046 A 
ATOM     25  S   UNL     1      -3.147   2.820   5.172  0.00  0.00    -0.101 S 
ATOM     26  C   UNL     1      -0.954   2.925   1.870  0.00  0.00    +0.122 C 
ENDBRANCH  17  18
ENDBRANCH   4  17
TORSDOF 3
