REMARK  Name = ZINC02245005
REMARK  3 active torsions:
REMARK  status: ('A' for Active; 'I' for Inactive)
REMARK    1  A    between atoms: C_4  and  N_7
REMARK    2  A    between atoms: C_10  and  N_15
REMARK    3  A    between atoms: N_15  and  C_16
REMARK                            x       y       z     vdW  Elec       q    Type
REMARK                         _______ _______ _______ _____ _____    ______ ____
ROOT
ATOM      1  N   UNL     1       2.636  -5.193  -0.146  0.00  0.00    -0.199 N 
ATOM      2  C   UNL     1       1.851  -4.242   0.330  0.00  0.00    +0.258 C 
ATOM      3  O   UNL     1       1.123  -4.419   1.284  0.00  0.00    -0.272 OA
ATOM      4  C   UNL     1       1.922  -2.909  -0.403  0.00  0.00    +0.226 C 
ATOM      5  S   UNL     1       3.167  -3.323  -1.688  0.00  0.00    -0.035 S 
ATOM      6  C   UNL     1       3.452  -5.019  -1.203  0.00  0.00    +0.287 C 
ATOM      7  O   UNL     1       4.205  -5.827  -1.710  0.00  0.00    -0.262 OA
ENDROOT
BRANCH   1  11
ATOM      8  C   UNL     1       2.587  -8.919   1.721  0.00  0.00    +0.000 A 
ATOM      9  C   UNL     1       1.718  -8.659   0.678  0.00  0.00    +0.002 A 
ATOM     10  C   UNL     1       1.732  -7.425   0.057  0.00  0.00    +0.024 A 
ATOM     11  C   UNL     1       2.620  -6.446   0.482  0.00  0.00    +0.045 A 
ATOM     12  C   UNL     1       3.495  -6.712   1.527  0.00  0.00    +0.024 A 
ATOM     13  C   UNL     1       3.473  -7.946   2.146  0.00  0.00    +0.002 A 
ENDBRANCH   1  11
BRANCH   4  14
ATOM     14  N   UNL     1       0.631  -2.562  -1.003  0.00  0.00    -0.324 N 
ATOM     15  H   UNL     1       0.111  -3.241  -1.460  0.00  0.00    +0.148 HD
BRANCH  14  16
ATOM     16  C   UNL     1       0.151  -1.253  -0.918  0.00  0.00    +0.029 A 
ATOM     17  C   UNL     1       0.964  -0.245  -0.414  0.00  0.00    +0.023 A 
ATOM     18  C   UNL     1       0.486   1.048  -0.331  0.00  0.00    +0.003 A 
ATOM     19  C   UNL     1      -0.800   1.341  -0.747  0.00  0.00    +0.015 A 
ATOM     20  C   UNL     1      -1.612   0.339  -1.249  0.00  0.00    +0.020 A 
ATOM     21  C   UNL     1      -1.140  -0.957  -1.336  0.00  0.00    +0.038 A 
ATOM     22 BR   UNL     1      -3.370   0.744  -1.817  0.00  0.00    -0.050 Br
ENDBRANCH  14  16
ENDBRANCH   4  14
TORSDOF 3
