REMARK  Name = ZINC35486946
REMARK  12 active torsions:
REMARK  status: ('A' for Active; 'I' for Inactive)
REMARK    1  A    between atoms: C_1  and  C_2
REMARK    2  A    between atoms: C_2  and  C_3
REMARK    3  A    between atoms: C_3  and  C_4
REMARK    4  A    between atoms: C_4  and  O_5
REMARK    5  A    between atoms: O_5  and  C_6
REMARK    6  A    between atoms: C_9  and  C_12
REMARK    7  A    between atoms: N_27  and  C_28
REMARK    8  A    between atoms: C_28  and  C_29
REMARK    9  A    between atoms: C_29  and  C_30
REMARK   10  A    between atoms: C_30  and  N_31
REMARK   11  A    between atoms: N_31  and  C_32
REMARK   12  A    between atoms: N_31  and  C_33
REMARK                            x       y       z     vdW  Elec       q    Type
REMARK                         _______ _______ _______ _____ _____    ______ ____
ROOT
ATOM      1  C   UNL     1      -3.415  -8.151  -0.009  0.00  0.00    +0.144 C 
ATOM      2  C   UNL     1      -3.783  -8.621  -1.378  0.00  0.00    +0.072 A 
ATOM      3  C   UNL     1      -3.072  -8.521  -2.657  0.00  0.00    +0.199 A 
ATOM      4  O   UNL     1      -1.915  -8.150  -2.750  0.00  0.00    -0.287 OA
ATOM      5  C   UNL     1      -3.897  -8.914  -3.827  0.00  0.00    +0.065 A 
ATOM      6  C   UNL     1      -3.436  -8.686  -5.124  0.00  0.00    +0.030 A 
ATOM      7  C   UNL     1      -4.216  -9.053  -6.198  0.00  0.00    +0.019 A 
ATOM      8  C   UNL     1      -5.455  -9.646  -5.988  0.00  0.00    +0.019 A 
ATOM      9  C   UNL     1      -5.919  -9.876  -4.713  0.00  0.00    +0.048 A 
ATOM     10  C   UNL     1      -5.146  -9.517  -3.609  0.00  0.00    +0.140 A 
ATOM     11  O   UNL     1      -5.622  -9.764  -2.367  0.00  0.00    -0.450 OA
ATOM     12  C   UNL     1      -5.006  -9.223  -1.297  0.00  0.00    +0.199 A 
ATOM     13  C   UNL     1      -5.463  -9.157   0.102  0.00  0.00    +0.283 C 
ATOM     14  O   UNL     1      -6.517  -9.600   0.512  0.00  0.00    -0.267 OA
ATOM     15  N   UNL     1      -4.538  -8.534   0.863  0.00  0.00    -0.284 N 
ATOM     16 BR   UNL     1      -3.601  -8.749  -7.960  0.00  0.00    -0.050 Br
ENDROOT
BRANCH   1  20
ATOM     17  C   UNL     1      -2.913  -3.908   0.009  0.00  0.00    +0.121 A 
ATOM     18  C   UNL     1      -1.802  -4.739  -0.000  0.00  0.00    +0.046 A 
ATOM     19  C   UNL     1      -1.967  -6.110  -0.006  0.00  0.00    +0.009 A 
ATOM     20  C   UNL     1      -3.238  -6.655  -0.002  0.00  0.00    -0.022 A 
ATOM     21  C   UNL     1      -4.347  -5.829   0.006  0.00  0.00    +0.009 A 
ATOM     22  C   UNL     1      -4.187  -4.457   0.018  0.00  0.00    +0.046 A 
BRANCH  17  23
ATOM     23  O   UNL     1      -2.753  -2.558   0.015  0.00  0.00    -0.492 OA
BRANCH  23  24
ATOM     24  C   UNL     1      -1.413  -2.063   0.004  0.00  0.00    +0.229 C 
BRANCH  24  25
ATOM     25  C   UNL     1      -1.433  -0.534   0.013  0.00  0.00    +0.041 C 
BRANCH  25  27
ATOM     26  C   UNL     1      -0.019   1.526   0.010  0.00  0.00    +0.004 C 
ATOM     27  C   UNL     1       0.002  -0.004   0.002  0.00  0.00    -0.000 C 
ENDBRANCH  25  27
ENDBRANCH  24  25
ENDBRANCH  23  24
ENDBRANCH  17  23
ENDBRANCH   1  20
BRANCH  15  28
ATOM     28  C   UNL     1      -4.634  -8.281   2.303  0.00  0.00    +0.107 C 
BRANCH  28  29
ATOM     29  C   UNL     1      -5.304  -6.926   2.540  0.00  0.00    +0.000 C 
BRANCH  29  30
ATOM     30  C   UNL     1      -5.405  -6.663   4.044  0.00  0.00    -0.078 C 
BRANCH  30  31
ATOM     31  N   UNL     1      -6.048  -5.362   4.271  0.00  0.00    +0.376 N 
ATOM     32  C   UNL     1      -7.436  -5.412   3.792  0.00  0.00    -0.097 C 
ATOM     33  C   UNL     1      -6.037  -5.055   5.708  0.00  0.00    -0.097 C 
ATOM     34  H   UNL     1      -5.545  -4.646   3.770  0.00  0.00    -0.083 HD
ENDBRANCH  30  31
ENDBRANCH  29  30
ENDBRANCH  28  29
ENDBRANCH  15  28
TORSDOF 9
