REMARK  Name = ZINC44154276
REMARK  4 active torsions:
REMARK  status: ('A' for Active; 'I' for Inactive)
REMARK    1  A    between atoms: C_1  and  C_2
REMARK    2  A    between atoms: C_2  and  N_3
REMARK    3  A    between atoms: C_7  and  C_8
REMARK    4  A    between atoms: C_11  and  C_13
REMARK                            x       y       z     vdW  Elec       q    Type
REMARK                         _______ _______ _______ _____ _____    ______ ____
ROOT
ATOM      1  C   UNL     1      -1.104  -1.433  -5.011  0.00  0.00    +0.130 A 
ATOM      2  C   UNL     1      -1.705  -1.812  -6.199  0.00  0.00    +0.050 A 
ATOM      3  C   UNL     1      -3.079  -1.619  -6.034  0.00  0.00    +0.050 A 
ATOM      4  C   UNL     1      -3.269  -1.136  -4.770  0.00  0.00    +0.136 A 
ATOM      5  O   UNL     1      -2.074  -1.034  -4.161  0.00  0.00    -0.455 OA
ENDROOT
BRANCH   4   6
ATOM      6  C   UNL     1      -4.572  -0.790  -4.169  0.00  0.00    +0.018 A 
ATOM      7  C   UNL     1      -5.749  -0.954  -4.907  0.00  0.00    +0.012 A 
ATOM      8  C   UNL     1      -6.969  -0.631  -4.346  0.00  0.00    +0.008 A 
ATOM      9  C   UNL     1      -7.032  -0.146  -3.059  0.00  0.00    +0.004 A 
ATOM     10  C   UNL     1      -5.865   0.024  -2.306  0.00  0.00    +0.066 A 
ATOM     11  C   UNL     1      -4.632  -0.305  -2.863  0.00  0.00    +0.027 A 
ATOM     12  C   UNL     1      -6.258   0.552  -0.986  0.00  0.00    +0.340 C 
ATOM     13  O   UNL     1      -5.489   0.816  -0.084  0.00  0.00    -0.245 OA
ATOM     14  O   UNL     1      -7.592   0.699  -0.929  0.00  0.00    -0.456 OA
ATOM     15  C   UNL     1      -8.171   0.291  -2.172  0.00  0.00    +0.268 C 
ENDBRANCH   4   6
BRANCH   1  20
ATOM     16  N   UNL     1       0.683  -0.580  -1.175  0.00  0.00    -0.256 N 
ATOM     17  C   UNL     1      -0.023  -0.868  -2.256  0.00  0.00    +0.258 C 
ATOM     18  O   UNL     1      -1.240  -0.901  -2.233  0.00  0.00    -0.269 OA
ATOM     19  C   UNL     1       0.734  -1.145  -3.488  0.00  0.00    +0.080 C 
ATOM     20  C   UNL     1       0.280  -1.465  -4.734  0.00  0.00    +0.066 C 
ATOM     21  S   UNL     1       2.411  -0.947  -2.902  0.00  0.00    -0.061 S 
ATOM     22  C   UNL     1       2.031  -0.538  -1.206  0.00  0.00    +0.121 C 
ATOM     23  S   UNL     1       3.114  -0.181   0.071  0.00  0.00    -0.027 S 
BRANCH  16  25
ATOM     24  C   UNL     1      -0.307   1.204   0.172  0.00  0.00    +0.025 C 
ATOM     25  C   UNL     1      -0.014  -0.294   0.081  0.00  0.00    +0.111 C 
ENDBRANCH  16  25
ENDBRANCH   1  20
TORSDOF 3
