REMARK  Name = ZINC14921082
REMARK  5 active torsions:
REMARK  status: ('A' for Active; 'I' for Inactive)
REMARK    1  A    between atoms: C_4  and  N_7
REMARK    2  A    between atoms: N_14  and  N_15
REMARK    3  A    between atoms: C_16  and  C_17
REMARK    4  A    between atoms: N_24  and  C_25
REMARK    5  A    between atoms: C_28  and  N_31
REMARK                            x       y       z     vdW  Elec       q    Type
REMARK                         _______ _______ _______ _____ _____    ______ ____
ROOT
ATOM      1  N   UNL     1      -1.417   1.718   0.708  0.00  0.00    -0.283 N 
ATOM      2  C   UNL     1      -0.051   1.540   0.606  0.00  0.00    +0.225 A 
ATOM      3  N   UNL     1       0.441   0.635  -0.235  0.00  0.00    -0.181 NA
ATOM      4  C   UNL     1       1.755   0.468  -0.337  0.00  0.00    +0.225 A 
ATOM      5  N   UNL     1       2.579   1.206   0.401  0.00  0.00    -0.179 NA
ATOM      6  C   UNL     1       2.087   2.111   1.241  0.00  0.00    +0.241 A 
ATOM      7  N   UNL     1       0.772   2.278   1.344  0.00  0.00    -0.179 NA
ATOM      8  N   UNL     1       2.943   2.878   2.008  0.00  0.00    -0.205 N 
ATOM      9  N   UNL     1       2.266  -0.473  -1.211  0.00  0.00    -0.283 N 
ATOM     10  H   UNL     1      -1.781   2.297   1.396  0.00  0.00    +0.155 HD
ATOM     11  H   UNL     1       3.897   2.706   1.989  0.00  0.00    +0.177 HD
ATOM     12  H   UNL     1       1.666  -1.059  -1.698  0.00  0.00    +0.155 HD
ENDROOT
BRANCH   1  16
ATOM     13  C   UNL     1      -3.975  -0.232  -1.940  0.00  0.00    +0.000 A 
ATOM     14  C   UNL     1      -4.338   0.990  -1.402  0.00  0.00    +0.002 A 
ATOM     15  C   UNL     1      -3.493   1.639  -0.524  0.00  0.00    +0.023 A 
ATOM     16  C   UNL     1      -2.276   1.064  -0.181  0.00  0.00    +0.034 A 
ATOM     17  C   UNL     1      -1.911  -0.160  -0.727  0.00  0.00    +0.023 A 
ATOM     18  C   UNL     1      -2.764  -0.807  -1.600  0.00  0.00    +0.002 A 
ENDBRANCH   1  16
BRANCH   9  19
ATOM     19  C   UNL     1       3.648  -0.580  -1.393  0.00  0.00    +0.034 A 
ATOM     20  C   UNL     1       4.393   0.538  -1.744  0.00  0.00    +0.025 A 
ATOM     21  C   UNL     1       5.759   0.429  -1.917  0.00  0.00    +0.034 A 
ATOM     22  C   UNL     1       6.383  -0.793  -1.753  0.00  0.00    +0.126 A 
ATOM     23  C   UNL     1       5.644  -1.910  -1.409  0.00  0.00    +0.034 A 
ATOM     24  C   UNL     1       4.279  -1.807  -1.228  0.00  0.00    +0.025 A 
BRANCH  22  25
ATOM     25  N   UNL     1       7.846  -0.907  -1.946  0.00  0.00    +0.056 N 
ATOM     26  O   UNL     1       8.398  -1.984  -1.801  0.00  0.00    -0.126 OA
ATOM     27  O   UNL     1       8.499   0.075  -2.250  0.00  0.00    -0.126 OA
ENDBRANCH  22  25
ENDBRANCH   9  19
BRANCH   8  28
ATOM     28  N   UNL     1       2.432   3.904   2.813  0.00  0.00    -0.188 NA
ATOM     29  C   UNL     1       3.242   4.688   3.458  0.00  0.00    +0.138 C 
BRANCH  29  30
ATOM     30  C   UNL     1       2.706   5.696   4.391  0.00  0.00    -0.005 A 
ATOM     31  C   UNL     1       1.336   5.744   4.661  0.00  0.00    +0.010 A 
ATOM     32  C   UNL     1       0.842   6.686   5.538  0.00  0.00    +0.016 A 
ATOM     33  C   UNL     1       1.699   7.590   6.143  0.00  0.00    +0.018 A 
ATOM     34  C   UNL     1       3.057   7.552   5.875  0.00  0.00    +0.016 A 
ATOM     35  C   UNL     1       3.564   6.611   5.004  0.00  0.00    +0.010 A 
ATOM     36 BR   UNL     1       1.011   8.883   7.339  0.00  0.00    -0.050 Br
ENDBRANCH  29  30
ENDBRANCH   8  28
TORSDOF 5
