REMARK  Name = ZINC65627150
REMARK  7 active torsions:
REMARK  status: ('A' for Active; 'I' for Inactive)
REMARK    1  A    between atoms: C_1  and  C_2
REMARK    2  A    between atoms: C_2  and  C_3
REMARK    3  A    between atoms: C_2  and  C_4
REMARK    4  A    between atoms: C_8  and  N_10
REMARK    5  A    between atoms: C_11  and  C_13
REMARK    6  A    between atoms: N_15  and  C_16
REMARK    7  A    between atoms: C_18  and  C_19
REMARK                            x       y       z     vdW  Elec       q    Type
REMARK                         _______ _______ _______ _____ _____    ______ ____
ROOT
ATOM      1  C   UNL     1       0.108  -4.092   6.132  0.00  0.00    +0.300 C 
ATOM      2  O   UNL     1      -1.050  -4.404   5.946  0.00  0.00    -0.265 OA
ATOM      3  N   UNL     1       0.789  -4.620   7.169  0.00  0.00    -0.304 N 
ATOM      4  H   UNL     1       1.715  -4.371   7.318  0.00  0.00    +0.149 HD
ENDROOT
BRANCH   1   6
ATOM      5  N   UNL     1       0.098  -2.598   4.176  0.00  0.00    -0.278 N 
ATOM      6  C   UNL     1       0.779  -3.125   5.213  0.00  0.00    +0.303 C 
ATOM      7  O   UNL     1       1.937  -2.814   5.399  0.00  0.00    -0.265 OA
ATOM      8  H   UNL     1      -0.848  -2.786   4.071  0.00  0.00    +0.155 HD
BRANCH   5  13
ATOM      9  C   UNL     1       0.728   0.078   1.737  0.00  0.00    -0.043 A 
ATOM     10  C   UNL     1       2.054  -0.161   1.423  0.00  0.00    +0.004 A 
ATOM     11  C   UNL     1       2.732  -1.207   2.022  0.00  0.00    +0.002 A 
ATOM     12  C   UNL     1       2.086  -2.017   2.936  0.00  0.00    +0.023 A 
ATOM     13  C   UNL     1       0.754  -1.780   3.253  0.00  0.00    +0.034 A 
ATOM     14  C   UNL     1       0.078  -0.724   2.653  0.00  0.00    +0.027 A 
BRANCH   9  16
ATOM     15  C   UNL     1       0.701   2.536   1.410  0.00  0.00    +0.012 C 
ATOM     16  C   UNL     1      -0.006   1.220   1.082  0.00  0.00    +0.013 C 
ATOM     17  C   UNL     1      -0.021   1.014  -0.434  0.00  0.00    +0.012 C 
ENDBRANCH   9  16
ENDBRANCH   5  13
ENDBRANCH   1   6
BRANCH   3  18
ATOM     18  C   UNL     1       0.131  -5.569   8.070  0.00  0.00    +0.081 C 
ATOM     19  C   UNL     1       0.920  -6.812   8.485  0.00  0.00    +0.033 C 
ATOM     20  C   UNL     1       0.680  -5.687   9.494  0.00  0.00    +0.041 C 
BRANCH  20  21
ATOM     21  C   UNL     1       1.856  -4.819   9.861  0.00  0.00    -0.040 A 
ATOM     22  C   UNL     1       3.043  -4.932   9.161  0.00  0.00    +0.004 A 
ATOM     23  C   UNL     1       4.123  -4.136   9.496  0.00  0.00    +0.003 A 
ATOM     24  C   UNL     1       4.016  -3.228  10.532  0.00  0.00    +0.038 A 
ATOM     25  C   UNL     1       2.828  -3.114  11.233  0.00  0.00    +0.124 A 
ATOM     26  C   UNL     1       1.746  -3.907  10.893  0.00  0.00    +0.042 A 
ATOM     27  F   UNL     1       2.724  -2.226  12.246  0.00  0.00    -0.205 F 
ENDBRANCH  20  21
ENDBRANCH   3  18
TORSDOF 5
