REMARK  Name = ZINC13495810
REMARK  14 active torsions:
REMARK  status: ('A' for Active; 'I' for Inactive)
REMARK    1  A    between atoms: C_1  and  C_2
REMARK    2  A    between atoms: C_2  and  C_3
REMARK    3  A    between atoms: C_3  and  C_5
REMARK    4  A    between atoms: C_3  and  N_73
REMARK    5  A    between atoms: N_9  and  C_10
REMARK    6  A    between atoms: C_10  and  C_11
REMARK    7  A    between atoms: C_14  and  O_17
REMARK    8  A    between atoms: O_17  and  C_18
REMARK    9  A    between atoms: C_19  and  C_20
REMARK   10  A    between atoms: C_19  and  N_73
REMARK   11  A    between atoms: C_20  and  C_21
REMARK   12  A    between atoms: C_27  and  C_28
REMARK   13  A    between atoms: C_27  and  N_73
REMARK   14  A    between atoms: C_34  and  C_40
REMARK                            x       y       z     vdW  Elec       q    Type
REMARK                         _______ _______ _______ _____ _____    ______ ____
ROOT
ATOM      1  N   UNL     1      -0.051   0.944   0.824  0.00  0.00    +0.389 N 
ATOM      2  H   UNL     1       0.230   1.829   0.387  0.00  0.00    -0.080 HD
ENDROOT
BRANCH   1   3
ATOM      3  C   UNL     1       0.151   1.042   2.284  0.00  0.00    +0.003 C 
BRANCH   3   4
ATOM      4  C   UNL     1      -0.161  -0.272   2.951  0.00  0.00    +0.138 A 
ATOM      5  N   UNL     1      -0.119  -1.460   2.398  0.00  0.00    -0.115 NA
ATOM      6  N   UNL     1      -0.452  -2.327   3.291  0.00  0.00    -0.023 NA
ATOM      7  N   UNL     1      -0.705  -1.723   4.400  0.00  0.00    -0.044 NA
ATOM      8  N   UNL     1      -0.532  -0.456   4.232  0.00  0.00    -0.226 N 
BRANCH   8   9
ATOM      9  C   UNL     1      -0.709   0.588   5.245  0.00  0.00    +0.182 C 
BRANCH   9  10
ATOM     10  C   UNL     1      -2.165   0.969   5.324  0.00  0.00    -0.026 A 
ATOM     11  C   UNL     1      -2.650   2.009   4.553  0.00  0.00    +0.009 A 
ATOM     12  C   UNL     1      -3.985   2.356   4.620  0.00  0.00    +0.046 A 
ATOM     13  C   UNL     1      -4.838   1.667   5.471  0.00  0.00    +0.120 A 
ATOM     14  C   UNL     1      -4.348   0.628   6.248  0.00  0.00    +0.046 A 
ATOM     15  C   UNL     1      -3.013   0.281   6.173  0.00  0.00    +0.009 A 
BRANCH  13  16
ATOM     16  O   UNL     1      -6.151   2.010   5.543  0.00  0.00    -0.495 OA
ATOM     17  C   UNL     1      -6.586   3.090   4.714  0.00  0.00    +0.277 C 
ENDBRANCH  13  16
ENDBRANCH   9  10
ENDBRANCH   8   9
ENDBRANCH   3   4
BRANCH   3  19
ATOM     18  C   UNL     1       1.893   2.807   1.980  0.00  0.00    +0.002 C 
ATOM     19  C   UNL     1       1.608   1.420   2.558  0.00  0.00    -0.011 C 
ENDBRANCH   3  19
ENDBRANCH   1   3
BRANCH   1  20
ATOM     20  C   UNL     1      -1.477   0.693   0.526  0.00  0.00    -0.073 C 
BRANCH  20  21
ATOM     21  C   UNL     1      -2.294   1.910   0.964  0.00  0.00    +0.016 C 
BRANCH  21  22
ATOM     22  C   UNL     1      -3.732   1.724   0.551  0.00  0.00    -0.049 A 
ATOM     23  C   UNL     1      -4.160   2.177  -0.683  0.00  0.00    +0.003 A 
ATOM     24  C   UNL     1      -5.477   2.002  -1.063  0.00  0.00    +0.000 A 
ATOM     25  C   UNL     1      -6.369   1.384  -0.206  0.00  0.00    +0.000 A 
ATOM     26  C   UNL     1      -5.941   0.937   1.030  0.00  0.00    +0.000 A 
ATOM     27  C   UNL     1      -4.623   1.107   1.409  0.00  0.00    +0.003 A 
ENDBRANCH  21  22
ENDBRANCH  20  21
ENDBRANCH   1  20
BRANCH   1  28
ATOM     28  C   UNL     1       0.780  -0.148   0.272  0.00  0.00    -0.037 C 
BRANCH  28  29
ATOM     29  C   UNL     1       0.940   0.070  -1.211  0.00  0.00    +0.001 A 
ATOM     30  C   UNL     1       2.023   0.735  -1.683  0.00  0.00    +0.017 A 
ATOM     31  C   UNL     1       2.152   0.926  -3.128  0.00  0.00    -0.001 A 
ATOM     32  C   UNL     1       3.249   1.600  -3.675  0.00  0.00    +0.010 A 
ATOM     33  C   UNL     1       3.337   1.766  -5.028  0.00  0.00    +0.001 A 
ATOM     34  C   UNL     1       2.346   1.272  -5.866  0.00  0.00    +0.005 A 
ATOM     35  C   UNL     1       1.256   0.606  -5.350  0.00  0.00    -0.026 A 
ATOM     36  C   UNL     1       1.145   0.425  -3.975  0.00  0.00    +0.052 A 
ATOM     37  N   UNL     1       0.065  -0.238  -3.432  0.00  0.00    -0.322 N 
ATOM     38  H   UNL     1      -0.627  -0.583  -4.016  0.00  0.00    +0.169 HD
ATOM     39  C   UNL     1      -0.041  -0.413  -2.103  0.00  0.00    +0.251 A 
ATOM     40  O   UNL     1      -1.010  -1.004  -1.657  0.00  0.00    -0.268 OA
ATOM     41  C   UNL     1       0.188   0.076  -6.271  0.00  0.00    +0.046 C 
ENDBRANCH  28  29
ENDBRANCH   1  28
TORSDOF 11
