REMARK  Name = ZINC09012199
REMARK  4 active torsions:
REMARK  status: ('A' for Active; 'I' for Inactive)
REMARK    1  A    between atoms: C_1  and  C_2
REMARK    2  A    between atoms: N_28  and  C_31
REMARK    3  A    between atoms: C_31  and  C_32
REMARK    4  A    between atoms: C_32  and  C_33
REMARK                            x       y       z     vdW  Elec       q    Type
REMARK                         _______ _______ _______ _____ _____    ______ ____
ROOT
ATOM      1  C   UNL     1       0.035  -5.276   2.179  0.00  0.00    +0.047 C 
ATOM      2  C   UNL     1       0.580  -4.899   3.533  0.00  0.00    -0.009 A 
ATOM      3  C   UNL     1       0.553  -5.798   4.556  0.00  0.00    +0.008 A 
ATOM      4  C   UNL     1       1.072  -5.436   5.808  0.00  0.00    +0.019 A 
ATOM      5  C   UNL     1       1.597  -4.204   5.993  0.00  0.00    +0.096 A 
ATOM      6  N   UNL     1       1.624  -3.296   4.978  0.00  0.00    -0.269 N 
ATOM      7  C   UNL     1       1.120  -3.616   3.747  0.00  0.00    +0.122 A 
ATOM      8  N   UNL     1       1.126  -2.734   2.755  0.00  0.00    -0.329 N 
ATOM      9  C   UNL     1       1.619  -1.496   2.914  0.00  0.00    +0.109 A 
ATOM     10  C   UNL     1       2.154  -1.147   4.141  0.00  0.00    +0.057 A 
ATOM     11  C   UNL     1       2.149  -2.071   5.185  0.00  0.00    +0.263 A 
ATOM     12  O   UNL     1       2.615  -1.775   6.275  0.00  0.00    -0.267 OA
ATOM     13  C   UNL     1       2.755   0.215   4.367  0.00  0.00    +0.071 C 
ATOM     14  C   UNL     1       3.182   0.779   3.011  0.00  0.00    +0.146 C 
ATOM     15  C   UNL     1       1.990   0.721   2.044  0.00  0.00    +0.099 C 
ATOM     16  N   UNL     1       1.549  -0.647   1.826  0.00  0.00    -0.312 N 
ATOM     17  C   UNL     1       0.160  -0.658   1.343  0.00  0.00    +0.107 C 
ATOM     18  C   UNL     1       0.002  -0.004   0.002  0.00  0.00    +0.019 C 
ATOM     19  C   UNL     1      -0.018   1.492   0.010  0.00  0.00    +0.002 C 
ATOM     20  C   UNL     1       1.346   2.134   0.001  0.00  0.00    +0.002 C 
ATOM     21  C   UNL     1       2.401   1.409   0.765  0.00  0.00    +0.024 C 
ATOM     22  C   UNL     1       3.597   2.216   3.175  0.00  0.00    +0.238 C 
ATOM     23  O   UNL     1       2.803   3.009   3.635  0.00  0.00    -0.274 OA
ATOM     24  N   UNL     1       4.818   2.645   2.827  0.00  0.00    -0.239 N 
ATOM     25  C   UNL     1       5.744   1.816   2.322  0.00  0.00    +0.315 C 
ATOM     26  O   UNL     1       6.832   2.261   2.014  0.00  0.00    -0.252 OA
ATOM     27  N   UNL     1       5.499   0.508   2.146  0.00  0.00    -0.224 N 
ATOM     28  C   UNL     1       4.312  -0.037   2.451  0.00  0.00    +0.240 C 
ATOM     29  O   UNL     1       4.147  -1.225   2.270  0.00  0.00    -0.274 OA
ATOM     30  H   UNL     1       5.085   3.705   2.954  0.00  0.00    +0.159 HD
ATOM     31  H   UNL     1       0.719  -3.010   1.771  0.00  0.00    +0.168 HD
ENDROOT
BRANCH  27  32
ATOM     32  C   UNL     1       6.558  -0.347   1.605  0.00  0.00    +0.122 C 
BRANCH  32  33
ATOM     33  C   UNL     1       7.394  -0.913   2.755  0.00  0.00    +0.054 C 
BRANCH  33  34
ATOM     34  C   UNL     1       8.483  -1.793   2.199  0.00  0.00    -0.046 A 
ATOM     35  C   UNL     1       8.254  -3.144   2.015  0.00  0.00    +0.004 A 
ATOM     36  C   UNL     1       9.252  -3.950   1.500  0.00  0.00    +0.000 A 
ATOM     37  C   UNL     1      10.482  -3.408   1.179  0.00  0.00    +0.000 A 
ATOM     38  C   UNL     1      10.713  -2.058   1.367  0.00  0.00    +0.000 A 
ATOM     39  C   UNL     1       9.714  -1.251   1.877  0.00  0.00    +0.004 A 
ENDBRANCH  33  34
ENDBRANCH  32  33
ENDBRANCH  27  32
TORSDOF 3
