REMARK  Name = ZINC49975916
REMARK  6 active torsions:
REMARK  status: ('A' for Active; 'I' for Inactive)
REMARK    1  A    between atoms: C_1  and  C_2
REMARK    2  A    between atoms: C_4  and  C_19
REMARK    3  A    between atoms: C_6  and  N_8
REMARK    4  A    between atoms: N_8  and  C_9
REMARK    5  A    between atoms: C_13  and  C_15
REMARK    6  A    between atoms: C_15  and  C_17
REMARK                            x       y       z     vdW  Elec       q    Type
REMARK                         _______ _______ _______ _____ _____    ______ ____
ROOT
ATOM      1  N   UNL     1       0.053  -2.797   2.393  0.00  0.00    -0.258 N 
ATOM      2  C   UNL     1      -0.045  -4.259   2.385  0.00  0.00    +0.140 C 
ATOM      3  C   UNL     1       0.151  -2.134   3.562  0.00  0.00    +0.313 C 
ATOM      4  O   UNL     1       0.135  -0.919   3.575  0.00  0.00    -0.252 OA
ATOM      5  N   UNL     1       0.268  -2.819   4.717  0.00  0.00    -0.239 N 
ATOM      6  C   UNL     1       0.366  -2.156   5.886  0.00  0.00    +0.238 C 
ATOM      7  O   UNL     1       0.350  -0.944   5.899  0.00  0.00    -0.274 OA
ATOM      8  H   UNL     1       0.281  -3.789   4.707  0.00  0.00    +0.159 HD
ENDROOT
BRANCH   1  14
ATOM      9  C   UNL     1       2.211  -1.701  -1.887  0.00  0.00    +0.044 C 
ATOM     10  C   UNL     1       1.077  -1.539  -0.907  0.00  0.00    -0.048 A 
ATOM     11  C   UNL     1       0.026  -0.690  -1.201  0.00  0.00    +0.006 A 
ATOM     12  C   UNL     1      -1.016  -0.538  -0.304  0.00  0.00    -0.048 A 
ATOM     13  C   UNL     1      -1.010  -1.235   0.888  0.00  0.00    +0.027 A 
ATOM     14  C   UNL     1       0.044  -2.089   1.186  0.00  0.00    +0.038 A 
ATOM     15  C   UNL     1       1.086  -2.243   0.281  0.00  0.00    +0.027 A 
ATOM     16  C   UNL     1      -2.159   0.390  -0.628  0.00  0.00    +0.044 C 
ENDBRANCH   1  14
BRANCH   6  17
ATOM     17  C   UNL     1       0.497  -2.922   7.178  0.00  0.00    +0.163 C 
ATOM     18  C   UNL     1      -0.439  -2.317   8.226  0.00  0.00    +0.034 C 
ATOM     19 CL   UNL     1       2.199  -2.825   7.765  0.00  0.00    -0.112 Cl
ENDBRANCH   6  17
TORSDOF 2
