REMARK  Name = ZINC63557208
REMARK  9 active torsions:
REMARK  status: ('A' for Active; 'I' for Inactive)
REMARK    1  A    between atoms: C_1  and  C_2
REMARK    2  A    between atoms: C_2  and  C_3
REMARK    3  A    between atoms: C_2  and  C_4
REMARK    4  A    between atoms: C_4  and  C_5
REMARK    5  A    between atoms: C_9  and  N_12
REMARK    6  A    between atoms: C_13  and  C_15
REMARK    7  A    between atoms: N_20  and  C_22
REMARK    8  A    between atoms: C_22  and  C_23
REMARK    9  A    between atoms: C_23  and  C_24
REMARK                            x       y       z     vdW  Elec       q    Type
REMARK                         _______ _______ _______ _____ _____    ______ ____
ROOT
ATOM      1  C   UNL     1       8.109  -2.321  -0.314  0.00  0.00    +0.101 C 
ATOM      2  C   UNL     1       8.663  -0.878  -0.275  0.00  0.00    +0.110 C 
ATOM      3  C   UNL     1      10.144  -1.042  -0.534  0.00  0.00    +0.216 C 
ATOM      4  O   UNL     1      10.986  -0.197  -0.313  0.00  0.00    -0.276 OA
ATOM      5  N   UNL     1      10.392  -2.261  -1.044  0.00  0.00    -0.300 N 
ATOM      6  C   UNL     1       9.156  -3.038  -1.195  0.00  0.00    +0.121 C 
ENDROOT
BRANCH   1   8
ATOM      7  N   UNL     1       5.707  -1.732  -0.370  0.00  0.00    -0.290 N 
ATOM      8  C   UNL     1       6.746  -2.359  -0.956  0.00  0.00    +0.220 C 
ATOM      9  O   UNL     1       6.585  -2.954  -2.001  0.00  0.00    -0.275 OA
ATOM     10  H   UNL     1       5.837  -1.256   0.465  0.00  0.00    +0.151 HD
BRANCH   7  14
ATOM     11  C   UNL     1       2.187  -0.073  -1.207  0.00  0.00    +0.130 C 
ATOM     12  N   UNL     1       2.909  -0.501  -2.438  0.00  0.00    -0.241 NA
ATOM     13  N   UNL     1       4.302  -0.833  -2.161  0.00  0.00    -0.227 NA
ATOM     14  C   UNL     1       4.383  -1.768  -0.995  0.00  0.00    +0.216 C 
ATOM     15  S   UNL     1       3.102  -1.004   0.094  0.00  0.00    -0.102 S 
ATOM     16  H   UNL     1       2.842   0.201  -3.159  0.00  0.00    +0.142 HD
ATOM     17  H   UNL     1       4.846   0.000  -1.994  0.00  0.00    +0.143 HD
BRANCH  11  18
ATOM     18  C   UNL     1       0.718  -0.497  -1.257  0.00  0.00    +0.034 C 
BRANCH  18  20
ATOM     19  C   UNL     1      -0.019   1.526   0.010  0.00  0.00    +0.007 C 
ATOM     20  C   UNL     1       0.002  -0.004   0.002  0.00  0.00    -0.015 C 
ATOM     21  C   UNL     1      -1.433  -0.534   0.013  0.00  0.00    +0.007 C 
ENDBRANCH  18  20
ENDBRANCH  11  18
ENDBRANCH   7  14
ENDBRANCH   1   8
BRANCH   5  22
ATOM     22  C   UNL     1      11.726  -2.752  -1.401  0.00  0.00    +0.112 C 
BRANCH  22  23
ATOM     23  C   UNL     1      12.354  -3.447  -0.192  0.00  0.00    +0.052 C 
BRANCH  23  24
ATOM     24  C   UNL     1      13.726  -3.952  -0.560  0.00  0.00    -0.040 C 
ATOM     25  C   UNL     1      14.906  -3.325  -0.351  0.00  0.00    +0.002 A 
ATOM     26  C   UNL     1      15.252  -2.035   0.257  0.00  0.00    +0.048 A 
ATOM     27  C   UNL     1      16.554  -1.670   0.326  0.00  0.00    +0.124 A 
ATOM     28  C   UNL     1      17.578  -2.493  -0.170  0.00  0.00    +0.040 A 
ATOM     29  C   UNL     1      17.336  -3.691  -0.742  0.00  0.00    +0.029 A 
ATOM     30  C   UNL     1      16.004  -4.174  -0.866  0.00  0.00    +0.043 A 
ATOM     31  N   UNL     1      15.522  -5.282  -1.373  0.00  0.00    -0.380 N 
ATOM     32  C   UNL     1      14.062  -5.265  -1.232  0.00  0.00    +0.144 C 
ATOM     33  F   UNL     1      16.876  -0.483   0.885  0.00  0.00    -0.205 F 
ATOM     34  H   UNL     1      16.043  -5.996  -1.772  0.00  0.00    +0.160 HD
ENDBRANCH  23  24
ENDBRANCH  22  23
ENDBRANCH   5  22
TORSDOF 7
