REMARK  Name = ZINC39665047
REMARK  7 active torsions:
REMARK  status: ('A' for Active; 'I' for Inactive)
REMARK    1  A    between atoms: C_1  and  C_2
REMARK    2  A    between atoms: C_2  and  C_4
REMARK    3  A    between atoms: C_2  and  O_35
REMARK    4  A    between atoms: C_4  and  N_5
REMARK    5  A    between atoms: C_6  and  C_8
REMARK    6  A    between atoms: C_19  and  C_21
REMARK    7  A    between atoms: O_35  and  C_36
REMARK                            x       y       z     vdW  Elec       q    Type
REMARK                         _______ _______ _______ _____ _____    ______ ____
ROOT
ATOM      1  C   UNL     1       0.651  -4.046   1.565  0.00  0.00    +0.100 C 
ATOM      2  C   UNL     1      -0.558  -4.985   1.361  0.00  0.00    +0.121 C 
ATOM      3  N   UNL     1      -0.052  -6.331   1.720  0.00  0.00    -0.296 N 
ATOM      4  C   UNL     1       0.821  -6.095   2.895  0.00  0.00    +0.115 C 
ATOM      5  C   UNL     1       1.554  -4.777   2.573  0.00  0.00    -0.004 C 
ATOM      6  C   UNL     1       2.915  -5.069   1.948  0.00  0.00    -0.010 C 
ATOM      7  C   UNL     1       3.814  -5.745   2.988  0.00  0.00    -0.082 C 
ATOM      8  N   UNL     1       3.966  -4.865   4.152  0.00  0.00    +0.379 N 
ATOM      9  C   UNL     1       2.665  -4.664   4.802  0.00  0.00    -0.082 C 
ATOM     10  C   UNL     1       1.718  -3.942   3.839  0.00  0.00    -0.010 C 
ATOM     11  C   UNL     1      -0.324  -7.504   1.116  0.00  0.00    +0.247 C 
ATOM     12  O   UNL     1       0.104  -8.542   1.583  0.00  0.00    -0.270 OA
ATOM     13  H   UNL     1       4.606  -5.286   4.809  0.00  0.00    -0.086 HD
ATOM     14  H   UNL     1       4.332  -3.974   3.853  0.00  0.00    -0.086 HD
ENDROOT
BRANCH  11  15
ATOM     15  C   UNL     1      -1.141  -7.530  -0.114  0.00  0.00    +0.045 A 
ATOM     16  C   UNL     1      -2.359  -6.841  -0.163  0.00  0.00    +0.014 A 
ATOM     17  C   UNL     1      -3.123  -6.863  -1.309  0.00  0.00    +0.001 A 
ATOM     18  C   UNL     1      -2.697  -7.566  -2.425  0.00  0.00    +0.012 A 
ATOM     19  C   UNL     1      -1.491  -8.257  -2.397  0.00  0.00    +0.031 A 
ATOM     20  C   UNL     1      -0.699  -8.238  -1.238  0.00  0.00    +0.006 A 
ATOM     21  C   UNL     1       0.524  -9.043  -1.484  0.00  0.00    -0.006 A 
ATOM     22  C   UNL     1       1.613  -9.345  -0.677  0.00  0.00    +0.009 A 
ATOM     23  C   UNL     1       2.641 -10.135  -1.167  0.00  0.00    +0.001 A 
ATOM     24  C   UNL     1       2.592 -10.627  -2.456  0.00  0.00    +0.001 A 
ATOM     25  C   UNL     1       1.513 -10.334  -3.275  0.00  0.00    +0.012 A 
ATOM     26  C   UNL     1       0.475  -9.544  -2.796  0.00  0.00    +0.030 A 
ATOM     27  C   UNL     1      -0.790  -9.079  -3.412  0.00  0.00    +0.194 C 
ATOM     28  O   UNL     1      -1.174  -9.315  -4.540  0.00  0.00    -0.287 OA
ENDBRANCH  11  15
BRANCH   1  30
ATOM     29  N   UNL     1       0.892  -1.601   1.853  0.00  0.00    -0.312 N 
ATOM     30  C   UNL     1       0.199  -2.723   2.129  0.00  0.00    +0.218 C 
ATOM     31  O   UNL     1      -0.788  -2.669   2.831  0.00  0.00    -0.275 OA
ATOM     32  H   UNL     1       1.682  -1.644   1.291  0.00  0.00    +0.149 HD
BRANCH  29  33
ATOM     33  C   UNL     1       0.453  -0.315   2.401  0.00  0.00    +0.148 C 
BRANCH  33  35
ATOM     34  C   UNL     1       1.021   2.109   2.610  0.00  0.00    +0.053 C 
ATOM     35  C   UNL     1       1.406   0.789   1.938  0.00  0.00    +0.187 C 
BRANCH  35  36
ATOM     36  O   UNL     1       1.316   0.932   0.520  0.00  0.00    -0.488 OA
BRANCH  36  37
ATOM     37  C   UNL     1       2.386   1.481  -0.114  0.00  0.00    +0.121 A 
ATOM     38  C   UNL     1       3.514   1.839   0.610  0.00  0.00    +0.045 A 
ATOM     39  C   UNL     1       4.600   2.396  -0.036  0.00  0.00    +0.004 A 
ATOM     40  C   UNL     1       4.564   2.598  -1.403  0.00  0.00    +0.000 A 
ATOM     41  C   UNL     1       3.441   2.244  -2.127  0.00  0.00    +0.004 A 
ATOM     42  C   UNL     1       2.354   1.680  -1.486  0.00  0.00    +0.045 A 
ENDBRANCH  36  37
ENDBRANCH  35  36
ENDBRANCH  33  35
ENDBRANCH  29  33
ENDBRANCH   1  30
TORSDOF 6
