REMARK  Name = ZINC43374989
REMARK  9 active torsions:
REMARK  status: ('A' for Active; 'I' for Inactive)
REMARK    1  A    between atoms: C_1  and  C_2
REMARK    2  A    between atoms: C_2  and  C_3
REMARK    3  A    between atoms: C_2  and  C_4
REMARK    4  A    between atoms: C_4  and  C_5
REMARK    5  A    between atoms: N_13  and  C_14
REMARK    6  A    between atoms: C_16  and  C_22
REMARK    7  A    between atoms: C_16  and  C_23
REMARK    8  A    between atoms: C_18  and  C_20
REMARK    9  A    between atoms: C_18  and  C_21
REMARK                            x       y       z     vdW  Elec       q    Type
REMARK                         _______ _______ _______ _____ _____    ______ ____
ROOT
ATOM      1  C   UNL     1      -0.969  -1.975   0.022  0.00  0.00    +0.104 A 
ATOM      2  N   UNL     1      -0.877  -2.899   0.957  0.00  0.00    -0.145 NA
ATOM      3  N   UNL     1      -0.916  -4.117   0.624  0.00  0.00    -0.126 NA
ATOM      4  C   UNL     1      -1.047  -4.491  -0.634  0.00  0.00    +0.189 A 
ATOM      5  S   UNL     1      -1.129  -3.007  -1.429  0.00  0.00    -0.035 S 
ATOM      6  N   UNL     1      -1.106  -5.775  -1.165  0.00  0.00    -0.247 N 
ATOM      7  C   UNL     1      -1.027  -6.846  -0.350  0.00  0.00    +0.306 C 
ATOM      8  O   UNL     1      -0.904  -6.689   0.849  0.00  0.00    -0.252 OA
ATOM      9  N   UNL     1      -1.084  -8.090  -0.865  0.00  0.00    -0.296 N 
ATOM     10  H   UNL     1      -1.204  -5.900  -2.122  0.00  0.00    +0.158 HD
ATOM     11  H   UNL     1      -1.182  -8.215  -1.822  0.00  0.00    +0.151 HD
ENDROOT
BRANCH   9  12
ATOM     12  C   UNL     1      -0.998  -9.257   0.023  0.00  0.00    +0.072 C 
ATOM     13  C   UNL     1       0.473  -9.611   0.245  0.00  0.00    +0.009 C 
ATOM     14  C   UNL     1       0.579 -10.832   1.158  0.00  0.00    -0.072 C 
ATOM     15  N   UNL     1      -0.197 -11.958   0.661  0.00  0.00    +0.386 N 
ATOM     16  C   UNL     1      -1.559 -11.698   0.222  0.00  0.00    -0.072 C 
ATOM     17  C   UNL     1      -1.684 -10.449  -0.644  0.00  0.00    +0.009 C 
ATOM     18  C   UNL     1      -2.006 -12.901  -0.643  0.00  0.00    -0.010 C 
ATOM     19  C   UNL     1      -2.528 -11.614   1.403  0.00  0.00    -0.010 C 
ATOM     20  C   UNL     1       0.197 -10.457   2.589  0.00  0.00    -0.010 C 
ATOM     21  C   UNL     1       2.065 -11.262   1.178  0.00  0.00    -0.010 C 
ATOM     22  H   UNL     1       0.316 -12.383  -0.116  0.00  0.00    -0.084 HD
ATOM     23  H   UNL     1      -0.224 -12.676   1.389  0.00  0.00    -0.084 HD
ENDBRANCH   9  12
BRANCH   1  24
ATOM     24  C   UNL     1      -0.952  -0.473   0.142  0.00  0.00    +0.068 C 
BRANCH  24  26
ATOM     25  C   UNL     1       0.495   1.561   0.025  0.00  0.00    +0.007 C 
ATOM     26  C   UNL     1       0.489   0.031   0.028  0.00  0.00    -0.011 C 
ATOM     27  C   UNL     1       1.303  -0.480   1.218  0.00  0.00    +0.007 C 
ENDBRANCH  24  26
ENDBRANCH   1  24
TORSDOF 3
