REMARK  Name = ZINC40981743
REMARK  8 active torsions:
REMARK  status: ('A' for Active; 'I' for Inactive)
REMARK    1  A    between atoms: C_1  and  C_2
REMARK    2  A    between atoms: C_2  and  C_3
REMARK    3  A    between atoms: C_3  and  S_4
REMARK    4  A    between atoms: S_4  and  C_5
REMARK    5  A    between atoms: C_10  and  C_20
REMARK    6  A    between atoms: C_23  and  O_26
REMARK    7  A    between atoms: O_26  and  C_27
REMARK    8  A    between atoms: C_27  and  C_28
REMARK                            x       y       z     vdW  Elec       q    Type
REMARK                         _______ _______ _______ _____ _____    ______ ____
ROOT
ATOM      1  C   UNL     1      -3.112  -2.797   0.017  0.00  0.00    +0.210 A 
ATOM      2  N   UNL     1      -4.144  -1.940   0.025  0.00  0.00    -0.187 NA
ATOM      3  C   UNL     1      -5.265  -2.608   0.037  0.00  0.00    +0.219 A 
ATOM      4  N   UNL     1      -4.969  -3.930   0.029  0.00  0.00    -0.220 N 
ATOM      5  N   UNL     1      -3.578  -4.028   0.015  0.00  0.00    -0.141 NA
ATOM      6  C   UNL     1      -5.981  -4.979   0.027  0.00  0.00    +0.175 C 
ATOM      7  C   UNL     1      -7.332  -4.396   0.375  0.00  0.00    +0.041 C 
ATOM      8  C   UNL     1      -7.561  -3.065   0.374  0.00  0.00    +0.020 C 
ATOM      9  N   UNL     1      -6.576  -2.161   0.056  0.00  0.00    -0.287 N 
ATOM     10  C   UNL     1      -8.920  -2.511   0.733  0.00  0.00    +0.052 C 
ATOM     11  C   UNL     1     -10.007  -3.506   0.322  0.00  0.00    +0.014 C 
ATOM     12  C   UNL     1      -9.743  -4.833   1.041  0.00  0.00    +0.080 C 
ATOM     13  C   UNL     1      -8.355  -5.304   0.702  0.00  0.00    +0.163 C 
ATOM     14  O   UNL     1      -8.113  -6.495   0.712  0.00  0.00    -0.292 OA
ATOM     15  H   UNL     1      -6.793  -1.238  -0.148  0.00  0.00    +0.155 HD
ENDROOT
BRANCH   6  16
ATOM     16  C   UNL     1      -6.047  -5.607  -1.341  0.00  0.00    -0.018 A 
ATOM     17  C   UNL     1      -6.358  -4.831  -2.443  0.00  0.00    +0.009 A 
ATOM     18  C   UNL     1      -6.420  -5.404  -3.698  0.00  0.00    +0.046 A 
ATOM     19  C   UNL     1      -6.169  -6.760  -3.853  0.00  0.00    +0.121 A 
ATOM     20  C   UNL     1      -5.856  -7.536  -2.747  0.00  0.00    +0.046 A 
ATOM     21  C   UNL     1      -5.791  -6.957  -1.495  0.00  0.00    +0.009 A 
BRANCH  19  22
ATOM     22  O   UNL     1      -6.229  -7.326  -5.087  0.00  0.00    -0.487 OA
BRANCH  22  23
ATOM     23  C   UNL     1      -5.959  -8.726  -5.172  0.00  0.00    +0.267 C 
BRANCH  23  24
ATOM     24  C   UNL     1      -6.072  -9.174  -6.607  0.00  0.00    +0.026 A 
ATOM     25  C   UNL     1      -7.288  -9.608  -7.103  0.00  0.00    +0.049 A 
ATOM     26  C   UNL     1      -7.392 -10.018  -8.420  0.00  0.00    +0.020 A 
ATOM     27  C   UNL     1      -6.279  -9.995  -9.241  0.00  0.00    +0.003 A 
ATOM     28  C   UNL     1      -5.064  -9.562  -8.746  0.00  0.00    +0.020 A 
ATOM     29  C   UNL     1      -4.961  -9.145  -7.430  0.00  0.00    +0.049 A 
ATOM     30 CL   UNL     1      -3.436  -8.593  -6.811  0.00  0.00    -0.083 Cl
ATOM     31 CL   UNL     1      -8.685  -9.638  -6.072  0.00  0.00    -0.083 Cl
ENDBRANCH  23  24
ENDBRANCH  22  23
ENDBRANCH  19  22
ENDBRANCH   6  16
BRANCH   1  32
ATOM     32  S   UNL     1      -1.409  -2.348   0.003  0.00  0.00    -0.084 S 
BRANCH  32  33
ATOM     33  C   UNL     1      -1.433  -0.534   0.013  0.00  0.00    +0.077 C 
BRANCH  33  35
ATOM     34  C   UNL     1      -0.019   1.526   0.010  0.00  0.00    +0.004 C 
ATOM     35  C   UNL     1       0.002  -0.004   0.002  0.00  0.00    +0.008 C 
ENDBRANCH  33  35
ENDBRANCH  32  33
ENDBRANCH   1  32
TORSDOF 7
