REMARK  Name = ZINC61371112
REMARK  6 active torsions:
REMARK  status: ('A' for Active; 'I' for Inactive)
REMARK    1  A    between atoms: C_1  and  C_2
REMARK    2  A    between atoms: C_2  and  C_4
REMARK    3  A    between atoms: C_2  and  N_9
REMARK    4  A    between atoms: C_10  and  C_12
REMARK    5  A    between atoms: C_12  and  C_19
REMARK    6  A    between atoms: N_20  and  O_21
REMARK                            x       y       z     vdW  Elec       q    Type
REMARK                         _______ _______ _______ _____ _____    ______ ____
ROOT
ATOM      1  C   UNL     1      -3.491  -1.077  -1.066  0.00  0.00    +0.105 C 
ATOM      2  C   UNL     1      -3.577  -2.432  -0.417  0.00  0.00    +0.024 C 
ATOM      3  C   UNL     1      -2.282  -3.249  -0.586  0.00  0.00    +0.001 C 
ATOM      4  C   UNL     1      -1.681  -3.130  -1.999  0.00  0.00    +0.000 C 
ATOM      5  C   UNL     1      -2.728  -3.186  -3.078  0.00  0.00    +0.000 C 
ATOM      6  C   UNL     1      -3.135  -1.743  -3.441  0.00  0.00    +0.001 C 
ATOM      7  C   UNL     1      -4.079  -1.176  -2.489  0.00  0.00    +0.024 C 
ENDROOT
BRANCH   1   8
ATOM      8  C   UNL     1      -4.279  -0.075  -0.262  0.00  0.00    +0.147 C 
ATOM      9  N   UNL     1      -5.332   0.475  -0.769  0.00  0.00    -0.076 NA
ATOM     10  N   UNL     1      -3.877   0.254   1.013  0.00  0.00    -0.343 N 
ATOM     11  H   UNL     1      -3.130  -0.212   1.421  0.00  0.00    +0.144 HD
ATOM     12  H   UNL     1      -4.340   0.951   1.504  0.00  0.00    +0.144 HD
BRANCH   9  13
ATOM     13  O   UNL     1      -6.073   1.416  -0.013  0.00  0.00    -0.408 OA
ATOM     14  H   UNL     1      -6.844   1.773  -0.476  0.00  0.00    +0.328 HD
ENDBRANCH   9  13
ENDBRANCH   1   8
BRANCH   1  16
ATOM     15  N   UNL     1      -1.662   0.243  -2.082  0.00  0.00    -0.308 N 
ATOM     16  C   UNL     1      -2.050  -0.643  -1.143  0.00  0.00    +0.227 C 
ATOM     17  O   UNL     1      -1.240  -1.091  -0.360  0.00  0.00    -0.275 OA
ATOM     18  H   UNL     1      -2.295   0.549  -2.751  0.00  0.00    +0.149 HD
BRANCH  15  20
ATOM     19  C   UNL     1       0.608  -0.235  -2.856  0.00  0.00    +0.033 C 
ATOM     20  C   UNL     1      -0.286   0.744  -2.092  0.00  0.00    +0.101 C 
BRANCH  20  21
ATOM     21  C   UNL     1      -0.246   2.091  -2.766  0.00  0.00    -0.020 A 
ATOM     22  C   UNL     1       0.558   3.101  -2.270  0.00  0.00    +0.013 A 
ATOM     23  C   UNL     1       0.570   4.301  -2.900  0.00  0.00    +0.045 A 
ATOM     24  S   UNL     1      -0.580   4.027  -4.238  0.00  0.00    -0.105 S 
ATOM     25  C   UNL     1      -0.994   2.330  -3.870  0.00  0.00    +0.050 A 
ENDBRANCH  20  21
ENDBRANCH  15  20
ENDBRANCH   1  16
TORSDOF 5
