REMARK  Name = ZINC58992501
REMARK  8 active torsions:
REMARK  status: ('A' for Active; 'I' for Inactive)
REMARK    1  A    between atoms: C_4  and  C_7
REMARK    2  A    between atoms: N_8  and  N_9
REMARK    3  A    between atoms: C_12  and  S_15
REMARK    4  A    between atoms: S_15  and  C_16
REMARK    5  A    between atoms: C_16  and  C_17
REMARK    6  A    between atoms: N_19  and  C_20
REMARK    7  A    between atoms: C_25  and  O_26
REMARK    8  A    between atoms: O_26  and  C_27
REMARK                            x       y       z     vdW  Elec       q    Type
REMARK                         _______ _______ _______ _____ _____    ______ ____
ROOT
ATOM      1  C   UNL     1       4.445  -8.952  -0.054  0.00  0.00    +0.173 C 
ENDROOT
BRANCH   1   2
ATOM      2  C   UNL     1       3.676 -10.215   0.237  0.00  0.00    +0.228 C 
ATOM      3  O   UNL     1       2.589 -10.153   0.772  0.00  0.00    -0.275 OA
ATOM      4  N   UNL     1       4.195 -11.412  -0.098  0.00  0.00    -0.282 N 
ATOM      5  H   UNL     1       5.054 -11.460  -0.546  0.00  0.00    +0.155 HD
BRANCH   4   6
ATOM      6  C   UNL     1       3.494 -12.588   0.201  0.00  0.00    +0.076 A 
ATOM      7  C   UNL     1       2.124 -12.547   0.410  0.00  0.00    +0.027 A 
ATOM      8  C   UNL     1       1.435 -13.708   0.706  0.00  0.00    +0.002 A 
ATOM      9  C   UNL     1       2.108 -14.912   0.794  0.00  0.00    +0.004 A 
ATOM     10  C   UNL     1       3.474 -14.961   0.587  0.00  0.00    +0.048 A 
ATOM     11  C   UNL     1       4.172 -13.803   0.285  0.00  0.00    +0.150 A 
BRANCH  11  12
ATOM     12  O   UNL     1       5.514 -13.850   0.075  0.00  0.00    -0.454 OA
BRANCH  12  13
ATOM     13  C   UNL     1       6.115 -15.069   0.067  0.00  0.00    +0.129 A 
ATOM     14  C   UNL     1       5.963 -15.911  -1.025  0.00  0.00    +0.046 A 
ATOM     15  C   UNL     1       6.576 -17.149  -1.031  0.00  0.00    +0.004 A 
ATOM     16  C   UNL     1       7.340 -17.549   0.049  0.00  0.00    +0.000 A 
ATOM     17  C   UNL     1       7.493 -16.712   1.139  0.00  0.00    +0.004 A 
ATOM     18  C   UNL     1       6.888 -15.470   1.147  0.00  0.00    +0.046 A 
ENDBRANCH  12  13
ENDBRANCH  11  12
ENDBRANCH   4   6
ENDBRANCH   1   2
BRANCH   1  19
ATOM     19  S   UNL     1       3.489  -7.518   0.510  0.00  0.00    -0.075 S 
BRANCH  19  23
ATOM     20  N   UNL     1       5.232  -2.708  -0.018  0.00  0.00    -0.205 N 
ATOM     21  C   UNL     1       5.190  -4.089  -0.090  0.00  0.00    +0.232 A 
ATOM     22  N   UNL     1       4.210  -4.856   0.337  0.00  0.00    -0.186 NA
ATOM     23  C   UNL     1       4.508  -6.139   0.104  0.00  0.00    +0.211 A 
ATOM     24  N   UNL     1       5.684  -6.205  -0.474  0.00  0.00    -0.144 NA
ATOM     25  N   UNL     1       6.144  -4.886  -0.617  0.00  0.00    -0.245 N 
ATOM     26  H   UNL     1       6.000  -2.228  -0.366  0.00  0.00    +0.177 HD
ATOM     27  H   UNL     1       6.983  -4.603  -1.014  0.00  0.00    +0.192 HD
BRANCH  20  29
ATOM     28  C   UNL     1       4.207  -0.708   0.626  0.00  0.00    +0.138 C 
ATOM     29  N   UNL     1       4.167  -2.004   0.558  0.00  0.00    -0.188 NA
BRANCH  28  33
ATOM     30  C   UNL     1       0.979   1.425   2.369  0.00  0.00    +0.000 A 
ATOM     31  C   UNL     1       2.072   2.114   1.874  0.00  0.00    +0.001 A 
ATOM     32  C   UNL     1       3.125   1.427   1.307  0.00  0.00    +0.009 A 
ATOM     33  C   UNL     1       3.085   0.033   1.232  0.00  0.00    -0.005 A 
ATOM     34  C   UNL     1       1.978  -0.656   1.733  0.00  0.00    +0.009 A 
ATOM     35  C   UNL     1       0.933   0.044   2.298  0.00  0.00    +0.001 A 
ENDBRANCH  28  33
ENDBRANCH  20  29
ENDBRANCH  19  23
ENDBRANCH   1  19
TORSDOF 8
