REMARK  Name = ZINC34830411
REMARK  12 active torsions:
REMARK  status: ('A' for Active; 'I' for Inactive)
REMARK    1  A    between atoms: C_1  and  C_2
REMARK    2  A    between atoms: C_2  and  C_3
REMARK    3  A    between atoms: C_3  and  C_4
REMARK    4  A    between atoms: C_4  and  C_5
REMARK    5  A    between atoms: C_5  and  C_7
REMARK    6  A    between atoms: C_5  and  C_9
REMARK    7  A    between atoms: C_7  and  C_8
REMARK    8  A    between atoms: C_18  and  C_20
REMARK    9  A    between atoms: C_20  and  C_22
REMARK   10  A    between atoms: C_20  and  N_23
REMARK   11  A    between atoms: C_31  and  C_33
REMARK   12  A    between atoms: C_38  and  C_39
REMARK                            x       y       z     vdW  Elec       q    Type
REMARK                         _______ _______ _______ _____ _____    ______ ____
ROOT
ATOM      1  C   UNL     1      -8.301  -5.933  -0.971  0.00  0.00    +0.018 C 
ATOM      2  C   UNL     1      -8.255  -5.703   0.541  0.00  0.00    -0.004 C 
ENDROOT
BRANCH   1  12
ATOM      3  C   UNL     1      -2.771  -4.356   0.143  0.00  0.00    +0.219 C 
ATOM      4  O   UNL     1      -1.714  -4.948   0.077  0.00  0.00    -0.275 OA
ATOM      5  N   UNL     1      -3.924  -5.046   0.247  0.00  0.00    -0.300 N 
ATOM      6  C   UNL     1      -3.933  -6.462   0.367  0.00  0.00    +0.109 C 
ATOM      7  C   UNL     1      -3.842  -7.232  -0.991  0.00  0.00    +0.038 C 
ATOM      8  C   UNL     1      -4.692  -6.435  -2.034  0.00  0.00    +0.109 C 
ATOM      9  N   UNL     1      -5.889  -5.871  -1.516  0.00  0.00    -0.301 N 
ATOM     10  C   UNL     1      -5.835  -4.449  -1.087  0.00  0.00    +0.126 C 
ATOM     11  C   UNL     1      -5.241  -4.359   0.248  0.00  0.00    +0.126 C 
ATOM     12  C   UNL     1      -7.022  -6.593  -1.418  0.00  0.00    +0.202 C 
ATOM     13  O   UNL     1      -7.013  -7.775  -1.690  0.00  0.00    -0.277 OA
BRANCH   3  14
ATOM     14  C   UNL     1      -2.794  -2.850   0.108  0.00  0.00    +0.075 C 
BRANCH  14  15
ATOM     15  C   UNL     1      -3.308  -2.317   1.447  0.00  0.00    +0.009 C 
ATOM     16  C   UNL     1      -2.313  -2.671   2.554  0.00  0.00    +0.004 C 
ENDBRANCH  14  15
BRANCH  14  17
ATOM     17  C   UNL     1      -1.379  -2.323  -0.141  0.00  0.00    +0.013 C 
BRANCH  17  18
ATOM     18  C   UNL     1      -1.415  -0.797  -0.246  0.00  0.00    +0.000 C 
BRANCH  18  20
ATOM     19  C   UNL     1      -0.022   1.264  -0.479  0.00  0.00    +0.004 C 
ATOM     20  C   UNL     1       0.013  -0.262  -0.374  0.00  0.00    -0.003 C 
ENDBRANCH  18  20
ENDBRANCH  17  18
ENDBRANCH  14  17
ENDBRANCH   3  14
ENDBRANCH   1  12
BRANCH   1  21
ATOM     21  N   UNL     1      -9.441  -6.798  -1.301  0.00  0.00    +0.395 N 
ATOM     22  C   UNL     1      -9.371  -8.020  -0.487  0.00  0.00    -0.071 C 
ATOM     23  C   UNL     1     -10.354  -9.055  -1.059  0.00  0.00    +0.024 C 
ATOM     24  C   UNL     1     -11.656  -8.359  -1.291  0.00  0.00    -0.010 A 
ATOM     25  C   UNL     1     -11.864  -7.013  -1.291  0.00  0.00    -0.047 A 
ATOM     26  C   UNL     1     -13.169  -6.586  -1.526  0.00  0.00    +0.010 A 
ATOM     27  C   UNL     1     -14.150  -7.493  -1.742  0.00  0.00    +0.045 A 
ATOM     28  S   UNL     1     -13.257  -9.037  -1.622  0.00  0.00    -0.101 S 
ATOM     29  C   UNL     1     -10.690  -6.072  -1.044  0.00  0.00    -0.005 C 
ATOM     30  H   UNL     1      -9.397  -7.048  -2.277  0.00  0.00    -0.079 HD
BRANCH  29  31
ATOM     31  C   UNL     1     -10.786  -4.888  -1.972  0.00  0.00    -0.054 A 
ATOM     32  C   UNL     1     -10.192  -4.938  -3.219  0.00  0.00    +0.002 A 
ATOM     33  C   UNL     1     -10.280  -3.853  -4.071  0.00  0.00    +0.000 A 
ATOM     34  C   UNL     1     -10.962  -2.717  -3.675  0.00  0.00    +0.000 A 
ATOM     35  C   UNL     1     -11.557  -2.668  -2.428  0.00  0.00    +0.003 A 
ATOM     36  C   UNL     1     -11.473  -3.755  -1.578  0.00  0.00    -0.049 A 
ATOM     37  C   UNL     1     -12.126  -3.703  -0.221  0.00  0.00    +0.044 C 
ENDBRANCH  29  31
ENDBRANCH   1  21
TORSDOF 8
