REMARK  Name = ZINC38980075
REMARK  8 active torsions:
REMARK  status: ('A' for Active; 'I' for Inactive)
REMARK    1  A    between atoms: C_4  and  C_7
REMARK    2  A    between atoms: C_7  and  O_8
REMARK    3  A    between atoms: O_8  and  C_9
REMARK    4  A    between atoms: C_12  and  C_15
REMARK    5  A    between atoms: N_16  and  N_17
REMARK    6  A    between atoms: C_18  and  C_25
REMARK    7  A    between atoms: C_22  and  S_24
REMARK    8  A    between atoms: C_28  and  C_31
REMARK                            x       y       z     vdW  Elec       q    Type
REMARK                         _______ _______ _______ _____ _____    ______ ____
ROOT
ATOM      1  N   UNL     1      10.702  -4.501   3.332  0.00  0.00    -0.207 N 
ATOM      2  C   UNL     1      11.349  -4.857   4.607  0.00  0.00    +0.206 C 
ATOM      3  N   UNL     1      12.665  -5.443   4.264  0.00  0.00    -0.231 NA
ATOM      4  N   UNL     1      12.973  -4.896   2.933  0.00  0.00    -0.225 NA
ATOM      5  C   UNL     1      11.644  -4.888   2.262  0.00  0.00    +0.231 C 
ATOM      6  H   UNL     1      12.617  -6.451   4.238  0.00  0.00    +0.143 HD
ATOM      7  H   UNL     1      13.352  -3.963   3.005  0.00  0.00    +0.143 HD
ENDROOT
BRANCH   2   8
ATOM      8  C   UNL     1      10.498  -5.883   5.358  0.00  0.00    +0.190 C 
ATOM      9  C   UNL     1      11.118  -6.211   6.705  0.00  0.00    +0.034 C 
ATOM     10  C   UNL     1      11.383  -7.529   6.624  0.00  0.00    +0.091 C 
ATOM     11  N   UNL     1      11.003  -8.017   5.415  0.00  0.00    -0.154 NA
ATOM     12  N   UNL     1      10.503  -7.177   4.657  0.00  0.00    -0.176 NA
BRANCH  10  13
ATOM     13  C   UNL     1      12.004  -8.335   7.705  0.00  0.00    +0.002 A 
ATOM     14  C   UNL     1      12.353  -7.735   8.913  0.00  0.00    +0.010 A 
ATOM     15  C   UNL     1      12.930  -8.489   9.914  0.00  0.00    +0.001 A 
ATOM     16  C   UNL     1      13.162  -9.839   9.720  0.00  0.00    +0.000 A 
ATOM     17  C   UNL     1      12.818 -10.440   8.523  0.00  0.00    +0.001 A 
ATOM     18  C   UNL     1      12.236  -9.697   7.517  0.00  0.00    +0.010 A 
ENDBRANCH  10  13
ENDBRANCH   2   8
BRANCH   1  20
ATOM     19  C   UNL     1       8.763  -3.531   4.205  0.00  0.00    +0.138 C 
ATOM     20  N   UNL     1       9.440  -3.916   3.167  0.00  0.00    -0.188 NA
BRANCH  19  24
ATOM     21  C   UNL     1       4.798  -2.086   3.735  0.00  0.00    +0.121 A 
ATOM     22  C   UNL     1       5.367  -2.147   5.000  0.00  0.00    +0.046 A 
ATOM     23  C   UNL     1       6.654  -2.616   5.157  0.00  0.00    +0.013 A 
ATOM     24  C   UNL     1       7.385  -3.030   4.042  0.00  0.00    -0.005 A 
ATOM     25  C   UNL     1       6.809  -2.967   2.771  0.00  0.00    +0.013 A 
ATOM     26  C   UNL     1       5.519  -2.502   2.624  0.00  0.00    +0.046 A 
BRANCH  21  27
ATOM     27  O   UNL     1       3.529  -1.623   3.585  0.00  0.00    -0.487 OA
BRANCH  27  28
ATOM     28  C   UNL     1       2.844  -1.212   4.769  0.00  0.00    +0.264 C 
BRANCH  28  32
ATOM     29  C   UNL     1      -1.076   0.147   3.751  0.00  0.00    +0.000 A 
ATOM     30  C   UNL     1      -0.863  -1.185   4.056  0.00  0.00    +0.000 A 
ATOM     31  C   UNL     1       0.405  -1.624   4.386  0.00  0.00    +0.007 A 
ATOM     32  C   UNL     1       1.461  -0.733   4.409  0.00  0.00    -0.010 A 
ATOM     33  C   UNL     1       1.249   0.598   4.103  0.00  0.00    +0.007 A 
ATOM     34  C   UNL     1      -0.020   1.038   3.774  0.00  0.00    +0.000 A 
ENDBRANCH  28  32
ENDBRANCH  27  28
ENDBRANCH  21  27
ENDBRANCH  19  24
ENDBRANCH   1  20
BRANCH   5  35
ATOM     35  S   UNL     1      11.618  -3.666   0.921  0.00  0.00    -0.138 S 
ATOM     36  H   UNL     1      12.509  -4.141   0.032  0.00  0.00    +0.105 HD
ENDBRANCH   5  35
TORSDOF 8
