REMARK  Name = ZINC04710861
REMARK  7 active torsions:
REMARK  status: ('A' for Active; 'I' for Inactive)
REMARK    1  A    between atoms: C_1  and  C_2
REMARK    2  A    between atoms: C_5  and  N_8
REMARK    3  A    between atoms: C_9  and  C_11
REMARK    4  A    between atoms: C_11  and  C_30
REMARK    5  A    between atoms: C_12  and  C_13
REMARK    6  A    between atoms: N_15  and  C_22
REMARK    7  A    between atoms: C_22  and  C_23
REMARK                            x       y       z     vdW  Elec       q    Type
REMARK                         _______ _______ _______ _____ _____    ______ ____
ROOT
ATOM      1  C   UNL     1       0.500   5.614  -0.577  0.00  0.00    +0.002 A 
ATOM      2  C   UNL     1       1.853   5.763  -0.336  0.00  0.00    +0.095 A 
ATOM      3  N   UNL     1       2.504   4.647  -0.719  0.00  0.00    -0.342 N 
ATOM      4  C   UNL     1       1.621   3.716  -1.227  0.00  0.00    +0.050 A 
ATOM      5  C   UNL     1       0.333   4.270  -1.164  0.00  0.00    +0.007 A 
ATOM      6  C   UNL     1      -0.764   3.542  -1.614  0.00  0.00    +0.010 A 
ATOM      7  C   UNL     1      -0.580   2.276  -2.128  0.00  0.00    +0.001 A 
ATOM      8  C   UNL     1       0.691   1.724  -2.186  0.00  0.00    +0.002 A 
ATOM      9  C   UNL     1       1.786   2.435  -1.744  0.00  0.00    +0.026 A 
ENDROOT
BRANCH   1  11
ATOM     10  C   UNL     1      -0.275   7.614   0.548  0.00  0.00    +0.114 C 
ATOM     11  C   UNL     1      -0.517   6.559  -0.314  0.00  0.00    +0.034 C 
BRANCH  10  13
ATOM     12  N   UNL     1      -1.022   9.726   1.515  0.00  0.00    -0.281 N 
ATOM     13  C   UNL     1      -1.258   8.698   0.676  0.00  0.00    +0.259 C 
ATOM     14  O   UNL     1      -2.285   8.668   0.023  0.00  0.00    -0.269 OA
ATOM     15  H   UNL     1      -0.176   9.784   1.986  0.00  0.00    +0.155 HD
BRANCH  12  20
ATOM     16  C   UNL     1      -4.981  13.713   2.295  0.00  0.00    +0.044 C 
ATOM     17  C   UNL     1      -3.929  12.654   2.088  0.00  0.00    -0.050 A 
ATOM     18  C   UNL     1      -4.305  11.338   1.887  0.00  0.00    +0.005 A 
ATOM     19  C   UNL     1      -3.344  10.365   1.697  0.00  0.00    +0.023 A 
ATOM     20  C   UNL     1      -1.998  10.709   1.708  0.00  0.00    +0.034 A 
ATOM     21  C   UNL     1      -1.624  12.030   1.915  0.00  0.00    +0.023 A 
ATOM     22  C   UNL     1      -2.590  12.999   2.099  0.00  0.00    +0.005 A 
ENDBRANCH  12  20
ENDBRANCH  10  13
BRANCH  10  23
ATOM     23  C   UNL     1       0.933   7.650   1.316  0.00  0.00    +0.104 C 
ATOM     24  N   UNL     1       1.892   7.678   1.925  0.00  0.00    -0.191 NA
ENDBRANCH  10  23
ENDBRANCH   1  11
BRANCH   3  25
ATOM     25  C   UNL     1       3.952   4.449  -0.611  0.00  0.00    +0.157 C 
BRANCH  25  26
ATOM     26  C   UNL     1       4.608   4.812  -1.918  0.00  0.00    -0.028 A 
ATOM     27  C   UNL     1       4.787   3.847  -2.892  0.00  0.00    +0.008 A 
ATOM     28  C   UNL     1       5.384   4.180  -4.093  0.00  0.00    +0.038 A 
ATOM     29  C   UNL     1       5.812   5.477  -4.317  0.00  0.00    +0.123 A 
ATOM     30  C   UNL     1       5.637   6.441  -3.339  0.00  0.00    +0.038 A 
ATOM     31  C   UNL     1       5.035   6.108  -2.141  0.00  0.00    +0.008 A 
ATOM     32  F   UNL     1       6.400   5.803  -5.489  0.00  0.00    -0.205 F 
ENDBRANCH  25  26
ENDBRANCH   3  25
TORSDOF 6
