REMARK  Name = ZINC22076866
REMARK  6 active torsions:
REMARK  status: ('A' for Active; 'I' for Inactive)
REMARK    1  A    between atoms: C_7  and  C_11
REMARK    2  A    between atoms: C_11  and  C_12
REMARK    3  A    between atoms: C_12  and  N_13
REMARK    4  A    between atoms: N_13  and  C_14
REMARK    5  A    between atoms: C_14  and  C_15
REMARK    6  A    between atoms: C_18  and  C_20
REMARK                            x       y       z     vdW  Elec       q    Type
REMARK                         _______ _______ _______ _____ _____    ______ ____
ROOT
ATOM      1  N   UNL     1      -2.862  -2.008  -1.417  0.00  0.00    -0.309 NA
ATOM      2  H   UNL     1      -2.580  -2.980  -0.987  0.00  0.00    +0.122 HD
ENDROOT
BRANCH   1   3
ATOM      3  C   UNL     1      -1.693  -1.118  -1.424  0.00  0.00    +0.086 C 
BRANCH   3   4
ATOM      4  C   UNL     1      -1.197  -0.917   0.009  0.00  0.00    +0.052 C 
BRANCH   4  11
ATOM      5  C   UNL     1      -0.716   3.746   0.030  0.00  0.00    +0.001 A 
ATOM      6  C   UNL     1       0.611   4.153   0.019  0.00  0.00    +0.002 A 
ATOM      7  C   UNL     1       1.630   3.226   0.004  0.00  0.00    +0.026 A 
ATOM      8  C   UNL     1       1.329   1.868  -0.001  0.00  0.00    +0.047 A 
ATOM      9  C   UNL     1      -0.018   1.461   0.010  0.00  0.00    +0.003 A 
ATOM     10  C   UNL     1      -1.035   2.417   0.030  0.00  0.00    +0.010 A 
ATOM     11  C   UNL     1       0.002  -0.004   0.002  0.00  0.00    -0.021 A 
ATOM     12  C   UNL     1       1.291  -0.379  -0.012  0.00  0.00    +0.087 A 
ATOM     13  N   UNL     1       2.098   0.726  -0.014  0.00  0.00    -0.360 N 
ATOM     14  H   UNL     1       3.195   0.802  -0.024  0.00  0.00    +0.165 HD
ENDBRANCH   4  11
ENDBRANCH   3   4
ENDBRANCH   1   3
BRANCH   1  15
ATOM     15  C   UNL     1      -3.367  -2.224  -2.780  0.00  0.00    +0.155 C 
BRANCH  15  16
ATOM     16  C   UNL     1      -4.563  -3.140  -2.733  0.00  0.00    +0.119 A 
ATOM     17  C   UNL     1      -5.845  -2.750  -2.597  0.00  0.00    +0.046 A 
ATOM     18  C   UNL     1      -6.635  -3.918  -2.604  0.00  0.00    +0.050 A 
ATOM     19  C   UNL     1      -5.780  -4.967  -2.737  0.00  0.00    +0.137 A 
ATOM     20  O   UNL     1      -4.527  -4.480  -2.814  0.00  0.00    -0.458 OA
BRANCH  19  21
ATOM     21  C   UNL     1      -6.161  -6.394  -2.788  0.00  0.00    +0.036 A 
ATOM     22  C   UNL     1      -7.006  -6.929  -1.815  0.00  0.00    +0.014 A 
ATOM     23  C   UNL     1      -7.362  -8.261  -1.871  0.00  0.00    +0.021 A 
ATOM     24  C   UNL     1      -6.874  -9.070  -2.883  0.00  0.00    +0.042 A 
ATOM     25  C   UNL     1      -6.031  -8.547  -3.849  0.00  0.00    +0.040 A 
ATOM     26  C   UNL     1      -5.671  -7.215  -3.807  0.00  0.00    +0.053 A 
ATOM     27 CL   UNL     1      -4.613  -6.561  -5.018  0.00  0.00    -0.083 Cl
ATOM     28 CL   UNL     1      -7.321 -10.746  -2.941  0.00  0.00    -0.083 Cl
ENDBRANCH  19  21
ENDBRANCH  15  16
ENDBRANCH   1  15
TORSDOF 6
