REMARK  Name = ZINC35882689
REMARK  8 active torsions:
REMARK  status: ('A' for Active; 'I' for Inactive)
REMARK    1  A    between atoms: C_1  and  C_2
REMARK    2  A    between atoms: C_2  and  C_3
REMARK    3  A    between atoms: C_2  and  C_4
REMARK    4  A    between atoms: C_11  and  C_41
REMARK    5  A    between atoms: N_23  and  C_26
REMARK    6  A    between atoms: C_31  and  O_32
REMARK    7  A    between atoms: C_36  and  C_37
REMARK    8  A    between atoms: C_36  and  C_38
REMARK                            x       y       z     vdW  Elec       q    Type
REMARK                         _______ _______ _______ _____ _____    ______ ____
ROOT
ATOM      1  C   UNL     1      -1.225  -0.280   0.072  0.00  0.00    -0.066 C 
ATOM      2  C   UNL     1      -1.590  -1.060  -0.941  0.00  0.00    -0.019 C 
ATOM      3  C   UNL     1      -3.054  -1.528  -0.740  0.00  0.00    +0.004 C 
ATOM      4  C   UNL     1      -3.464  -2.487  -1.827  0.00  0.00    +0.012 C 
ATOM      5  C   UNL     1      -4.899  -2.970  -1.591  0.00  0.00    +0.006 C 
ATOM      6  C   UNL     1      -5.300  -2.857  -0.129  0.00  0.00    +0.012 C 
ATOM      7  C   UNL     1      -4.169  -3.185   0.839  0.00  0.00    -0.025 C 
ATOM      8  C   UNL     1      -3.026  -2.219   0.606  0.00  0.00    +0.007 C 
ATOM      9  C   UNL     1      -2.463  -1.442   1.756  0.00  0.00    +0.013 C 
ATOM     10  C   UNL     1      -2.188   0.034   1.223  0.00  0.00    +0.028 C 
ATOM     11  C   UNL     1      -3.602   0.316   0.728  0.00  0.00    +0.096 C 
ATOM     12  C   UNL     1      -3.687  -0.186  -0.740  0.00  0.00    +0.098 C 
ATOM     13  C   UNL     1      -4.992   0.347  -1.132  0.00  0.00    +0.231 C 
ATOM     14  O   UNL     1      -5.801  -0.140  -1.895  0.00  0.00    -0.274 OA
ATOM     15  N   UNL     1      -5.104   1.532  -0.447  0.00  0.00    -0.206 N 
ATOM     16  C   UNL     1      -4.168   1.677   0.543  0.00  0.00    +0.231 C 
ATOM     17  O   UNL     1      -3.868   2.690   1.140  0.00  0.00    -0.274 OA
ATOM     18  C   UNL     1      -4.667  -2.989   2.282  0.00  0.00    +0.007 C 
ATOM     19  C   UNL     1      -5.897  -3.851   2.542  0.00  0.00    +0.002 C 
ATOM     20  C   UNL     1      -7.029  -3.415   1.617  0.00  0.00    +0.018 C 
ATOM     21  C   UNL     1      -6.617  -3.555   0.151  0.00  0.00    +0.072 C 
ATOM     22  C   UNL     1      -6.608  -5.033  -0.236  0.00  0.00    +0.023 C 
ATOM     23  C   UNL     1      -3.627  -4.604   0.658  0.00  0.00    +0.012 C 
ENDROOT
BRANCH  15  24
ATOM     24  C   UNL     1      -6.081   2.498  -0.732  0.00  0.00    +0.085 A 
ATOM     25  C   UNL     1      -7.308   2.458  -0.086  0.00  0.00    +0.027 A 
ATOM     26  C   UNL     1      -8.269   3.410  -0.368  0.00  0.00    +0.002 A 
ATOM     27  C   UNL     1      -8.011   4.404  -1.294  0.00  0.00    +0.004 A 
ATOM     28  C   UNL     1      -6.791   4.451  -1.942  0.00  0.00    +0.047 A 
ATOM     29  C   UNL     1      -5.820   3.503  -1.660  0.00  0.00    +0.139 A 
BRANCH  29  30
ATOM     30  O   UNL     1      -4.618   3.550  -2.293  0.00  0.00    -0.505 OA
ATOM     31  H   UNL     1      -4.588   3.051  -3.120  0.00  0.00    +0.292 HD
ENDBRANCH  29  30
ENDBRANCH  15  24
BRANCH   1  33
ATOM     32  C   UNL     1       0.076   1.831   0.108  0.00  0.00    +0.012 C 
ATOM     33  C   UNL     1       0.165   0.304   0.093  0.00  0.00    +0.009 C 
ATOM     34  C   UNL     1       0.901  -0.177   1.345  0.00  0.00    +0.012 C 
ENDBRANCH   1  33
BRANCH  21  35
ATOM     35  C   UNL     1      -7.704  -2.880  -0.675  0.00  0.00    +0.362 C 
ATOM     36  O   UNL     1      -8.666  -3.523  -1.060  0.00  0.00    -0.246 OA
ATOM     37  O   UNL     1      -7.613  -1.696  -0.952  0.00  0.00    -0.246 OA
ENDBRANCH  21  35
TORSDOF 4
