REMARK  Name = ZINC36498063
REMARK  17 active torsions:
REMARK  status: ('A' for Active; 'I' for Inactive)
REMARK    1  A    between atoms: C_1  and  C_2
REMARK    2  A    between atoms: C_2  and  C_3
REMARK    3  A    between atoms: C_2  and  C_4
REMARK    4  A    between atoms: C_2  and  C_5
REMARK    5  A    between atoms: C_5  and  C_6
REMARK    6  A    between atoms: C_6  and  C_7
REMARK    7  A    between atoms: C_6  and  C_8
REMARK    8  A    between atoms: C_6  and  N_9
REMARK    9  A    between atoms: C_10  and  C_12
REMARK   10  A    between atoms: C_12  and  C_14
REMARK   11  A    between atoms: C_12  and  N_21
REMARK   12  A    between atoms: C_17  and  O_20
REMARK   13  A    between atoms: N_21  and  C_22
REMARK   14  A    between atoms: C_22  and  C_23
REMARK   15  A    between atoms: C_28  and  C_30
REMARK   16  A    between atoms: C_33  and  O_36
REMARK   17  A    between atoms: O_36  and  C_37
REMARK                            x       y       z     vdW  Elec       q    Type
REMARK                         _______ _______ _______ _____ _____    ______ ____
ROOT
ATOM      1  C   UNL     1       5.665  -1.182  -3.447  0.00  0.00    +0.193 C 
ENDROOT
BRANCH   1   2
ATOM      2  C   UNL     1       4.762  -0.671  -4.540  0.00  0.00    -0.018 A 
ATOM      3  C   UNL     1       4.566   0.689  -4.694  0.00  0.00    +0.009 A 
ATOM      4  C   UNL     1       3.739   1.160  -5.695  0.00  0.00    +0.046 A 
ATOM      5  C   UNL     1       3.105   0.267  -6.547  0.00  0.00    +0.117 A 
ATOM      6  C   UNL     1       3.303  -1.097  -6.390  0.00  0.00    +0.046 A 
ATOM      7  C   UNL     1       4.136  -1.563  -5.391  0.00  0.00    +0.009 A 
BRANCH   5   8
ATOM      8  O   UNL     1       2.290   0.728  -7.532  0.00  0.00    -0.507 OA
ATOM      9  H   UNL     1       2.743   0.899  -8.369  0.00  0.00    +0.292 HD
ENDBRANCH   5   8
ENDBRANCH   1   2
BRANCH   1  11
ATOM     10  N   UNL     1       3.825  -2.228  -2.166  0.00  0.00    -0.308 N 
ATOM     11  C   UNL     1       4.866  -1.372  -2.183  0.00  0.00    +0.239 C 
ATOM     12  O   UNL     1       5.160  -0.754  -1.182  0.00  0.00    -0.273 OA
ATOM     13  H   UNL     1       3.591  -2.722  -2.967  0.00  0.00    +0.149 HD
BRANCH  10  14
ATOM     14  C   UNL     1       3.049  -2.412  -0.938  0.00  0.00    +0.030 C 
ATOM     15  C   UNL     1       2.599  -1.048  -0.410  0.00  0.00    +0.031 C 
ATOM     16  C   UNL     1       3.916  -3.105   0.115  0.00  0.00    +0.031 C 
BRANCH  14  17
ATOM     17  C   UNL     1       1.821  -3.275  -1.235  0.00  0.00    +0.031 C 
BRANCH  17  19
ATOM     18  C   UNL     1       1.798  -3.014  -3.720  0.00  0.00    +0.010 C 
ATOM     19  C   UNL     1       1.058  -2.683  -2.422  0.00  0.00    -0.036 C 
ATOM     20  C   UNL     1       0.962  -1.165  -2.262  0.00  0.00    +0.010 C 
ATOM     21  C   UNL     1      -0.350  -3.281  -2.473  0.00  0.00    +0.010 C 
ENDBRANCH  17  19
ENDBRANCH  14  17
ENDBRANCH  10  14
ENDBRANCH   1  11
BRANCH   1  22
ATOM     22  N   UNL     1       6.737  -0.213  -3.206  0.00  0.00    -0.275 N 
ATOM     23  C   UNL     1       7.681  -0.006  -4.146  0.00  0.00    +0.248 C 
ATOM     24  O   UNL     1       8.583   0.783  -3.937  0.00  0.00    -0.270 OA
BRANCH  23  25
ATOM     25  C   UNL     1       7.620  -0.736  -5.427  0.00  0.00    +0.037 A 
ATOM     26  C   UNL     1       6.586  -1.644  -5.668  0.00  0.00    +0.016 A 
ATOM     27  C   UNL     1       6.533  -2.322  -6.865  0.00  0.00    +0.046 A 
ATOM     28  C   UNL     1       7.506  -2.106  -7.832  0.00  0.00    +0.120 A 
ATOM     29  C   UNL     1       8.537  -1.204  -7.597  0.00  0.00    +0.046 A 
ATOM     30  C   UNL     1       8.594  -0.517  -6.405  0.00  0.00    +0.016 A 
BRANCH  28  31
ATOM     31  O   UNL     1       7.451  -2.778  -9.010  0.00  0.00    -0.495 OA
ATOM     32  C   UNL     1       8.483  -2.507  -9.961  0.00  0.00    +0.277 C 
ENDBRANCH  28  31
ENDBRANCH  23  25
BRANCH  22  33
ATOM     33  C   UNL     1       6.783   0.530  -1.945  0.00  0.00    +0.183 C 
BRANCH  33  34
ATOM     34  C   UNL     1       7.380  -0.342  -0.870  0.00  0.00    +0.122 A 
ATOM     35  C   UNL     1       8.672  -0.354  -0.495  0.00  0.00    +0.046 A 
ATOM     36  C   UNL     1       8.790  -1.314   0.537  0.00  0.00    +0.041 A 
ATOM     37  C   UNL     1       7.563  -1.830   0.731  0.00  0.00    +0.195 A 
ATOM     38  O   UNL     1       6.712  -1.233  -0.120  0.00  0.00    -0.466 OA
ENDBRANCH  33  34
ENDBRANCH  22  33
ENDBRANCH   1  22
TORSDOF 11
