REMARK  Name = ZINC30822645
REMARK  7 active torsions:
REMARK  status: ('A' for Active; 'I' for Inactive)
REMARK    1  A    between atoms: C_1  and  O_2
REMARK    2  A    between atoms: O_2  and  C_3
REMARK    3  A    between atoms: C_5  and  C_11
REMARK    4  A    between atoms: C_8  and  O_9
REMARK    5  A    between atoms: C_13  and  C_27
REMARK    6  A    between atoms: N_15  and  C_18
REMARK    7  A    between atoms: C_21  and  C_24
REMARK                            x       y       z     vdW  Elec       q    Type
REMARK                         _______ _______ _______ _____ _____    ______ ____
ROOT
ATOM      1  C   UNL     1       5.675   1.999  -0.408  0.00  0.00    +0.023 C 
ATOM      2  C   UNL     1       6.013   2.890  -1.410  0.00  0.00    +0.071 C 
ATOM      3  C   UNL     1       5.215   3.259  -2.589  0.00  0.00    +0.174 C 
ATOM      4  N   UNL     1       5.899   4.127  -3.269  0.00  0.00    -0.167 NA
ATOM      5  N   UNL     1       7.128   4.394  -2.666  0.00  0.00    -0.156 N 
ATOM      6  C   UNL     1       7.255   3.673  -1.534  0.00  0.00    +0.272 C 
ATOM      7  O   UNL     1       8.203   3.670  -0.769  0.00  0.00    -0.268 OA
ENDROOT
BRANCH   1  10
ATOM      8  C   UNL     1       2.555   0.209   0.638  0.00  0.00    +0.163 A 
ATOM      9  C   UNL     1       3.883   0.462   0.365  0.00  0.00    +0.057 A 
ATOM     10  C   UNL     1       4.268   1.721  -0.121  0.00  0.00    -0.020 A 
ATOM     11  C   UNL     1       3.298   2.713  -0.330  0.00  0.00    +0.027 A 
ATOM     12  C   UNL     1       1.974   2.448  -0.059  0.00  0.00    +0.063 A 
ATOM     13  C   UNL     1       1.596   1.199   0.422  0.00  0.00    +0.173 A 
ATOM     14 BR   UNL     1       0.667   3.785  -0.342  0.00  0.00    -0.046 Br
BRANCH   8  16
ATOM     15  C   UNL     1       3.214  -1.975   1.312  0.00  0.00    +0.277 C 
ATOM     16  O   UNL     1       2.180  -1.009   1.114  0.00  0.00    -0.491 OA
ENDBRANCH   8  16
BRANCH  13  17
ATOM     17  O   UNL     1       0.289   0.944   0.687  0.00  0.00    -0.503 OA
ATOM     18  H   UNL     1      -0.469   1.723   0.517  0.00  0.00    +0.292 HD
ENDBRANCH  13  17
ENDBRANCH   1  10
BRANCH   5  19
ATOM     19  C   UNL     1       8.087   5.278  -3.163  0.00  0.00    +0.060 A 
ATOM     20  C   UNL     1       9.279   5.470  -2.471  0.00  0.00    +0.026 A 
ATOM     21  C   UNL     1      10.229   6.337  -2.960  0.00  0.00    +0.017 A 
ATOM     22  C   UNL     1       9.990   7.035  -4.148  0.00  0.00    +0.063 A 
ATOM     23  C   UNL     1       8.789   6.844  -4.837  0.00  0.00    +0.017 A 
ATOM     24  C   UNL     1       7.846   5.971  -4.345  0.00  0.00    +0.026 A 
BRANCH  22  25
ATOM     25  C   UNL     1      11.004   7.969  -4.672  0.00  0.00    +0.387 C 
ATOM     26  O   UNL     1      10.795   8.575  -5.705  0.00  0.00    -0.241 OA
ATOM     27  O   UNL     1      12.161   8.152  -4.006  0.00  0.00    -0.241 OA
ENDBRANCH  22  25
ENDBRANCH   5  19
BRANCH   3  28
ATOM     28  C   UNL     1       3.849   2.729  -2.941  0.00  0.00    +0.436 C 
ATOM     29  F   UNL     1       3.772   2.520  -4.322  0.00  0.00    -0.164 F 
ATOM     30  F   UNL     1       3.633   1.518  -2.274  0.00  0.00    -0.164 F 
ATOM     31  F   UNL     1       2.876   3.655  -2.554  0.00  0.00    -0.164 F 
ENDBRANCH   3  28
TORSDOF 6
