REMARK  Name = ZINC40517776
REMARK  9 active torsions:
REMARK  status: ('A' for Active; 'I' for Inactive)
REMARK    1  A    between atoms: C_1  and  C_2
REMARK    2  A    between atoms: C_2  and  C_3
REMARK    3  A    between atoms: C_3  and  C_5
REMARK    4  A    between atoms: C_3  and  N_12
REMARK    5  A    between atoms: N_12  and  C_13
REMARK    6  A    between atoms: C_13  and  C_15
REMARK    7  A    between atoms: C_13  and  C_16
REMARK    8  A    between atoms: C_17  and  C_22
REMARK    9  A    between atoms: C_19  and  C_21
REMARK                            x       y       z     vdW  Elec       q    Type
REMARK                         _______ _______ _______ _____ _____    ______ ____
ROOT
ATOM      1  N   UNL     1       0.044   0.112  -2.444  0.00  0.00    +0.388 N 
ATOM      2  H   UNL     1       0.543  -0.278  -3.230  0.00  0.00    -0.084 HD
ATOM      3  H   UNL     1      -0.923  -0.172  -2.485  0.00  0.00    -0.084 HD
ENDROOT
BRANCH   1   4
ATOM      4  C   UNL     1       0.128   1.578  -2.490  0.00  0.00    -0.035 C 
ATOM      5  C   UNL     1       1.595   2.003  -2.578  0.00  0.00    -0.008 C 
BRANCH   4   6
ATOM      6  C   UNL     1      -0.617   2.086  -3.698  0.00  0.00    -0.002 A 
ATOM      7  C   UNL     1      -1.486   3.123  -3.808  0.00  0.00    +0.047 A 
ATOM      8  N   UNL     1      -1.998   3.349  -5.002  0.00  0.00    -0.249 NA
ATOM      9  C   UNL     1      -1.680   2.604  -6.032  0.00  0.00    +0.076 A 
ATOM     10  S   UNL     1      -0.593   1.495  -5.383  0.00  0.00    -0.079 S 
ATOM     11  C   UNL     1      -2.165   2.718  -7.454  0.00  0.00    +0.073 C 
ATOM     12  C   UNL     1      -1.849   3.976  -2.620  0.00  0.00    +0.066 C 
ENDBRANCH   4   6
ENDBRANCH   1   4
BRANCH   1  13
ATOM     13  C   UNL     1       0.645  -0.374  -1.194  0.00  0.00    -0.040 C 
BRANCH  13  14
ATOM     14  C   UNL     1       0.695  -1.880  -1.213  0.00  0.00    -0.061 A 
ATOM     15  C   UNL     1      -0.363  -2.600  -1.735  0.00  0.00    +0.003 A 
ATOM     16  C   UNL     1      -0.317  -3.982  -1.753  0.00  0.00    +0.015 A 
ATOM     17  C   UNL     1       0.789  -4.643  -1.249  0.00  0.00    +0.018 A 
ATOM     18  C   UNL     1       1.847  -3.922  -0.727  0.00  0.00    +0.015 A 
ATOM     19  C   UNL     1       1.803  -2.540  -0.714  0.00  0.00    +0.003 A 
ATOM     20 BR   UNL     1       0.852  -6.533  -1.273  0.00  0.00    -0.050 Br
ENDBRANCH  13  14
BRANCH  13  22
ATOM     21  C   UNL     1       0.482  -0.318   1.299  0.00  0.00    +0.002 C 
ATOM     22  C   UNL     1      -0.201   0.093  -0.007  0.00  0.00    -0.015 C 
ENDBRANCH  13  22
ENDBRANCH   1  13
TORSDOF 5
