REMARK  Name = ZINC63944497
REMARK  4 active torsions:
REMARK  status: ('A' for Active; 'I' for Inactive)
REMARK    1  A    between atoms: C_4  and  C_7
REMARK    2  A    between atoms: C_10  and  C_12
REMARK    3  A    between atoms: N_14  and  C_15
REMARK    4  A    between atoms: C_18  and  C_21
REMARK                            x       y       z     vdW  Elec       q    Type
REMARK                         _______ _______ _______ _____ _____    ______ ____
ROOT
ATOM      1  C   UNL     1       6.265  -3.467  -0.083  0.00  0.00    +0.263 C 
ATOM      2  O   UNL     1       5.742  -4.565  -0.090  0.00  0.00    -0.269 OA
ATOM      3  N   UNL     1       7.609  -3.360  -0.092  0.00  0.00    -0.281 N 
ATOM      4  H   UNL     1       8.026  -2.484  -0.086  0.00  0.00    +0.152 HD
ENDROOT
BRANCH   3   5
ATOM      5  C   UNL     1       8.439  -4.567  -0.110  0.00  0.00    +0.248 C 
ATOM      6  N   UNL     1       9.860  -4.245   0.146  0.00  0.00    -0.344 N 
ATOM      7  C   UNL     1      10.656  -4.529  -0.813  0.00  0.00    +0.111 C 
ATOM      8  N   UNL     1      10.233  -5.090  -1.994  0.00  0.00    -0.272 N 
ATOM      9  S   UNL     1       8.570  -5.262  -1.808  0.00  0.00    -0.015 S 
ATOM     10  H   UNL     1      10.772  -5.332  -2.763  0.00  0.00    +0.161 HD
ATOM     11  H   UNL     1      10.165  -3.849   0.978  0.00  0.00    +0.163 HD
BRANCH   7  12
ATOM     12  C   UNL     1      12.099  -4.240  -0.643  0.00  0.00    +0.013 A 
ATOM     13  C   UNL     1      12.678  -4.285   0.625  0.00  0.00    +0.011 A 
ATOM     14  C   UNL     1      14.023  -4.016   0.776  0.00  0.00    +0.001 A 
ATOM     15  C   UNL     1      14.796  -3.701  -0.327  0.00  0.00    +0.000 A 
ATOM     16  C   UNL     1      14.227  -3.655  -1.587  0.00  0.00    +0.001 A 
ATOM     17  C   UNL     1      12.885  -3.928  -1.752  0.00  0.00    +0.011 A 
ENDBRANCH   7  12
ENDBRANCH   3   5
BRANCH   1  21
ATOM     18  C   UNL     1       3.689  -0.676  -0.037  0.00  0.00    +0.077 C 
ATOM     19  N   UNL     1       4.894  -0.155  -0.041  0.00  0.00    -0.153 NA
ATOM     20  N   UNL     1       5.836  -1.015  -0.056  0.00  0.00    -0.148 NA
ATOM     21  C   UNL     1       5.433  -2.258  -0.065  0.00  0.00    +0.131 C 
ATOM     22  C   UNL     1       3.916  -2.179  -0.048  0.00  0.00    +0.120 C 
BRANCH  18  26
ATOM     23  C   UNL     1      -0.017   1.380   0.010  0.00  0.00    +0.000 A 
ATOM     24  C   UNL     1       1.168   2.097   0.002  0.00  0.00    +0.001 A 
ATOM     25  C   UNL     1       2.377   1.436  -0.013  0.00  0.00    +0.010 A 
ATOM     26  C   UNL     1       2.406   0.036  -0.021  0.00  0.00    -0.002 A 
ATOM     27  C   UNL     1       1.203  -0.681  -0.013  0.00  0.00    +0.010 A 
ATOM     28  C   UNL     1       0.002  -0.004   0.002  0.00  0.00    +0.001 A 
ENDBRANCH  18  26
ENDBRANCH   1  21
TORSDOF 4
