REMARK  Name = ZINC08993404
REMARK  12 active torsions:
REMARK  status: ('A' for Active; 'I' for Inactive)
REMARK    1  A    between atoms: C_1  and  C_2
REMARK    2  A    between atoms: C_2  and  N_3
REMARK    3  A    between atoms: C_5  and  C_14
REMARK    4  A    between atoms: C_10  and  O_12
REMARK    5  A    between atoms: O_12  and  C_13
REMARK    6  A    between atoms: C_21  and  O_30
REMARK    7  A    between atoms: C_22  and  C_25
REMARK    8  A    between atoms: C_25  and  N_59
REMARK    9  A    between atoms: C_26  and  C_27
REMARK   10  A    between atoms: C_26  and  N_59
REMARK   11  A    between atoms: C_28  and  C_29
REMARK   12  A    between atoms: C_28  and  N_59
REMARK                            x       y       z     vdW  Elec       q    Type
REMARK                         _______ _______ _______ _____ _____    ______ ____
ROOT
ATOM      1  C   UNL     1       0.260   6.433   2.588  0.00  0.00    +0.060 C 
ATOM      2  C   UNL     1       1.426   6.243   3.268  0.00  0.00    +0.176 C 
ATOM      3  C   UNL     1       2.071   4.996   3.475  0.00  0.00    +0.231 C 
ATOM      4  O   UNL     1       1.704   3.898   3.090  0.00  0.00    -0.283 OA
ATOM      5  C   UNL     1       3.282   5.312   4.253  0.00  0.00    +0.068 A 
ATOM      6  C   UNL     1       4.323   4.539   4.766  0.00  0.00    +0.019 A 
ATOM      7  C   UNL     1       5.331   5.137   5.470  0.00  0.00    +0.046 A 
ATOM      8  C   UNL     1       5.321   6.514   5.676  0.00  0.00    +0.122 A 
ATOM      9  C   UNL     1       4.293   7.294   5.173  0.00  0.00    +0.020 A 
ATOM     10  C   UNL     1       3.262   6.702   4.455  0.00  0.00    +0.144 A 
ATOM     11  O   UNL     1       2.160   7.212   3.864  0.00  0.00    -0.451 OA
ENDROOT
BRANCH   1  14
ATOM     12  N   UNL     1      -0.594   3.523   0.558  0.00  0.00    -0.346 N 
ATOM     13  C   UNL     1       0.307   4.393   1.075  0.00  0.00    +0.094 A 
ATOM     14  C   UNL     1      -0.346   5.325   1.853  0.00  0.00    +0.004 A 
ATOM     15  C   UNL     1      -1.780   4.980   1.796  0.00  0.00    +0.011 A 
ATOM     16  C   UNL     1      -1.873   3.850   0.967  0.00  0.00    +0.050 A 
ATOM     17  C   UNL     1      -3.119   3.281   0.725  0.00  0.00    +0.030 A 
ATOM     18  C   UNL     1      -4.250   3.833   1.287  0.00  0.00    +0.047 A 
ATOM     19  C   UNL     1      -4.159   4.955   2.103  0.00  0.00    +0.121 A 
ATOM     20  C   UNL     1      -2.928   5.530   2.359  0.00  0.00    +0.056 A 
BRANCH  12  22
ATOM     21  C   UNL     1      -0.423   2.823  -1.779  0.00  0.00    +0.027 C 
ATOM     22  C   UNL     1      -0.260   2.398  -0.319  0.00  0.00    +0.118 C 
ENDBRANCH  12  22
BRANCH  19  23
ATOM     23  O   UNL     1      -5.283   5.489   2.651  0.00  0.00    -0.495 OA
ATOM     24  C   UNL     1      -6.522   4.845   2.345  0.00  0.00    +0.277 C 
ENDBRANCH  19  23
ENDBRANCH   1  14
BRANCH   8  25
ATOM     25  O   UNL     1       6.327   7.096   6.378  0.00  0.00    -0.506 OA
ATOM     26  H   UNL     1       6.197   7.083   7.336  0.00  0.00    +0.292 HD
ENDBRANCH   8  25
BRANCH   9  27
ATOM     27  C   UNL     1       4.294   8.783   5.403  0.00  0.00    -0.036 C 
BRANCH  27  28
ATOM     28  N   UNL     1       3.394   9.090   6.535  0.00  0.00    +0.382 N 
ATOM     29  H   UNL     1       2.492   8.624   6.380  0.00  0.00    -0.081 HD
BRANCH  28  30
ATOM     30  C   UNL     1       3.981   8.592   7.796  0.00  0.00    -0.082 C 
ATOM     31  C   UNL     1       2.914   8.649   8.892  0.00  0.00    -0.017 C 
ENDBRANCH  28  30
BRANCH  28  32
ATOM     32  C   UNL     1       3.172  10.549   6.623  0.00  0.00    -0.082 C 
ATOM     33  C   UNL     1       2.168  10.958   5.543  0.00  0.00    -0.017 C 
ENDBRANCH  28  32
ENDBRANCH  27  28
ENDBRANCH   9  27
TORSDOF 8
