REMARK  Name = ZINC63141849
REMARK  8 active torsions:
REMARK  status: ('A' for Active; 'I' for Inactive)
REMARK    1  A    between atoms: C_1  and  O_2
REMARK    2  A    between atoms: O_2  and  C_3
REMARK    3  A    between atoms: C_3  and  C_4
REMARK    4  A    between atoms: C_3  and  O_36
REMARK    5  A    between atoms: C_4  and  N_5
REMARK    6  A    between atoms: C_25  and  C_27
REMARK    7  A    between atoms: C_30  and  N_33
REMARK    8  A    between atoms: O_36  and  C_37
REMARK                            x       y       z     vdW  Elec       q    Type
REMARK                         _______ _______ _______ _____ _____    ______ ____
ROOT
ATOM      1  N   UNL     1      -0.438  -2.925  -1.064  0.00  0.00    -0.286 N 
ATOM      2  C   UNL     1      -0.453  -3.183   0.366  0.00  0.00    +0.203 C 
ATOM      3  C   UNL     1      -1.823  -3.492   0.870  0.00  0.00    +0.234 C 
ATOM      4  O   UNL     1      -1.949  -3.725   2.054  0.00  0.00    -0.274 OA
ATOM      5  N   UNL     1      -2.924  -3.529   0.109  0.00  0.00    -0.279 N 
ATOM      6  C   UNL     1      -2.901  -3.248  -1.323  0.00  0.00    +0.167 C 
ATOM      7  C   UNL     1      -1.529  -2.946  -1.828  0.00  0.00    +0.237 C 
ATOM      8  O   UNL     1      -1.399  -2.708  -3.010  0.00  0.00    -0.274 OA
ATOM      9  C   UNL     1      -3.837  -2.068  -1.641  0.00  0.00    +0.065 C 
ATOM     10  C   UNL     1      -5.126  -2.330  -0.901  0.00  0.00    -0.034 C 
ATOM     11  C   UNL     1      -6.389  -2.338  -1.309  0.00  0.00    -0.001 A 
ATOM     12  C   UNL     1      -7.004  -1.987  -2.599  0.00  0.00    +0.010 A 
ATOM     13  C   UNL     1      -8.353  -2.135  -2.680  0.00  0.00    +0.001 A 
ATOM     14  C   UNL     1      -9.142  -2.591  -1.619  0.00  0.00    +0.002 A 
ATOM     15  C   UNL     1      -8.661  -2.927  -0.395  0.00  0.00    +0.026 A 
ATOM     16  C   UNL     1      -7.257  -2.806  -0.186  0.00  0.00    +0.043 A 
ATOM     17  N   UNL     1      -6.542  -3.032   0.877  0.00  0.00    -0.375 N 
ATOM     18  C   UNL     1      -5.152  -2.682   0.581  0.00  0.00    +0.131 C 
ATOM     19  C   UNL     1      -4.206  -3.872   0.764  0.00  0.00    +0.133 C 
ATOM     20  H   UNL     1      -6.874  -3.375   1.721  0.00  0.00    +0.160 HD
ENDROOT
BRANCH  19  21
ATOM     21  C   UNL     1      -3.978  -4.122   2.233  0.00  0.00    -0.025 A 
ATOM     22  C   UNL     1      -4.061  -3.077   3.134  0.00  0.00    +0.008 A 
ATOM     23  C   UNL     1      -3.853  -3.307   4.481  0.00  0.00    +0.033 A 
ATOM     24  C   UNL     1      -3.561  -4.583   4.927  0.00  0.00    +0.126 A 
ATOM     25  C   UNL     1      -3.479  -5.628   4.026  0.00  0.00    +0.033 A 
ATOM     26  C   UNL     1      -3.692  -5.399   2.680  0.00  0.00    +0.008 A 
BRANCH  24  27
ATOM     27  N   UNL     1      -3.337  -4.829   6.369  0.00  0.00    +0.056 N 
ATOM     28  O   UNL     1      -3.408  -3.915   7.157  0.00  0.00    -0.126 OA
ATOM     29  O   UNL     1      -3.082  -5.945   6.759  0.00  0.00    -0.126 OA
ENDBRANCH  24  27
ENDBRANCH  19  21
BRANCH   1  30
ATOM     30  C   UNL     1       0.846  -2.619  -1.699  0.00  0.00    +0.169 C 
BRANCH  30  31
ATOM     31  C   UNL     1       1.087  -1.109  -1.663  0.00  0.00    +0.266 C 
BRANCH  31  33
ATOM     32  C   UNL     1       1.791   0.579  -0.113  0.00  0.00    +0.197 C 
ATOM     33  O   UNL     1       1.108  -0.662  -0.306  0.00  0.00    -0.353 OA
ENDBRANCH  31  33
BRANCH  31  34
ATOM     34  O   UNL     1       0.037  -0.443  -2.367  0.00  0.00    -0.353 OA
ATOM     35  C   UNL     1       0.341   0.907  -2.724  0.00  0.00    +0.197 C 
ENDBRANCH  31  34
ENDBRANCH  30  31
ENDBRANCH   1  30
TORSDOF 6
