REMARK  Name = ZINC02077878
REMARK  6 active torsions:
REMARK  status: ('A' for Active; 'I' for Inactive)
REMARK    1  A    between atoms: C_4  and  C_7
REMARK    2  A    between atoms: N_10  and  C_11
REMARK    3  A    between atoms: C_16  and  N_17
REMARK    4  A    between atoms: N_20  and  N_21
REMARK    5  A    between atoms: N_21  and  C_22
REMARK    6  A    between atoms: N_21  and  C_28
REMARK                            x       y       z     vdW  Elec       q    Type
REMARK                         _______ _______ _______ _____ _____    ______ ____
ROOT
ATOM      1  C   UNL     1       3.334  -0.514  -0.827  0.00  0.00    +0.066 C 
ATOM      2  C   UNL     1       4.391   0.278  -0.523  0.00  0.00    +0.059 C 
ATOM      3  C   UNL     1       5.458  -0.567  -0.113  0.00  0.00    +0.130 C 
ATOM      4  N   UNL     1       6.665  -0.199   0.268  0.00  0.00    -0.241 NA
ATOM      5  C   UNL     1       4.928  -1.950  -0.203  0.00  0.00    +0.286 C 
ATOM      6  O   UNL     1       5.524  -2.976   0.061  0.00  0.00    -0.266 OA
ATOM      7  N   UNL     1       3.653  -1.846  -0.630  0.00  0.00    -0.177 N 
ENDROOT
BRANCH   1  11
ATOM      8  C   UNL     1      -0.436   0.896  -2.178  0.00  0.00    +0.000 A 
ATOM      9  C   UNL     1       0.578   1.797  -1.902  0.00  0.00    +0.001 A 
ATOM     10  C   UNL     1       1.805   1.346  -1.462  0.00  0.00    +0.010 A 
ATOM     11  C   UNL     1       2.023  -0.024  -1.296  0.00  0.00    -0.002 A 
ATOM     12  C   UNL     1       0.996  -0.927  -1.577  0.00  0.00    +0.010 A 
ATOM     13  C   UNL     1      -0.226  -0.462  -2.016  0.00  0.00    +0.001 A 
ENDBRANCH   1  11
BRANCH   4  14
ATOM     14  C   UNL     1       7.611  -1.131   0.508  0.00  0.00    +0.085 A 
ATOM     15  C   UNL     1       7.891  -2.117  -0.450  0.00  0.00    +0.029 A 
ATOM     16  C   UNL     1       8.857  -3.064  -0.196  0.00  0.00    +0.002 A 
ATOM     17  C   UNL     1       9.556  -3.050   1.002  0.00  0.00    +0.002 A 
ATOM     18  C   UNL     1       9.294  -2.087   1.956  0.00  0.00    +0.025 A 
ATOM     19  C   UNL     1       8.329  -1.118   1.721  0.00  0.00    +0.050 A 
BRANCH  19  20
ATOM     20  N   UNL     1       8.067  -0.145   2.678  0.00  0.00    -0.356 N 
ATOM     21  H   UNL     1       7.389   0.528   2.512  0.00  0.00    +0.142 HD
ATOM     22  H   UNL     1       8.563  -0.139   3.511  0.00  0.00    +0.142 HD
ENDBRANCH  19  20
ENDBRANCH   4  14
BRANCH   7  23
ATOM     23  N   UNL     1       2.784  -2.924  -0.845  0.00  0.00    -0.212 N 
BRANCH  23  24
ATOM     24  C   UNL     1       2.732  -3.539  -2.098  0.00  0.00    +0.054 A 
ATOM     25  C   UNL     1       3.121  -2.840  -3.234  0.00  0.00    +0.025 A 
ATOM     26  C   UNL     1       3.068  -3.452  -4.471  0.00  0.00    +0.002 A 
ATOM     27  C   UNL     1       2.629  -4.758  -4.580  0.00  0.00    +0.000 A 
ATOM     28  C   UNL     1       2.242  -5.457  -3.451  0.00  0.00    +0.002 A 
ATOM     29  C   UNL     1       2.297  -4.854  -2.210  0.00  0.00    +0.025 A 
ENDBRANCH  23  24
BRANCH  23  30
ATOM     30  C   UNL     1       1.970  -3.383   0.193  0.00  0.00    +0.054 A 
ATOM     31  C   UNL     1       2.498  -3.560   1.466  0.00  0.00    +0.025 A 
ATOM     32  C   UNL     1       1.690  -4.013   2.490  0.00  0.00    +0.002 A 
ATOM     33  C   UNL     1       0.357  -4.291   2.250  0.00  0.00    +0.000 A 
ATOM     34  C   UNL     1      -0.172  -4.116   0.984  0.00  0.00    +0.002 A 
ATOM     35  C   UNL     1       0.629  -3.658  -0.043  0.00  0.00    +0.025 A 
ENDBRANCH  23  30
ENDBRANCH   7  23
TORSDOF 6
