REMARK  Name = ZINC39543392
REMARK  8 active torsions:
REMARK  status: ('A' for Active; 'I' for Inactive)
REMARK    1  A    between atoms: C_1  and  C_2
REMARK    2  A    between atoms: C_4  and  C_9
REMARK    3  A    between atoms: C_5  and  C_8
REMARK    4  A    between atoms: C_9  and  N_10
REMARK    5  A    between atoms: N_10  and  C_11
REMARK    6  A    between atoms: C_11  and  C_12
REMARK    7  A    between atoms: N_15  and  C_26
REMARK    8  A    between atoms: C_17  and  C_19
REMARK                            x       y       z     vdW  Elec       q    Type
REMARK                         _______ _______ _______ _____ _____    ______ ____
ROOT
ATOM      1  C   UNL     1      -5.144   2.632  -1.161  0.00  0.00    +0.014 C 
ATOM      2  C   UNL     1      -4.265   3.854  -1.518  0.00  0.00    +0.127 C 
ATOM      3  N   UNL     1      -5.084   4.675  -2.424  0.00  0.00    -0.266 N 
ATOM      4  N   UNL     1      -6.326   4.112  -2.567  0.00  0.00    -0.232 NA
ATOM      5  C   UNL     1      -6.176   2.654  -2.322  0.00  0.00    +0.107 C 
ATOM      6  H   UNL     1      -6.699   4.288  -3.487  0.00  0.00    +0.145 HD
ENDROOT
BRANCH   5   7
ATOM      7  C   UNL     1      -7.484   2.040  -1.893  0.00  0.00    -0.010 A 
ATOM      8  C   UNL     1      -7.843   0.787  -2.352  0.00  0.00    +0.006 A 
ATOM      9  C   UNL     1      -9.043   0.224  -1.959  0.00  0.00    +0.000 A 
ATOM     10  C   UNL     1      -9.884   0.915  -1.105  0.00  0.00    +0.001 A 
ATOM     11  C   UNL     1      -9.526   2.168  -0.646  0.00  0.00    +0.020 A 
ATOM     12  C   UNL     1      -8.322   2.729  -1.035  0.00  0.00    +0.046 A 
ATOM     13 CL   UNL     1      -7.868   4.300  -0.453  0.00  0.00    -0.083 Cl
ENDBRANCH   5   7
BRANCH   3  14
ATOM     14  C   UNL     1      -4.660   5.853  -3.046  0.00  0.00    +0.045 A 
ATOM     15  C   UNL     1      -3.372   6.328  -2.831  0.00  0.00    +0.027 A 
ATOM     16  C   UNL     1      -2.955   7.491  -3.447  0.00  0.00    +0.040 A 
ATOM     17  C   UNL     1      -3.819   8.184  -4.279  0.00  0.00    +0.124 A 
ATOM     18  C   UNL     1      -5.103   7.713  -4.494  0.00  0.00    +0.040 A 
ATOM     19  C   UNL     1      -5.522   6.547  -3.884  0.00  0.00    +0.027 A 
ATOM     20  F   UNL     1      -3.409   9.323  -4.880  0.00  0.00    -0.205 F 
ENDBRANCH   3  14
BRANCH   1  21
ATOM     21  C   UNL     1      -4.325   1.340  -1.178  0.00  0.00    -0.075 C 
BRANCH  21  22
ATOM     22  N   UNL     1      -3.439   1.307  -0.006  0.00  0.00    +0.382 N 
ATOM     23  H   UNL     1      -3.994   1.343   0.836  0.00  0.00    -0.085 HD
ATOM     24  H   UNL     1      -2.817   2.101  -0.033  0.00  0.00    -0.085 HD
BRANCH  22  25
ATOM     25  C   UNL     1      -2.652   0.067  -0.022  0.00  0.00    -0.047 C 
BRANCH  25  28
ATOM     26  C   UNL     1      -0.435   2.173   1.170  0.00  0.00    +0.039 C 
ATOM     27  C   UNL     1      -0.365   0.653   1.328  0.00  0.00    +0.151 C 
ATOM     28  C   UNL     1      -1.743   0.033   1.180  0.00  0.00    -0.038 C 
ATOM     29  C   UNL     1      -1.963  -0.548   2.361  0.00  0.00    +0.060 C 
ATOM     30  N   UNL     1      -0.913  -0.362   3.191  0.00  0.00    -0.159 NA
ATOM     31  N   UNL     1       0.019   0.290   2.703  0.00  0.00    -0.180 NA
ATOM     32  C   UNL     1      -3.214  -1.308   2.721  0.00  0.00    +0.067 C 
ENDBRANCH  25  28
ENDBRANCH  22  25
ENDBRANCH  21  22
ENDBRANCH   1  21
TORSDOF 6
