REMARK  Name = ZINC12619071
REMARK  5 active torsions:
REMARK  status: ('A' for Active; 'I' for Inactive)
REMARK    1  A    between atoms: C_1  and  C_2
REMARK    2  A    between atoms: C_9  and  N_14
REMARK    3  A    between atoms: C_10  and  C_11
REMARK    4  A    between atoms: N_14  and  S_15
REMARK    5  A    between atoms: S_15  and  C_18
REMARK                            x       y       z     vdW  Elec       q    Type
REMARK                         _______ _______ _______ _____ _____    ______ ____
ROOT
ATOM      1  C   UNL     1      -5.306  -0.901  -4.663  0.00  0.00    +0.008 C 
ATOM      2  C   UNL     1      -4.350  -0.674  -3.490  0.00  0.00    -0.009 C 
ATOM      3  C   UNL     1      -3.685   0.698  -3.627  0.00  0.00    +0.008 C 
ATOM      4  C   UNL     1      -2.555   0.833  -2.606  0.00  0.00    +0.037 C 
ATOM      5  C   UNL     1      -3.100   0.495  -1.224  0.00  0.00    -0.023 A 
ATOM      6  C   UNL     1      -4.252  -0.193  -1.080  0.00  0.00    -0.004 A 
ATOM      7  S   UNL     1      -4.476  -0.342   0.670  0.00  0.00    -0.076 S 
ATOM      8  C   UNL     1      -3.056   0.494   1.207  0.00  0.00    +0.098 A 
ATOM      9  C   UNL     1      -2.446   0.874   0.018  0.00  0.00    +0.069 A 
ATOM     10  C   UNL     1      -5.136  -0.713  -2.171  0.00  0.00    +0.046 C 
ENDROOT
BRANCH   9  11
ATOM     11  C   UNL     1      -1.187   1.624   0.017  0.00  0.00    +0.244 C 
ATOM     12  O   UNL     1      -1.204   2.841   0.023  0.00  0.00    -0.270 OA
ATOM     13  N   UNL     1      -0.011   0.966   0.007  0.00  0.00    -0.325 N 
ATOM     14  H   UNL     1       0.002  -0.004   0.002  0.00  0.00    +0.145 HD
ATOM     15  H   UNL     1       0.822   1.462   0.002  0.00  0.00    +0.145 HD
ENDBRANCH   9  11
BRANCH   8  16
ATOM     16  N   UNL     1      -2.635   0.727   2.502  0.00  0.00    -0.209 N 
ATOM     17  H   UNL     1      -1.812   1.216   2.664  0.00  0.00    +0.174 HD
BRANCH  16  18
ATOM     18  S   UNL     1      -3.534   0.174   3.778  0.00  0.00    +0.073 S 
ATOM     19  O   UNL     1      -2.835   0.543   4.958  0.00  0.00    -0.150 OA
ATOM     20  O   UNL     1      -4.876   0.571   3.531  0.00  0.00    -0.150 OA
BRANCH  18  21
ATOM     21  C   UNL     1      -3.509  -1.587   3.707  0.00  0.00    +0.109 A 
ATOM     22  C   UNL     1      -2.506  -2.286   4.375  0.00  0.00    +0.029 A 
ATOM     23  C   UNL     1      -2.458  -3.646   4.341  0.00  0.00    +0.010 A 
ATOM     24  C   UNL     1      -3.433  -4.358   3.623  0.00  0.00    -0.018 A 
ATOM     25  C   UNL     1      -3.417  -5.763   3.566  0.00  0.00    +0.008 A 
ATOM     26  C   UNL     1      -4.379  -6.419   2.861  0.00  0.00    +0.001 A 
ATOM     27  C   UNL     1      -5.382  -5.719   2.193  0.00  0.00    +0.001 A 
ATOM     28  C   UNL     1      -5.430  -4.359   2.227  0.00  0.00    +0.008 A 
ATOM     29  C   UNL     1      -4.454  -3.647   2.944  0.00  0.00    -0.016 A 
ATOM     30  C   UNL     1      -4.474  -2.243   3.007  0.00  0.00    +0.037 A 
ENDBRANCH  18  21
ENDBRANCH  16  18
ENDBRANCH   8  16
TORSDOF 4
