REMARK  Name = ZINC16020568
REMARK  10 active torsions:
REMARK  status: ('A' for Active; 'I' for Inactive)
REMARK    1  A    between atoms: C_1  and  C_2
REMARK    2  A    between atoms: C_2  and  O_3
REMARK    3  A    between atoms: O_3  and  C_4
REMARK    4  A    between atoms: C_9  and  C_10
REMARK    5  A    between atoms: C_10  and  C_12
REMARK    6  A    between atoms: C_14  and  C_27
REMARK    7  A    between atoms: C_30  and  O_35
REMARK    8  A    between atoms: C_32  and  O_33
REMARK    9  A    between atoms: O_33  and  C_34
REMARK   10  A    between atoms: O_35  and  C_36
REMARK                            x       y       z     vdW  Elec       q    Type
REMARK                         _______ _______ _______ _____ _____    ______ ____
ROOT
ATOM      1  C   UNL     1       1.162   3.941  -1.214  0.00  0.00    +0.173 C 
ATOM      2  C   UNL     1       1.378   5.368  -0.739  0.00  0.00    +0.106 C 
ATOM      3  N   UNL     1       1.412   5.364   0.555  0.00  0.00    -0.086 NA
ATOM      4  O   UNL     1       1.247   4.069   1.105  0.00  0.00    -0.371 OA
ATOM      5  C   UNL     1       0.719   3.232   0.075  0.00  0.00    +0.255 C 
ATOM      6  C   UNL     1      -0.773   3.098   0.153  0.00  0.00    +0.030 A 
ATOM      7  C   UNL     1      -1.811   4.002   0.140  0.00  0.00    +0.010 A 
ATOM      8  C   UNL     1      -3.118   3.557   0.229  0.00  0.00    +0.001 A 
ATOM      9  C   UNL     1      -3.379   2.203   0.332  0.00  0.00    +0.002 A 
ATOM     10  C   UNL     1      -2.342   1.293   0.346  0.00  0.00    +0.024 A 
ATOM     11  C   UNL     1      -1.024   1.732   0.252  0.00  0.00    +0.041 A 
ATOM     12  N   UNL     1       0.177   1.018   0.252  0.00  0.00    -0.281 N 
ATOM     13  C   UNL     1       1.249   1.829   0.148  0.00  0.00    +0.270 C 
ATOM     14  O   UNL     1       2.414   1.492   0.121  0.00  0.00    -0.271 OA
ATOM     15  H   UNL     1       0.234   0.052   0.314  0.00  0.00    +0.155 HD
ENDROOT
BRANCH   2  16
ATOM     16  C   UNL     1       1.525   6.553  -1.603  0.00  0.00    +0.042 A 
ATOM     17  C   UNL     1       1.361   6.437  -2.986  0.00  0.00    +0.017 A 
ATOM     18  C   UNL     1       1.498   7.546  -3.790  0.00  0.00    +0.046 A 
ATOM     19  C   UNL     1       1.801   8.783  -3.231  0.00  0.00    +0.124 A 
ATOM     20  C   UNL     1       1.966   8.908  -1.859  0.00  0.00    +0.091 A 
ATOM     21  C   UNL     1       1.825   7.801  -1.040  0.00  0.00    +0.133 A 
BRANCH  21  22
ATOM     22  O   UNL     1       1.981   7.923   0.303  0.00  0.00    -0.494 OA
ATOM     23  C   UNL     1       2.285   9.226   0.805  0.00  0.00    +0.277 C 
ENDBRANCH  21  22
BRANCH  19  24
ATOM     24  O   UNL     1       1.935   9.872  -4.030  0.00  0.00    -0.495 OA
ATOM     25  C   UNL     1       1.752   9.673  -5.434  0.00  0.00    +0.277 C 
ENDBRANCH  19  24
ENDBRANCH   2  16
BRANCH   1  26
ATOM     26  C   UNL     1       2.445   3.349  -1.737  0.00  0.00    +0.180 C 
ATOM     27  O   UNL     1       3.512   3.797  -1.373  0.00  0.00    -0.291 OA
BRANCH  26  33
ATOM     28  C   UNL     1       3.594   1.609  -3.098  0.00  0.00    +0.131 A 
ATOM     29  C   UNL     1       3.541   0.550  -3.992  0.00  0.00    +0.046 A 
ATOM     30  C   UNL     1       2.325   0.118  -4.484  0.00  0.00    +0.004 A 
ATOM     31  C   UNL     1       1.148   0.733  -4.085  0.00  0.00    +0.001 A 
ATOM     32  C   UNL     1       1.179   1.782  -3.194  0.00  0.00    +0.015 A 
ATOM     33  C   UNL     1       2.404   2.231  -2.687  0.00  0.00    +0.060 A 
BRANCH  28  34
ATOM     34  O   UNL     1       4.788   2.038  -2.620  0.00  0.00    -0.492 OA
BRANCH  34  36
ATOM     35  C   UNL     1       7.197   1.975  -2.439  0.00  0.00    +0.048 C 
ATOM     36  C   UNL     1       5.955   1.356  -3.083  0.00  0.00    +0.226 C 
ENDBRANCH  34  36
ENDBRANCH  28  34
ENDBRANCH  26  33
ENDBRANCH   1  26
TORSDOF 7
