REMARK  Name = ZINC04658815
REMARK  9 active torsions:
REMARK  status: ('A' for Active; 'I' for Inactive)
REMARK    1  A    between atoms: C_1  and  C_2
REMARK    2  A    between atoms: C_5  and  N_8
REMARK    3  A    between atoms: C_14  and  C_15
REMARK    4  A    between atoms: C_18  and  O_23
REMARK    5  A    between atoms: C_19  and  O_21
REMARK    6  A    between atoms: O_21  and  C_22
REMARK    7  A    between atoms: O_23  and  C_24
REMARK    8  A    between atoms: C_24  and  C_25
REMARK    9  A    between atoms: C_24  and  C_26
REMARK                            x       y       z     vdW  Elec       q    Type
REMARK                         _______ _______ _______ _____ _____    ______ ____
ROOT
ATOM      1  N   UNL     1      -4.073  -0.077   3.743  0.00  0.00    -0.226 NA
ATOM      2  C   UNL     1      -3.393   0.787   3.023  0.00  0.00    +0.166 C 
ATOM      3  N   UNL     1      -3.305   2.153   3.181  0.00  0.00    -0.260 N 
ATOM      4  C   UNL     1      -2.569   2.881   2.359  0.00  0.00    +0.256 C 
ATOM      5  O   UNL     1      -2.479   4.088   2.484  0.00  0.00    -0.269 OA
ATOM      6  C   UNL     1      -1.860   2.163   1.282  0.00  0.00    +0.078 C 
ATOM      7  C   UNL     1      -1.044   2.651   0.314  0.00  0.00    +0.028 C 
ATOM      8  S   UNL     1      -2.359   0.477   1.601  0.00  0.00    -0.049 S 
ATOM      9  H   UNL     1      -3.788   2.585   3.903  0.00  0.00    +0.157 HD
ENDROOT
BRANCH   1  14
ATOM     10  C   UNL     1      -7.141   1.704   8.134  0.00  0.00    +0.044 C 
ATOM     11  C   UNL     1      -6.322   1.229   6.962  0.00  0.00    -0.050 A 
ATOM     12  C   UNL     1      -6.858   0.315   6.072  0.00  0.00    +0.005 A 
ATOM     13  C   UNL     1      -6.114  -0.125   4.997  0.00  0.00    +0.028 A 
ATOM     14  C   UNL     1      -4.816   0.355   4.808  0.00  0.00    +0.067 A 
ATOM     15  C   UNL     1      -4.279   1.273   5.713  0.00  0.00    +0.028 A 
ATOM     16  C   UNL     1      -5.036   1.708   6.780  0.00  0.00    +0.005 A 
ENDBRANCH   1  14
BRANCH   7  17
ATOM     17  C   UNL     1      -0.888   4.102   0.147  0.00  0.00    -0.020 A 
ATOM     18  C   UNL     1       0.363   4.641  -0.176  0.00  0.00    +0.012 A 
ATOM     19  C   UNL     1       0.506   6.003  -0.332  0.00  0.00    +0.050 A 
ATOM     20  C   UNL     1      -0.588   6.842  -0.169  0.00  0.00    +0.162 A 
ATOM     21  C   UNL     1      -1.837   6.313   0.152  0.00  0.00    +0.162 A 
ATOM     22  C   UNL     1      -1.991   4.949   0.305  0.00  0.00    +0.057 A 
BRANCH  21  23
ATOM     23  O   UNL     1      -2.906   7.140   0.309  0.00  0.00    -0.491 OA
ATOM     24  C   UNL     1      -4.155   6.529   0.638  0.00  0.00    +0.277 C 
ENDBRANCH  21  23
BRANCH  20  25
ATOM     25  O   UNL     1      -0.441   8.184  -0.324  0.00  0.00    -0.486 OA
BRANCH  25  26
ATOM     26  C   UNL     1       0.886   8.671  -0.539  0.00  0.00    +0.167 C 
ATOM     27  C   UNL     1       1.196   8.662  -2.037  0.00  0.00    +0.051 C 
ATOM     28  C   UNL     1       0.998  10.100  -0.004  0.00  0.00    +0.051 C 
ENDBRANCH  25  26
ENDBRANCH  20  25
ENDBRANCH   7  17
TORSDOF 5
