REMARK  Name = ZINC03148891
REMARK  9 active torsions:
REMARK  status: ('A' for Active; 'I' for Inactive)
REMARK    1  A    between atoms: C_1  and  C_2
REMARK    2  A    between atoms: C_6  and  C_8
REMARK    3  A    between atoms: C_8  and  C_25
REMARK    4  A    between atoms: C_10  and  C_12
REMARK    5  A    between atoms: N_14  and  N_15
REMARK    6  A    between atoms: C_16  and  C_17
REMARK    7  A    between atoms: C_20  and  O_24
REMARK    8  A    between atoms: C_22  and  O_23
REMARK    9  A    between atoms: C_29  and  C_31
REMARK                            x       y       z     vdW  Elec       q    Type
REMARK                         _______ _______ _______ _____ _____    ______ ____
ROOT
ATOM      1  C   UNL     1       9.557   5.474   3.557  0.00  0.00    +0.033 C 
ATOM      2  C   UNL     1      10.148   4.243   2.867  0.00  0.00    +0.031 C 
ATOM      3  C   UNL     1       9.004   5.015   2.207  0.00  0.00    +0.093 C 
ENDROOT
BRANCH   1   9
ATOM      4  C   UNL     1      12.525   8.668   6.014  0.00  0.00    +0.044 C 
ATOM      5  C   UNL     1      11.812   8.257   4.752  0.00  0.00    -0.050 A 
ATOM      6  C   UNL     1      11.922   9.031   3.612  0.00  0.00    +0.003 A 
ATOM      7  C   UNL     1      11.268   8.654   2.454  0.00  0.00    +0.001 A 
ATOM      8  C   UNL     1      10.506   7.500   2.435  0.00  0.00    +0.004 A 
ATOM      9  C   UNL     1      10.391   6.729   3.576  0.00  0.00    -0.036 A 
ATOM     10  C   UNL     1      11.046   7.106   4.734  0.00  0.00    +0.008 A 
ENDBRANCH   1   9
BRANCH   1  11
ATOM     11  C   UNL     1       8.699   5.245   4.775  0.00  0.00    -0.036 A 
ATOM     12  C   UNL     1       7.415   5.755   4.822  0.00  0.00    +0.004 A 
ATOM     13  C   UNL     1       6.627   5.541   5.937  0.00  0.00    +0.001 A 
ATOM     14  C   UNL     1       7.126   4.825   7.009  0.00  0.00    +0.003 A 
ATOM     15  C   UNL     1       8.412   4.320   6.964  0.00  0.00    -0.050 A 
ATOM     16  C   UNL     1       9.199   4.530   5.847  0.00  0.00    +0.008 A 
ATOM     17  C   UNL     1       8.957   3.539   8.133  0.00  0.00    +0.044 C 
ENDBRANCH   1  11
BRANCH   3  18
ATOM     18  C   UNL     1       7.643   4.367   2.196  0.00  0.00    +0.236 C 
ATOM     19  O   UNL     1       7.537   3.175   2.400  0.00  0.00    -0.274 OA
ATOM     20  N   UNL     1       6.544   5.111   1.961  0.00  0.00    -0.207 N 
ATOM     21  H   UNL     1       6.629   6.064   1.798  0.00  0.00    +0.177 HD
BRANCH  20  22
ATOM     22  N   UNL     1       5.279   4.509   1.952  0.00  0.00    -0.188 NA
ATOM     23  C   UNL     1       4.221   5.226   1.725  0.00  0.00    +0.142 C 
BRANCH  23  24
ATOM     24  C   UNL     1       2.891   4.592   1.715  0.00  0.00    +0.036 A 
ATOM     25  C   UNL     1       1.750   5.361   1.471  0.00  0.00    +0.016 A 
ATOM     26  C   UNL     1       0.507   4.765   1.463  0.00  0.00    +0.046 A 
ATOM     27  C   UNL     1       0.385   3.401   1.696  0.00  0.00    +0.120 A 
ATOM     28  C   UNL     1       1.511   2.630   1.944  0.00  0.00    +0.091 A 
ATOM     29  C   UNL     1       2.765   3.216   1.950  0.00  0.00    +0.129 A 
BRANCH  29  30
ATOM     30  O   UNL     1       3.869   2.461   2.187  0.00  0.00    -0.506 OA
ATOM     31  H   UNL     1       4.108   2.398   3.122  0.00  0.00    +0.292 HD
ENDBRANCH  29  30
BRANCH  27  32
ATOM     32  O   UNL     1      -0.843   2.820   1.686  0.00  0.00    -0.507 OA
ATOM     33  H   UNL     1      -1.119   2.497   0.817  0.00  0.00    +0.292 HD
ENDBRANCH  27  32
ENDBRANCH  23  24
ENDBRANCH  20  22
ENDBRANCH   3  18
TORSDOF 7
