REMARK  Name = ZINC09344621
REMARK  8 active torsions:
REMARK  status: ('A' for Active; 'I' for Inactive)
REMARK    1  A    between atoms: C_1  and  C_2
REMARK    2  A    between atoms: C_2  and  O_3
REMARK    3  A    between atoms: O_3  and  C_4
REMARK    4  A    between atoms: C_9  and  C_10
REMARK    5  A    between atoms: N_12  and  C_13
REMARK    6  A    between atoms: C_14  and  C_24
REMARK    7  A    between atoms: C_19  and  C_23
REMARK    8  A    between atoms: N_26  and  C_27
REMARK                            x       y       z     vdW  Elec       q    Type
REMARK                         _______ _______ _______ _____ _____    ______ ____
ROOT
ATOM      1  C   UNL     1      -3.495   2.184   2.859  0.00  0.00    +0.085 A 
ATOM      2  C   UNL     1      -2.408   1.324   2.934  0.00  0.00    +0.069 A 
ATOM      3  C   UNL     1      -1.968   0.912   4.256  0.00  0.00    -0.023 A 
ATOM      4  C   UNL     1      -2.684   1.418   5.284  0.00  0.00    -0.004 A 
ATOM      5  S   UNL     1      -3.923   2.425   4.520  0.00  0.00    -0.077 S 
ATOM      6  C   UNL     1      -2.465   1.171   6.745  0.00  0.00    +0.046 C 
ATOM      7  C   UNL     1      -1.536  -0.042   6.897  0.00  0.00    -0.009 C 
ATOM      8  C   UNL     1      -0.338   0.133   5.959  0.00  0.00    +0.008 C 
ATOM      9  C   UNL     1      -0.789  -0.020   4.505  0.00  0.00    +0.037 C 
ATOM     10  C   UNL     1      -1.045  -0.139   8.343  0.00  0.00    +0.008 C 
ENDROOT
BRANCH   1  13
ATOM     11  C   UNL     1      -5.152   3.544   1.854  0.00  0.00    +0.252 C 
ATOM     12  O   UNL     1      -5.580   3.821   2.958  0.00  0.00    -0.270 OA
ATOM     13  N   UNL     1      -4.094   2.718   1.729  0.00  0.00    -0.275 N 
ATOM     14  H   UNL     1      -3.752   2.497   0.849  0.00  0.00    +0.156 HD
BRANCH  11  20
ATOM     15  C   UNL     1      -6.889   4.972   0.776  0.00  0.00    +0.133 A 
ATOM     16  C   UNL     1      -7.481   5.500  -0.362  0.00  0.00    +0.046 A 
ATOM     17  C   UNL     1      -6.987   5.181  -1.611  0.00  0.00    +0.004 A 
ATOM     18  C   UNL     1      -5.899   4.332  -1.738  0.00  0.00    +0.001 A 
ATOM     19  C   UNL     1      -5.296   3.801  -0.619  0.00  0.00    +0.017 A 
ATOM     20  C   UNL     1      -5.789   4.112   0.651  0.00  0.00    +0.079 A 
BRANCH  15  21
ATOM     21  O   UNL     1      -7.373   5.286   2.004  0.00  0.00    -0.491 OA
BRANCH  21  23
ATOM     22  C   UNL     1      -8.896   6.403   3.510  0.00  0.00    +0.048 C 
ATOM     23  C   UNL     1      -8.496   6.168   2.053  0.00  0.00    +0.226 C 
ENDBRANCH  21  23
ENDBRANCH  15  21
ENDBRANCH  11  20
ENDBRANCH   1  13
BRANCH   2  24
ATOM     24  C   UNL     1      -1.726   0.853   1.725  0.00  0.00    +0.247 C 
ATOM     25  O   UNL     1      -2.091  -0.172   1.180  0.00  0.00    -0.270 OA
ATOM     26  N   UNL     1      -0.695   1.556   1.216  0.00  0.00    -0.307 N 
ATOM     27  H   UNL     1      -0.404   2.373   1.650  0.00  0.00    +0.149 HD
BRANCH  26  28
ATOM     28  C   UNL     1      -0.013   1.086   0.008  0.00  0.00    +0.096 C 
ATOM     29  C   UNL     1      -0.767   1.593  -1.232  0.00  0.00    +0.046 C 
ATOM     30  C   UNL     1       0.134   1.355  -2.478  0.00  0.00    +0.168 C 
ATOM     31  S   UNL     1       1.780   1.828  -1.798  0.00  0.00    -0.029 S 
ATOM     32  O   UNL     1       2.014   3.204  -2.068  0.00  0.00    -0.174 OA
ATOM     33  O   UNL     1       2.742   0.864  -2.202  0.00  0.00    -0.174 OA
ATOM     34  C   UNL     1       1.440   1.619  -0.003  0.00  0.00    +0.188 C 
ENDBRANCH  26  28
ENDBRANCH   2  24
TORSDOF 6
