REMARK  Name = ZINC17517782
REMARK  9 active torsions:
REMARK  status: ('A' for Active; 'I' for Inactive)
REMARK    1  A    between atoms: C_1  and  C_2
REMARK    2  A    between atoms: C_2  and  C_3
REMARK    3  A    between atoms: C_2  and  C_4
REMARK    4  A    between atoms: C_2  and  C_5
REMARK    5  A    between atoms: C_8  and  C_11
REMARK    6  A    between atoms: N_13  and  N_14
REMARK    7  A    between atoms: C_15  and  C_17
REMARK    8  A    between atoms: C_17  and  C_18
REMARK    9  A    between atoms: C_18  and  C_19
REMARK                            x       y       z     vdW  Elec       q    Type
REMARK                         _______ _______ _______ _____ _____    ______ ____
ROOT
ATOM      1  N   UNL     1       2.366   1.217  -0.014  0.00  0.00    -0.234 N 
ATOM      2  C   UNL     1       3.524   1.907  -0.021  0.00  0.00    +0.229 C 
ATOM      3  O   UNL     1       3.508   3.119  -0.015  0.00  0.00    -0.274 OA
ATOM      4  H   UNL     1       2.379   0.247  -0.019  0.00  0.00    +0.173 HD
ENDROOT
BRANCH   1   7
ATOM      5  C   UNL     1      -0.014   1.211   0.009  0.00  0.00    +0.260 C 
ATOM      6  O   UNL     1       0.002  -0.004   0.002  0.00  0.00    -0.269 OA
ATOM      7  N   UNL     1       1.143   1.901   0.001  0.00  0.00    -0.230 N 
ATOM      8  H   UNL     1       1.130   2.871   0.007  0.00  0.00    +0.173 HD
BRANCH   5  12
ATOM      9  C   UNL     1      -3.721   3.285   0.038  0.00  0.00    -0.042 A 
ATOM     10  C   UNL     1      -3.706   1.901   0.030  0.00  0.00    +0.005 A 
ATOM     11  C   UNL     1      -2.506   1.222   0.021  0.00  0.00    +0.013 A 
ATOM     12  C   UNL     1      -1.305   1.933   0.019  0.00  0.00    +0.038 A 
ATOM     13  C   UNL     1      -1.327   3.329   0.032  0.00  0.00    +0.013 A 
ATOM     14  C   UNL     1      -2.534   3.996   0.037  0.00  0.00    +0.005 A 
BRANCH   9  16
ATOM     15  C   UNL     1      -5.828   3.633   1.299  0.00  0.00    +0.015 C 
ATOM     16  C   UNL     1      -5.037   4.021   0.049  0.00  0.00    -0.013 C 
ATOM     17  C   UNL     1      -4.777   5.529   0.056  0.00  0.00    +0.015 C 
ATOM     18  C   UNL     1      -5.840   3.647  -1.199  0.00  0.00    +0.015 C 
ENDBRANCH   9  16
ENDBRANCH   5  12
ENDBRANCH   1   7
BRANCH   2  19
ATOM     19  C   UNL     1       4.839   1.171  -0.038  0.00  0.00    +0.105 C 
BRANCH  19  20
ATOM     20  C   UNL     1       5.988   2.181  -0.043  0.00  0.00    +0.083 C 
BRANCH  20  21
ATOM     21  C   UNL     1       7.304   1.446  -0.060  0.00  0.00    +0.111 A 
ATOM     22  N   UNL     1       8.463   2.152  -0.067  0.00  0.00    -0.310 N 
ATOM     23  H   UNL     1       8.428   3.122  -0.062  0.00  0.00    +0.170 HD
ATOM     24  C   UNL     1       9.659   1.535  -0.082  0.00  0.00    +0.260 A 
ATOM     25  O   UNL     1      10.691   2.184  -0.089  0.00  0.00    -0.267 OA
ATOM     26  C   UNL     1       9.699   0.102  -0.090  0.00  0.00    +0.075 A 
ATOM     27  C   UNL     1      10.870  -0.773  -0.106  0.00  0.00    -0.023 A 
ATOM     28  C   UNL     1      10.640  -2.103  -0.111  0.00  0.00    -0.004 A 
ATOM     29  S   UNL     1       8.875  -2.264  -0.094  0.00  0.00    -0.073 S 
ATOM     30  C   UNL     1       8.451  -0.540  -0.081  0.00  0.00    +0.116 A 
ATOM     31  N   UNL     1       7.308   0.139  -0.061  0.00  0.00    -0.227 NA
ATOM     32  C   UNL     1      11.660  -3.200  -0.127  0.00  0.00    +0.043 C 
ATOM     33  C   UNL     1      13.017  -2.595  -0.512  0.00  0.00    +0.005 C 
ATOM     34  C   UNL     1      13.250  -1.337   0.329  0.00  0.00    +0.005 C 
ATOM     35  C   UNL     1      12.296  -0.229  -0.117  0.00  0.00    +0.037 C 
ENDBRANCH  20  21
ENDBRANCH  19  20
ENDBRANCH   2  19
TORSDOF 6
