REMARK  Name = ZINC11662405
REMARK  7 active torsions:
REMARK  status: ('A' for Active; 'I' for Inactive)
REMARK    1  A    between atoms: C_1  and  C_2
REMARK    2  A    between atoms: C_2  and  C_3
REMARK    3  A    between atoms: C_2  and  C_4
REMARK    4  A    between atoms: C_2  and  N_14
REMARK    5  A    between atoms: C_15  and  C_17
REMARK    6  A    between atoms: C_17  and  C_18
REMARK    7  A    between atoms: C_25  and  N_58
REMARK                            x       y       z     vdW  Elec       q    Type
REMARK                         _______ _______ _______ _____ _____    ______ ____
ROOT
ATOM      1  N   UNL     1       5.032   3.758   0.779  0.00  0.00    -0.310 N 
ATOM      2  C   UNL     1       3.761   3.350   0.967  0.00  0.00    +0.212 C 
ATOM      3  O   UNL     1       2.847   4.138   0.845  0.00  0.00    -0.276 OA
ATOM      4  H   UNL     1       5.763   3.128   0.877  0.00  0.00    +0.149 HD
ENDROOT
BRANCH   1   6
ATOM      5  C   UNL     1       4.612   5.495  -0.890  0.00  0.00    +0.032 C 
ATOM      6  C   UNL     1       5.309   5.153   0.428  0.00  0.00    +0.035 C 
ATOM      7  C   UNL     1       4.785   6.072   1.535  0.00  0.00    +0.032 C 
BRANCH   6   8
ATOM      8  C   UNL     1       6.818   5.350   0.274  0.00  0.00    -0.008 C 
ATOM      9  C   UNL     1       7.341   4.432  -0.833  0.00  0.00    +0.012 C 
ATOM     10  C   UNL     1       8.851   4.629  -0.987  0.00  0.00    -0.010 C 
ATOM     11  C   UNL     1       9.140   6.086  -1.354  0.00  0.00    +0.007 C 
ATOM     12  C   UNL     1       8.617   7.004  -0.248  0.00  0.00    -0.010 C 
ATOM     13  C   UNL     1       7.107   6.807  -0.093  0.00  0.00    +0.012 C 
ATOM     14  C   UNL     1       9.313   6.662   1.071  0.00  0.00    +0.007 C 
ATOM     15  C   UNL     1       9.024   5.205   1.438  0.00  0.00    -0.010 C 
ATOM     16  C   UNL     1       9.547   4.287   0.331  0.00  0.00    +0.007 C 
ATOM     17  C   UNL     1       7.515   5.008   1.592  0.00  0.00    +0.012 C 
ENDBRANCH   6   8
ENDBRANCH   1   6
BRANCH   2  18
ATOM     18  C   UNL     1       3.476   1.915   1.328  0.00  0.00    +0.089 C 
BRANCH  18  19
ATOM     19  C   UNL     1       1.963   1.685   1.349  0.00  0.00    +0.028 C 
ATOM     20  C   UNL     1       1.402   1.933  -0.022  0.00  0.00    +0.200 C 
ATOM     21  O   UNL     1       2.005   1.504  -0.983  0.00  0.00    -0.278 OA
ATOM     22  N   UNL     1       0.266   2.608  -0.228  0.00  0.00    -0.318 N 
ATOM     23  C   UNL     1      -0.515   3.196   0.856  0.00  0.00    +0.085 C 
ATOM     24  C   UNL     1      -0.120   2.561   2.191  0.00  0.00    -0.059 C 
ATOM     25  C   UNL     1       1.765   2.279   3.688  0.00  0.00    -0.095 C 
ATOM     26  H   UNL     1      -0.053   2.712  -1.138  0.00  0.00    +0.149 HD
ATOM     27  N   UNL     1       1.351   2.623   2.309  0.00  0.00    +0.387 N 
ATOM     28  H   UNL     1       1.665   3.576   2.094  0.00  0.00    -0.081 HD
ENDBRANCH  18  19
ENDBRANCH   2  18
TORSDOF 4
