REMARK  Name = ZINC62905132
REMARK  8 active torsions:
REMARK  status: ('A' for Active; 'I' for Inactive)
REMARK    1  A    between atoms: C_1  and  C_2
REMARK    2  A    between atoms: N_4  and  C_5
REMARK    3  A    between atoms: C_12  and  C_15
REMARK    4  A    between atoms: N_17  and  C_18
REMARK    5  A    between atoms: N_17  and  C_21
REMARK    6  A    between atoms: C_18  and  C_19
REMARK    7  A    between atoms: C_21  and  C_22
REMARK    8  A    between atoms: C_26  and  C_28
REMARK                            x       y       z     vdW  Elec       q    Type
REMARK                         _______ _______ _______ _____ _____    ______ ____
ROOT
ATOM      1  C   UNL     1      -0.693  -2.362  -0.249  0.00  0.00    +0.036 C 
ATOM      2  C   UNL     1      -0.190  -2.814  -1.622  0.00  0.00    +0.029 C 
ATOM      3  C   UNL     1      -0.327  -4.334  -1.739  0.00  0.00    -0.008 C 
ATOM      4  C   UNL     1       0.504  -5.007  -0.645  0.00  0.00    +0.007 C 
ATOM      5  C   UNL     1       0.001  -4.554   0.728  0.00  0.00    -0.008 C 
ATOM      6  C   UNL     1       0.138  -3.035   0.845  0.00  0.00    +0.029 C 
ATOM      7  C   UNL     1      -1.468  -4.948   0.888  0.00  0.00    +0.020 C 
ATOM      8  C   UNL     1      -2.299  -4.275  -0.207  0.00  0.00    +0.050 C 
ATOM      9  C   UNL     1      -1.797  -4.728  -1.579  0.00  0.00    +0.020 C 
ATOM     10  C   UNL     1      -2.163  -2.756  -0.089  0.00  0.00    +0.042 C 
ENDROOT
BRANCH   1  14
ATOM     11  C   UNL     1       0.785   1.167  -0.131  0.00  0.00    +0.109 C 
ATOM     12  C   UNL     1       0.650  -0.329  -0.246  0.00  0.00    +0.210 C 
ATOM     13  O   UNL     1       1.633  -1.013  -0.438  0.00  0.00    -0.276 OA
ATOM     14  N   UNL     1      -0.562  -0.907  -0.137  0.00  0.00    -0.310 N 
ATOM     15  H   UNL     1      -1.348  -0.360   0.017  0.00  0.00    +0.149 HD
ENDBRANCH   1  14
BRANCH   8  16
ATOM     16  C   UNL     1      -3.747  -4.663  -0.049  0.00  0.00    +0.222 C 
ATOM     17  O   UNL     1      -4.592  -3.806   0.098  0.00  0.00    -0.275 OA
ATOM     18  N   UNL     1      -4.102  -5.963  -0.071  0.00  0.00    -0.293 N 
BRANCH  18  19
ATOM     19  C   UNL     1      -3.072  -7.004  -0.108  0.00  0.00    +0.135 C 
BRANCH  19  20
ATOM     20  C   UNL     1      -2.832  -7.523   1.286  0.00  0.00    -0.016 C 
ATOM     21  C   UNL     1      -2.921  -8.807   1.531  0.00  0.00    +0.005 C 
ENDBRANCH  19  20
ENDBRANCH  18  19
BRANCH  18  22
ATOM     22  C   UNL     1      -5.519  -6.335  -0.057  0.00  0.00    +0.143 C 
BRANCH  22  23
ATOM     23  C   UNL     1      -6.026  -6.433  -1.473  0.00  0.00    -0.029 A 
ATOM     24  C   UNL     1      -6.558  -5.316  -2.095  0.00  0.00    +0.005 A 
ATOM     25  C   UNL     1      -7.026  -5.397  -3.394  0.00  0.00    +0.002 A 
ATOM     26  C   UNL     1      -6.965  -6.593  -4.079  0.00  0.00    +0.019 A 
ATOM     27  C   UNL     1      -6.429  -7.723  -3.459  0.00  0.00    +0.052 A 
ATOM     28  C   UNL     1      -5.955  -7.633  -2.148  0.00  0.00    +0.024 A 
BRANCH  27  29
ATOM     29  C   UNL     1      -6.363  -8.968  -4.164  0.00  0.00    +0.099 C 
ATOM     30  N   UNL     1      -6.311  -9.955  -4.723  0.00  0.00    -0.191 NA
ENDBRANCH  27  29
ENDBRANCH  22  23
ENDBRANCH  18  22
ENDBRANCH   8  16
TORSDOF 7
