REMARK  Name = ZINC01054824
REMARK  5 active torsions:
REMARK  status: ('A' for Active; 'I' for Inactive)
REMARK    1  A    between atoms: C_1  and  C_2
REMARK    2  A    between atoms: C_3  and  C_24
REMARK    3  A    between atoms: C_4  and  C_21
REMARK    4  A    between atoms: C_5  and  N_7
REMARK    5  A    between atoms: C_8  and  C_10
REMARK                            x       y       z     vdW  Elec       q    Type
REMARK                         _______ _______ _______ _____ _____    ______ ____
ROOT
ATOM      1  C   UNL     1      -1.240   6.222   2.258  0.00  0.00    +0.052 C 
ATOM      2  C   UNL     1      -1.230   5.195   1.155  0.00  0.00    -0.003 A 
ATOM      3  C   UNL     1      -1.212   3.842   1.264  0.00  0.00    +0.006 A 
ATOM      4  C   UNL     1      -1.207   3.088   0.025  0.00  0.00    +0.073 A 
ATOM      5  C   UNL     1      -1.217   3.822  -1.153  0.00  0.00    +0.085 A 
ATOM      6  S   UNL     1      -1.242   5.464  -0.605  0.00  0.00    -0.077 S 
ENDROOT
BRANCH   3   7
ATOM      7  C   UNL     1      -1.196   3.168   2.584  0.00  0.00    -0.016 A 
ATOM      8  C   UNL     1      -2.279   2.386   2.983  0.00  0.00    +0.008 A 
ATOM      9  C   UNL     1      -2.257   1.756   4.210  0.00  0.00    +0.001 A 
ATOM     10  C   UNL     1      -1.168   1.909   5.050  0.00  0.00    +0.000 A 
ATOM     11  C   UNL     1      -0.093   2.689   4.662  0.00  0.00    +0.001 A 
ATOM     12  C   UNL     1      -0.101   3.318   3.434  0.00  0.00    +0.008 A 
ENDBRANCH   3   7
BRANCH   4  13
ATOM     13  C   UNL     1      -1.187   1.624   0.017  0.00  0.00    +0.244 C 
ATOM     14  O   UNL     1      -2.233   1.001   0.018  0.00  0.00    -0.270 OA
ATOM     15  N   UNL     1      -0.011   0.966   0.007  0.00  0.00    -0.325 N 
ATOM     16  H   UNL     1       0.002  -0.004   0.002  0.00  0.00    +0.145 HD
ATOM     17  H   UNL     1       0.822   1.462   0.002  0.00  0.00    +0.145 HD
ENDBRANCH   4  13
BRANCH   5  18
ATOM     18  N   UNL     1      -1.210   3.353  -2.456  0.00  0.00    -0.275 N 
ATOM     19  C   UNL     1      -1.222   4.223  -3.486  0.00  0.00    +0.256 C 
ATOM     20  O   UNL     1      -1.238   5.420  -3.270  0.00  0.00    -0.270 OA
ATOM     21  H   UNL     1      -1.198   2.399  -2.628  0.00  0.00    +0.156 HD
BRANCH  19  22
ATOM     22  C   UNL     1      -1.215   3.724  -4.871  0.00  0.00    +0.122 A 
ATOM     23  C   UNL     1      -1.191   2.365  -5.130  0.00  0.00    +0.031 A 
ATOM     24  C   UNL     1      -1.191   1.929  -6.479  0.00  0.00    +0.018 A 
ATOM     25  C   UNL     1      -1.172   0.558  -6.778  0.00  0.00    +0.011 A 
ATOM     26  C   UNL     1      -1.166   0.146  -8.079  0.00  0.00    +0.001 A 
ATOM     27  C   UNL     1      -1.177   1.073  -9.112  0.00  0.00    +0.004 A 
ATOM     28  C   UNL     1      -1.195   2.425  -8.841  0.00  0.00    +0.047 A 
ATOM     29  C   UNL     1      -1.202   2.870  -7.524  0.00  0.00    +0.139 A 
ATOM     30  O   UNL     1      -1.220   4.195  -7.262  0.00  0.00    -0.422 OA
ATOM     31  C   UNL     1      -1.227   4.660  -6.002  0.00  0.00    +0.350 A 
ATOM     32  O   UNL     1      -1.244   5.859  -5.797  0.00  0.00    -0.244 OA
ENDBRANCH  19  22
ENDBRANCH   5  18
TORSDOF 4
