REMARK  Name = ZINC13729135
REMARK  5 active torsions:
REMARK  status: ('A' for Active; 'I' for Inactive)
REMARK    1  A    between atoms: C_6  and  C_7
REMARK    2  A    between atoms: C_10  and  C_12
REMARK    3  A    between atoms: C_12  and  N_13
REMARK    4  A    between atoms: N_13  and  C_14
REMARK    5  A    between atoms: C_23  and  O_26
REMARK                            x       y       z     vdW  Elec       q    Type
REMARK                         _______ _______ _______ _____ _____    ______ ____
ROOT
ATOM      1  N   UNL     1      -5.383  -0.988   1.430  0.00  0.00    +0.388 N 
ATOM      2  H   UNL     1      -5.123  -1.927   1.941  0.00  0.00    -0.084 HD
ATOM      3  H   UNL     1      -4.907  -0.144   1.949  0.00  0.00    -0.084 HD
ENDROOT
BRANCH   1   4
ATOM      4  C   UNL     1      -6.841  -0.811   1.482  0.00  0.00    -0.065 C 
ATOM      5  C   UNL     1      -7.221   0.496   0.785  0.00  0.00    -0.009 C 
ATOM      6  C   UNL     1      -8.739   0.681   0.840  0.00  0.00    -0.009 C 
ATOM      7  C   UNL     1      -9.421  -0.492   0.132  0.00  0.00    +0.007 C 
ATOM      8  C   UNL     1      -9.041  -1.800   0.830  0.00  0.00    -0.009 C 
ATOM      9  C   UNL     1      -7.523  -1.984   0.775  0.00  0.00    -0.009 C 
ATOM     10  C   UNL     1      -9.496  -1.750   2.289  0.00  0.00    +0.038 C 
ATOM     11  C   UNL     1      -8.814  -0.578   2.997  0.00  0.00    +0.065 C 
ATOM     12  C   UNL     1      -9.194   0.730   2.300  0.00  0.00    +0.038 C 
ATOM     13  C   UNL     1      -7.296  -0.762   2.942  0.00  0.00    +0.022 C 
BRANCH  11  14
ATOM     14  O   UNL     1      -9.239  -0.532   4.361  0.00  0.00    -0.389 OA
ATOM     15  H   UNL     1      -8.852   0.250   5.031  0.00  0.00    +0.210 HD
ENDBRANCH  11  14
ENDBRANCH   1   4
BRANCH   1  16
ATOM     16  C   UNL     1      -4.909  -1.040   0.040  0.00  0.00    -0.006 C 
BRANCH  16  20
ATOM     17  C   UNL     1      -1.266  -0.763   0.010  0.00  0.00    +0.135 A 
ATOM     18  C   UNL     1      -1.386  -2.117  -0.002  0.00  0.00    +0.050 A 
ATOM     19  C   UNL     1      -2.766  -2.403   0.015  0.00  0.00    +0.043 A 
ATOM     20  C   UNL     1      -3.413  -1.222   0.026  0.00  0.00    +0.089 A 
ATOM     21  O   UNL     1      -2.504  -0.233   0.023  0.00  0.00    -0.462 OA
BRANCH  17  27
ATOM     22  C   UNL     1      -0.017   1.391   0.010  0.00  0.00    +0.014 A 
ATOM     23  C   UNL     1       1.170   2.095   0.002  0.00  0.00    +0.040 A 
ATOM     24  C   UNL     1       2.379   1.420  -0.013  0.00  0.00    +0.142 A 
ATOM     25  C   UNL     1       2.404   0.033  -0.021  0.00  0.00    +0.077 A 
ATOM     26  C   UNL     1       1.223  -0.681  -0.013  0.00  0.00    +0.034 A 
ATOM     27  C   UNL     1       0.002  -0.004   0.002  0.00  0.00    +0.019 A 
ATOM     28 CL   UNL     1       3.924  -0.806  -0.039  0.00  0.00    -0.081 Cl
ATOM     29  F   UNL     1       3.538   2.114  -0.020  0.00  0.00    -0.204 F 
ENDBRANCH  17  27
ENDBRANCH  16  20
ENDBRANCH   1  16
TORSDOF 5
