REMARK  Name = ZINC47797255
REMARK  6 active torsions:
REMARK  status: ('A' for Active; 'I' for Inactive)
REMARK    1  A    between atoms: C_1  and  C_2
REMARK    2  A    between atoms: C_5  and  C_7
REMARK    3  A    between atoms: C_7  and  N_8
REMARK    4  A    between atoms: N_11  and  C_12
REMARK    5  A    between atoms: C_12  and  C_13
REMARK    6  A    between atoms: N_15  and  C_16
REMARK                            x       y       z     vdW  Elec       q    Type
REMARK                         _______ _______ _______ _____ _____    ______ ____
ROOT
ATOM      1  C   UNL     1       4.287  -5.261   3.119  0.00  0.00    +0.202 C 
ENDROOT
BRANCH   1   5
ATOM      2  N   UNL     1       2.112  -2.483   2.081  0.00  0.00    -0.299 N 
ATOM      3  C   UNL     1       2.843  -3.615   2.048  0.00  0.00    +0.300 C 
ATOM      4  O   UNL     1       2.917  -4.262   1.021  0.00  0.00    -0.253 OA
ATOM      5  N   UNL     1       3.492  -4.030   3.154  0.00  0.00    -0.291 N 
ATOM      6  H   UNL     1       2.053  -1.968   2.901  0.00  0.00    +0.150 HD
ATOM      7  H   UNL     1       3.433  -3.515   3.974  0.00  0.00    +0.151 HD
BRANCH   2   8
ATOM      8  C   UNL     1       1.407  -2.032   0.879  0.00  0.00    +0.109 C 
BRANCH   8  12
ATOM      9  C   UNL     1      -0.074   1.495   0.025  0.00  0.00    +0.008 C 
ATOM     10  C   UNL     1      -0.049  -0.035   0.021  0.00  0.00    -0.009 C 
ATOM     11  C   UNL     1      -0.869  -0.758   1.091  0.00  0.00    +0.009 C 
ATOM     12  C   UNL     1       0.659  -0.733   1.184  0.00  0.00    +0.009 C 
ENDBRANCH   8  12
ENDBRANCH   2   8
ENDBRANCH   1   5
BRANCH   1  13
ATOM     13  C   UNL     1       4.904  -5.499   4.472  0.00  0.00    +0.234 C 
ATOM     14  O   UNL     1       4.701  -4.718   5.378  0.00  0.00    -0.274 OA
ATOM     15  N   UNL     1       5.683  -6.580   4.677  0.00  0.00    -0.283 N 
ATOM     16  H   UNL     1       5.793  -7.239   3.973  0.00  0.00    +0.155 HD
BRANCH  15  17
ATOM     17  C   UNL     1       6.333  -6.752   5.905  0.00  0.00    +0.047 A 
ATOM     18  C   UNL     1       5.720  -6.338   7.080  0.00  0.00    +0.024 A 
ATOM     19  C   UNL     1       6.364  -6.510   8.290  0.00  0.00    +0.002 A 
ATOM     20  C   UNL     1       7.617  -7.093   8.332  0.00  0.00    +0.001 A 
ATOM     21  C   UNL     1       8.230  -7.507   7.164  0.00  0.00    +0.017 A 
ATOM     22  C   UNL     1       7.589  -7.344   5.950  0.00  0.00    +0.039 A 
ATOM     23 BR   UNL     1       8.425  -7.916   4.354  0.00  0.00    -0.048 Br
ENDBRANCH  15  17
ENDBRANCH   1  13
TORSDOF 5
