REMARK  Name = ZINC02635229
REMARK  7 active torsions:
REMARK  status: ('A' for Active; 'I' for Inactive)
REMARK    1  A    between atoms: C_1  and  C_2
REMARK    2  A    between atoms: C_3  and  C_33
REMARK    3  A    between atoms: N_9  and  C_27
REMARK    4  A    between atoms: C_10  and  S_12
REMARK    5  A    between atoms: S_12  and  C_13
REMARK    6  A    between atoms: C_13  and  C_14
REMARK    7  A    between atoms: C_24  and  C_26
REMARK                            x       y       z     vdW  Elec       q    Type
REMARK                         _______ _______ _______ _____ _____    ______ ____
ROOT
ATOM      1  C   UNL     1       3.342  -4.240  -9.949  0.00  0.00    +0.045 C 
ATOM      2  C   UNL     1       3.730  -3.770  -8.571  0.00  0.00    -0.026 A 
ATOM      3  C   UNL     1       4.760  -4.337  -7.925  0.00  0.00    -0.008 A 
ATOM      4  S   UNL     1       4.815  -3.455  -6.377  0.00  0.00    -0.073 S 
ATOM      5  C   UNL     1       3.452  -2.349  -6.642  0.00  0.00    +0.117 A 
ATOM      6  C   UNL     1       2.993  -2.697  -7.926  0.00  0.00    +0.076 A 
ATOM      7  C   UNL     1       1.873  -1.950  -8.410  0.00  0.00    +0.268 A 
ATOM      8  O   UNL     1       1.406  -2.182  -9.512  0.00  0.00    -0.267 OA
ATOM      9  N   UNL     1       1.341  -0.988  -7.633  0.00  0.00    -0.255 N 
ATOM     10  C   UNL     1       1.851  -0.716  -6.395  0.00  0.00    +0.178 A 
ATOM     11  N   UNL     1       2.885  -1.385  -5.927  0.00  0.00    -0.215 NA
ATOM     12  C   UNL     1       5.656  -5.454  -8.396  0.00  0.00    +0.052 C 
ENDROOT
BRANCH   9  13
ATOM     13  C   UNL     1       0.244  -0.254  -8.103  0.00  0.00    +0.052 A 
ATOM     14  C   UNL     1      -1.048  -0.696  -7.853  0.00  0.00    +0.026 A 
ATOM     15  C   UNL     1      -2.127   0.033  -8.312  0.00  0.00    +0.002 A 
ATOM     16  C   UNL     1      -1.921   1.197  -9.030  0.00  0.00    +0.000 A 
ATOM     17  C   UNL     1      -0.636   1.638  -9.285  0.00  0.00    +0.002 A 
ATOM     18  C   UNL     1       0.447   0.915  -8.823  0.00  0.00    +0.026 A 
ENDBRANCH   9  13
BRANCH  10  19
ATOM     19  S   UNL     1       1.121   0.553  -5.414  0.00  0.00    -0.078 S 
BRANCH  19  20
ATOM     20  C   UNL     1       2.174   0.460  -3.945  0.00  0.00    +0.173 C 
BRANCH  20  21
ATOM     21  C   UNL     1       1.722   1.486  -2.937  0.00  0.00    +0.230 C 
ATOM     22  O   UNL     1       0.781   2.209  -3.188  0.00  0.00    -0.274 OA
ATOM     23  N   UNL     1       2.364   1.600  -1.758  0.00  0.00    -0.267 N 
ATOM     24  C   UNL     1       3.459   0.824  -1.359  0.00  0.00    +0.040 A 
ATOM     25  C   UNL     1       4.116  -0.199  -2.046  0.00  0.00    +0.024 A 
ATOM     26  C   UNL     1       5.186  -0.848  -1.470  0.00  0.00    +0.002 A 
ATOM     27  C   UNL     1       5.619  -0.491  -0.206  0.00  0.00    +0.000 A 
ATOM     28  C   UNL     1       4.974   0.521   0.481  0.00  0.00    +0.005 A 
ATOM     29  C   UNL     1       3.900   1.175  -0.093  0.00  0.00    -0.024 A 
ATOM     30  C   UNL     1       3.029   2.296   0.427  0.00  0.00    +0.059 C 
ATOM     31  C   UNL     1       2.019   2.557  -0.703  0.00  0.00    +0.083 C 
ATOM     32  C   UNL     1       2.158   3.990  -1.219  0.00  0.00    +0.029 C 
ENDBRANCH  20  21
ENDBRANCH  19  20
ENDBRANCH  10  19
TORSDOF 4
