REMARK  Name = ZINC38975085
REMARK  4 active torsions:
REMARK  status: ('A' for Active; 'I' for Inactive)
REMARK    1  A    between atoms: C_3  and  C_8
REMARK    2  A    between atoms: N_14  and  N_15
REMARK    3  A    between atoms: C_16  and  C_17
REMARK    4  A    between atoms: C_20  and  O_23
REMARK                            x       y       z     vdW  Elec       q    Type
REMARK                         _______ _______ _______ _____ _____    ______ ____
ROOT
ATOM      1  C   UNL     1       3.684   2.191  -0.031  0.00  0.00    +0.264 C 
ATOM      2  N   UNL     1       3.540   3.436   0.739  0.00  0.00    -0.189 NA
ATOM      3  N   UNL     1       4.325   3.391   1.690  0.00  0.00    -0.219 N 
ATOM      4  C   UNL     1       5.057   2.246   1.733  0.00  0.00    +0.174 C 
ATOM      5  S   UNL     1       6.231   1.876   2.923  0.00  0.00    -0.015 S 
ATOM      6  N   UNL     1       4.724   1.440   0.696  0.00  0.00    -0.172 N 
ATOM      7  H   UNL     1       4.412   4.104   2.343  0.00  0.00    +0.176 HD
ENDROOT
BRANCH   1  10
ATOM      8  C   UNL     1      -0.007   1.398  -0.051  0.00  0.00    +0.002 A 
ATOM      9  C   UNL     1       1.183   2.102  -0.040  0.00  0.00    +0.007 A 
ATOM     10  C   UNL     1       2.387   1.424  -0.043  0.00  0.00    -0.001 A 
ATOM     11  C   UNL     1       2.403   0.041  -0.057  0.00  0.00    +0.027 A 
ATOM     12  C   UNL     1       1.212  -0.663  -0.068  0.00  0.00    +0.041 A 
ATOM     13  C   UNL     1       0.007   0.016  -0.065  0.00  0.00    +0.020 A 
ATOM     14 CL   UNL     1       1.231  -2.399  -0.087  0.00  0.00    -0.084 Cl
ENDBRANCH   1  10
BRANCH   6  15
ATOM     15  N   UNL     1       5.247   0.178   0.384  0.00  0.00    -0.183 NA
ATOM     16  C   UNL     1       6.244  -0.298   1.067  0.00  0.00    +0.138 C 
BRANCH  16  17
ATOM     17  C   UNL     1       6.865  -1.574   0.669  0.00  0.00    -0.005 A 
ATOM     18  C   UNL     1       6.387  -2.270  -0.444  0.00  0.00    +0.013 A 
ATOM     19  C   UNL     1       6.972  -3.463  -0.812  0.00  0.00    +0.046 A 
ATOM     20  C   UNL     1       8.034  -3.973  -0.077  0.00  0.00    +0.117 A 
ATOM     21  C   UNL     1       8.513  -3.285   1.031  0.00  0.00    +0.046 A 
ATOM     22  C   UNL     1       7.939  -2.089   1.402  0.00  0.00    +0.013 A 
BRANCH  20  23
ATOM     23  O   UNL     1       8.607  -5.149  -0.443  0.00  0.00    -0.507 OA
ATOM     24  H   UNL     1       9.341  -5.053  -1.066  0.00  0.00    +0.292 HD
ENDBRANCH  20  23
ENDBRANCH  16  17
ENDBRANCH   6  15
TORSDOF 4
