REMARK  Name = ZINC61695874
REMARK  8 active torsions:
REMARK  status: ('A' for Active; 'I' for Inactive)
REMARK    1  A    between atoms: C_1  and  C_2
REMARK    2  A    between atoms: C_2  and  C_4
REMARK    3  A    between atoms: C_2  and  N_18
REMARK    4  A    between atoms: C_7  and  N_11
REMARK    5  A    between atoms: N_11  and  C_12
REMARK    6  A    between atoms: N_11  and  C_13
REMARK    7  A    between atoms: C_13  and  C_14
REMARK    8  A    between atoms: N_18  and  C_19
REMARK                            x       y       z     vdW  Elec       q    Type
REMARK                         _______ _______ _______ _____ _____    ______ ____
ROOT
ATOM      1  C   UNL     1      -1.412  -0.526   0.013  0.00  0.00    -0.061 A 
ATOM      2  C   UNL     1      -2.140  -0.568  -1.162  0.00  0.00    +0.004 A 
ATOM      3  C   UNL     1      -3.436  -1.046  -1.156  0.00  0.00    +0.024 A 
ATOM      4  C   UNL     1      -4.008  -1.484   0.031  0.00  0.00    +0.044 A 
ATOM      5  C   UNL     1      -3.273  -1.440   1.210  0.00  0.00    +0.039 A 
ATOM      6  C   UNL     1      -1.976  -0.966   1.196  0.00  0.00    +0.019 A 
ATOM      7 BR   UNL     1      -4.047  -2.035   2.830  0.00  0.00    -0.048 Br
ENDROOT
BRANCH   1   9
ATOM      8  C   UNL     1      -0.019   1.526   0.010  0.00  0.00    -0.009 C 
ATOM      9  C   UNL     1       0.002  -0.004   0.002  0.00  0.00    -0.044 C 
BRANCH   9  10
ATOM     10  N   UNL     1       0.690  -0.478  -1.207  0.00  0.00    +0.382 N 
ATOM     11  C   UNL     1       2.100  -0.070  -1.159  0.00  0.00    -0.100 C 
ATOM     12  H   UNL     1       0.632  -1.484  -1.254  0.00  0.00    -0.085 HD
ATOM     13  H   UNL     1       0.251  -0.077  -2.022  0.00  0.00    -0.085 HD
ENDBRANCH   9  10
ENDBRANCH   1   9
BRANCH   4  14
ATOM     14  N   UNL     1      -5.319  -1.968   0.041  0.00  0.00    -0.324 N 
ATOM     15  C   UNL     1      -5.575  -3.393  -0.180  0.00  0.00    +0.129 C 
BRANCH  14  16
ATOM     16  C   UNL     1      -6.437  -1.049   0.271  0.00  0.00    +0.218 C 
BRANCH  16  17
ATOM     17  C   UNL     1      -6.923  -0.493  -1.069  0.00  0.00    +0.405 C 
ATOM     18  F   UNL     1      -7.346  -1.547  -1.886  0.00  0.00    -0.169 F 
ATOM     19  F   UNL     1      -7.991   0.384  -0.849  0.00  0.00    -0.169 F 
ATOM     20  F   UNL     1      -5.878   0.193  -1.696  0.00  0.00    -0.169 F 
ENDBRANCH  16  17
ENDBRANCH  14  16
ENDBRANCH   4  14
TORSDOF 5
