REMARK  Name = ZINC61272234
REMARK  6 active torsions:
REMARK  status: ('A' for Active; 'I' for Inactive)
REMARK    1  A    between atoms: C_1  and  C_2
REMARK    2  A    between atoms: C_2  and  N_3
REMARK    3  A    between atoms: N_3  and  C_4
REMARK    4  A    between atoms: C_4  and  C_6
REMARK    5  A    between atoms: C_4  and  C_7
REMARK    6  A    between atoms: C_7  and  C_8
REMARK                            x       y       z     vdW  Elec       q    Type
REMARK                         _______ _______ _______ _____ _____    ______ ____
ROOT
ATOM      1  C   UNL     1       3.125  -1.901  -2.122  0.00  0.00    +0.214 C 
ATOM      2  O   UNL     1       3.408  -1.112  -1.245  0.00  0.00    -0.276 OA
ATOM      3  N   UNL     1       4.040  -2.228  -3.056  0.00  0.00    -0.299 N 
ATOM      4  C   UNL     1       3.709  -3.178  -4.127  0.00  0.00    +0.126 C 
ATOM      5  C   UNL     1       3.986  -2.508  -5.479  0.00  0.00    +0.125 C 
ATOM      6  N   UNL     1       5.332  -1.919  -5.445  0.00  0.00    -0.312 N 
ATOM      7  C   UNL     1       5.663  -0.969  -4.373  0.00  0.00    +0.125 C 
ATOM      8  C   UNL     1       5.385  -1.635  -3.025  0.00  0.00    +0.126 C 
ATOM      9  C   UNL     1       6.276  -2.255  -6.409  0.00  0.00    +0.121 A 
ATOM     10  C   UNL     1       5.886  -2.973  -7.535  0.00  0.00    +0.045 A 
ATOM     11  C   UNL     1       6.834  -3.301  -8.486  0.00  0.00    +0.020 A 
ATOM     12  C   UNL     1       8.148  -2.899  -8.278  0.00  0.00    +0.036 A 
ATOM     13  C   UNL     1       8.465  -2.189  -7.137  0.00  0.00    +0.128 A 
ATOM     14  N   UNL     1       7.537  -1.885  -6.249  0.00  0.00    -0.239 NA
ATOM     15 BR   UNL     1       9.488  -3.320  -9.544  0.00  0.00    -0.049 Br
ENDROOT
BRANCH   1  16
ATOM     16  C   UNL     1       1.751  -2.517  -2.166  0.00  0.00    +0.080 C 
BRANCH  16  17
ATOM     17  C   UNL     1       0.914  -1.982  -1.002  0.00  0.00    -0.066 C 
ATOM     18  C   UNL     1      -0.437  -2.700  -0.973  0.00  0.00    -0.013 C 
BRANCH  17  19
ATOM     19  N   UNL     1       0.699  -0.540  -1.175  0.00  0.00    +0.381 N 
ATOM     20  H   UNL     1       0.141  -0.380  -2.001  0.00  0.00    -0.086 HD
ATOM     21  H   UNL     1       1.590  -0.077  -1.277  0.00  0.00    -0.086 HD
BRANCH  19  23
ATOM     22  C   UNL     1      -0.224   1.499  -0.181  0.00  0.00    -0.017 C 
ATOM     23  C   UNL     1       0.000  -0.004   0.000  0.00  0.00    -0.086 C 
ENDBRANCH  19  23
ENDBRANCH  17  19
ENDBRANCH  16  17
ENDBRANCH   1  16
TORSDOF 4
