REMARK  Name = ZINC21808488
REMARK  9 active torsions:
REMARK  status: ('A' for Active; 'I' for Inactive)
REMARK    1  A    between atoms: C_1  and  C_2
REMARK    2  A    between atoms: C_7  and  C_36
REMARK    3  A    between atoms: N_9  and  C_10
REMARK    4  A    between atoms: C_10  and  C_11
REMARK    5  A    between atoms: C_11  and  C_12
REMARK    6  A    between atoms: C_12  and  N_13
REMARK    7  A    between atoms: C_22  and  C_23
REMARK    8  A    between atoms: C_22  and  C_24
REMARK    9  A    between atoms: N_26  and  C_27
REMARK                            x       y       z     vdW  Elec       q    Type
REMARK                         _______ _______ _______ _____ _____    ______ ____
ROOT
ATOM      1  N   UNL     1      -3.510   2.075   0.093  0.00  0.00    -0.281 N 
ATOM      2  C   UNL     1      -2.770   0.966   0.330  0.00  0.00    +0.264 C 
ATOM      3  O   UNL     1      -3.281  -0.130   0.471  0.00  0.00    -0.268 OA
ATOM      4  C   UNL     1      -1.316   1.158   0.403  0.00  0.00    +0.106 A 
ATOM      5  C   UNL     1      -0.301   0.250   0.451  0.00  0.00    +0.048 A 
ATOM      6  C   UNL     1       0.887   0.968   0.529  0.00  0.00    +0.038 A 
ATOM      7  C   UNL     1       0.606   2.342   0.538  0.00  0.00    +0.057 A 
ATOM      8  N   UNL     1      -0.772   2.437   0.470  0.00  0.00    -0.333 N 
ATOM      9  C   UNL     1      -1.613   3.637   0.468  0.00  0.00    +0.157 C 
ATOM     10  C   UNL     1      -2.902   3.341  -0.300  0.00  0.00    +0.128 C 
ATOM     11  C   UNL     1      -3.902   4.469  -0.041  0.00  0.00    +0.043 C 
ATOM     12  C   UNL     1       1.721   3.189   0.611  0.00  0.00    +0.034 A 
ATOM     13  C   UNL     1       2.965   2.670   0.669  0.00  0.00    +0.048 A 
ATOM     14  S   UNL     1       2.658   0.912   0.624  0.00  0.00    -0.095 S 
ENDROOT
BRANCH  10  15
ATOM     15  C   UNL     1      -2.591   3.295  -1.774  0.00  0.00    +0.238 C 
ATOM     16  O   UNL     1      -2.747   4.285  -2.458  0.00  0.00    -0.273 OA
ATOM     17  N   UNL     1      -2.141   2.154  -2.333  0.00  0.00    -0.311 N 
ATOM     18  H   UNL     1      -2.000   1.256  -1.713  0.00  0.00    +0.149 HD
BRANCH  17  19
ATOM     19  C   UNL     1      -1.839   2.110  -3.766  0.00  0.00    +0.073 C 
ATOM     20  C   UNL     1      -3.120   1.814  -4.548  0.00  0.00    +0.022 C 
ATOM     21  C   UNL     1      -2.805   1.768  -6.044  0.00  0.00    +0.002 C 
ATOM     22  C   UNL     1      -1.776   0.667  -6.315  0.00  0.00    +0.000 C 
ATOM     23  C   UNL     1      -0.495   0.963  -5.533  0.00  0.00    +0.002 C 
ATOM     24  C   UNL     1      -0.810   1.010  -4.036  0.00  0.00    +0.022 C 
ENDBRANCH  17  19
ENDBRANCH  10  15
BRANCH   1  25
ATOM     25  C   UNL     1      -4.966   2.000   0.236  0.00  0.00    +0.107 C 
BRANCH  25  26
ATOM     26  C   UNL     1      -5.590   1.600  -1.103  0.00  0.00    +0.000 C 
BRANCH  26  27
ATOM     27  C   UNL     1      -7.111   1.522  -0.954  0.00  0.00    -0.077 C 
BRANCH  27  34
ATOM     28  C   UNL     1      -7.895   3.600  -2.682  0.00  0.00    -0.013 C 
ATOM     29  C   UNL     1      -7.441   2.249  -3.239  0.00  0.00    -0.071 C 
ATOM     30  C   UNL     1      -8.203   1.948  -4.532  0.00  0.00    -0.016 C 
ATOM     31  C   UNL     1      -7.760   0.587  -5.075  0.00  0.00    -0.003 C 
ATOM     32  C   UNL     1      -8.011  -0.484  -4.010  0.00  0.00    -0.016 C 
ATOM     33  C   UNL     1      -7.254  -0.114  -2.732  0.00  0.00    -0.071 C 
ATOM     34  N   UNL     1      -7.714   1.196  -2.252  0.00  0.00    +0.383 N 
ATOM     35  C   UNL     1      -7.518  -1.171  -1.659  0.00  0.00    -0.013 C 
ATOM     36  H   UNL     1      -8.804   1.139  -2.116  0.00  0.00    -0.081 HD
ENDBRANCH  27  34
ENDBRANCH  26  27
ENDBRANCH  25  26
ENDBRANCH   1  25
TORSDOF 6
