REMARK  Name = ZINC18182331
REMARK  13 active torsions:
REMARK  status: ('A' for Active; 'I' for Inactive)
REMARK    1  A    between atoms: C_1  and  C_2
REMARK    2  A    between atoms: C_2  and  S_3
REMARK    3  A    between atoms: S_3  and  C_4
REMARK    4  A    between atoms: C_4  and  C_5
REMARK    5  A    between atoms: C_5  and  O_6
REMARK    6  A    between atoms: O_6  and  C_7
REMARK    7  A    between atoms: C_7  and  C_9
REMARK    8  A    between atoms: C_10  and  C_37
REMARK    9  A    between atoms: C_14  and  C_16
REMARK   10  A    between atoms: C_20  and  O_22
REMARK   11  A    between atoms: C_26  and  C_29
REMARK   12  A    between atoms: C_32  and  O_35
REMARK   13  A    between atoms: O_35  and  C_36
REMARK                            x       y       z     vdW  Elec       q    Type
REMARK                         _______ _______ _______ _____ _____    ______ ____
ROOT
ATOM      1  C   UNL     1       2.127  -6.583  -3.343  0.00  0.00    +0.065 C 
ATOM      2  C   UNL     1       2.478  -7.271  -4.443  0.00  0.00    +0.016 C 
ATOM      3  N   UNL     1       2.334  -8.630  -4.484  0.00  0.00    -0.321 N 
ATOM      4  C   UNL     1       1.491  -9.269  -3.614  0.00  0.00    +0.016 C 
ATOM      5  C   UNL     1       1.099  -8.665  -2.472  0.00  0.00    +0.024 C 
ATOM      6  C   UNL     1       1.584  -7.278  -2.129  0.00  0.00    +0.092 C 
ATOM      7  C   UNL     1       0.237  -9.311  -1.569  0.00  0.00    +0.162 C 
ATOM      8  O   UNL     1      -0.111  -8.733  -0.558  0.00  0.00    -0.292 OA
ATOM      9  C   UNL     1      -0.264 -10.705  -1.832  0.00  0.00    +0.088 C 
ATOM     10  C   UNL     1       0.768 -11.454  -2.681  0.00  0.00    +0.032 C 
ATOM     11  C   UNL     1       1.012 -10.656  -3.964  0.00  0.00    +0.059 C 
ATOM     12  C   UNL     1       3.032  -6.541  -5.638  0.00  0.00    +0.061 C 
ATOM     13  H   UNL     1       2.833  -9.147  -5.136  0.00  0.00    +0.152 HD
ENDROOT
BRANCH   6  14
ATOM     14  C   UNL     1       2.669  -7.372  -1.087  0.00  0.00    -0.032 A 
ATOM     15  C   UNL     1       3.844  -8.044  -1.372  0.00  0.00    +0.005 A 
ATOM     16  C   UNL     1       4.841  -8.132  -0.418  0.00  0.00    +0.004 A 
ATOM     17  C   UNL     1       4.666  -7.550   0.822  0.00  0.00    +0.045 A 
ATOM     18  C   UNL     1       3.489  -6.875   1.110  0.00  0.00    +0.117 A 
ATOM     19  C   UNL     1       2.492  -6.782   0.149  0.00  0.00    +0.050 A 
BRANCH  18  20
ATOM     20  O   UNL     1       3.314  -6.301   2.330  0.00  0.00    -0.507 OA
ATOM     21  H   UNL     1       3.619  -5.385   2.380  0.00  0.00    +0.292 HD
ENDBRANCH  18  20
ENDBRANCH   6  14
BRANCH  10  22
ATOM     22  C   UNL     1       0.243 -12.825  -3.024  0.00  0.00    -0.043 A 
ATOM     23  C   UNL     1      -0.929 -12.954  -3.745  0.00  0.00    +0.007 A 
ATOM     24  C   UNL     1      -1.413 -14.209  -4.060  0.00  0.00    +0.046 A 
ATOM     25  C   UNL     1      -0.720 -15.340  -3.654  0.00  0.00    +0.120 A 
ATOM     26  C   UNL     1       0.457 -15.208  -2.931  0.00  0.00    +0.046 A 
ATOM     27  C   UNL     1       0.939 -13.950  -2.623  0.00  0.00    +0.007 A 
BRANCH  25  28
ATOM     28  O   UNL     1      -1.194 -16.576  -3.962  0.00  0.00    -0.495 OA
ATOM     29  C   UNL     1      -0.429 -17.695  -3.511  0.00  0.00    +0.277 C 
ENDBRANCH  25  28
ENDBRANCH  10  22
BRANCH   1  30
ATOM     30  C   UNL     1       2.277  -5.176  -3.328  0.00  0.00    +0.338 C 
ATOM     31  O   UNL     1       1.299  -4.459  -3.421  0.00  0.00    -0.245 OA
BRANCH  30  32
ATOM     32  O   UNL     1       3.506  -4.630  -3.211  0.00  0.00    -0.460 OA
BRANCH  32  33
ATOM     33  C   UNL     1       3.583  -3.203  -3.203  0.00  0.00    +0.243 C 
BRANCH  33  34
ATOM     34  C   UNL     1       5.045  -2.773  -3.063  0.00  0.00    +0.110 C 
BRANCH  34  35
ATOM     35  S   UNL     1       5.143  -0.962  -3.053  0.00  0.00    -0.158 S 
BRANCH  35  37
ATOM     36  C   UNL     1       7.145   0.893  -2.861  0.00  0.00    +0.015 C 
ATOM     37  C   UNL     1       6.917  -0.620  -2.883  0.00  0.00    +0.066 C 
ENDBRANCH  35  37
ENDBRANCH  34  35
ENDBRANCH  33  34
ENDBRANCH  32  33
ENDBRANCH  30  32
ENDBRANCH   1  30
TORSDOF 10
