REMARK  Name = ZINC09691423
REMARK  9 active torsions:
REMARK  status: ('A' for Active; 'I' for Inactive)
REMARK    1  A    between atoms: C_1  and  C_2
REMARK    2  A    between atoms: C_2  and  C_25
REMARK    3  A    between atoms: N_5  and  C_9
REMARK    4  A    between atoms: C_6  and  O_8
REMARK    5  A    between atoms: C_9  and  C_10
REMARK    6  A    between atoms: C_10  and  C_12
REMARK    7  A    between atoms: C_14  and  C_18
REMARK    8  A    between atoms: C_30  and  O_35
REMARK    9  A    between atoms: O_35  and  C_36
REMARK                            x       y       z     vdW  Elec       q    Type
REMARK                         _______ _______ _______ _____ _____    ______ ____
ROOT
ATOM      1  C   UNL     1      -0.019   1.526   0.010  0.00  0.00    +0.052 C 
ATOM      2  C   UNL     1       0.002  -0.004   0.002  0.00  0.00    +0.165 C 
ATOM      3  C   UNL     1      -1.404  -0.556   0.133  0.00  0.00    +0.255 C 
ATOM      4  O   UNL     1      -2.334  -0.393  -0.627  0.00  0.00    -0.272 OA
ATOM      5  N   UNL     1      -1.395  -1.269   1.279  0.00  0.00    -0.216 N 
ATOM      6  C   UNL     1      -0.157  -1.223   1.867  0.00  0.00    +0.286 C 
ATOM      7  N   UNL     1       0.695  -0.518   1.194  0.00  0.00    -0.216 NA
ENDROOT
BRANCH   2   8
ATOM      8  C   UNL     1       0.660  -0.516  -1.254  0.00  0.00    -0.011 A 
ATOM      9  C   UNL     1      -0.118  -0.769  -2.382  0.00  0.00    +0.007 A 
ATOM     10  C   UNL     1       0.445  -1.232  -3.531  0.00  0.00    +0.009 A 
ATOM     11  C   UNL     1       1.831  -1.458  -3.585  0.00  0.00    -0.014 A 
ATOM     12  C   UNL     1       2.446  -1.934  -4.754  0.00  0.00    +0.054 A 
ATOM     13  C   UNL     1       3.796  -2.142  -4.770  0.00  0.00    +0.121 A 
ATOM     14  C   UNL     1       4.574  -1.888  -3.636  0.00  0.00    +0.046 A 
ATOM     15  C   UNL     1       4.009  -1.427  -2.489  0.00  0.00    +0.012 A 
ATOM     16  C   UNL     1       2.622  -1.200  -2.438  0.00  0.00    -0.017 A 
ATOM     17  C   UNL     1       2.006  -0.719  -1.270  0.00  0.00    +0.015 A 
BRANCH  13  18
ATOM     18  O   UNL     1       4.390  -2.603  -5.902  0.00  0.00    -0.495 OA
ATOM     19  C   UNL     1       5.805  -2.801  -5.857  0.00  0.00    +0.277 C 
ENDBRANCH  13  18
ENDBRANCH   2   8
BRANCH   6  20
ATOM     20  O   UNL     1       0.142  -1.848   3.027  0.00  0.00    -0.481 OA
ATOM     21  H   UNL     1       1.056  -1.724   3.317  0.00  0.00    +0.295 HD
ENDBRANCH   6  20
BRANCH   5  22
ATOM     22  C   UNL     1      -2.549  -1.992   1.819  0.00  0.00    +0.197 C 
BRANCH  22  23
ATOM     23  C   UNL     1      -2.557  -3.400   1.280  0.00  0.00    +0.182 C 
ATOM     24  O   UNL     1      -1.685  -3.763   0.519  0.00  0.00    -0.290 OA
BRANCH  23  25
ATOM     25  C   UNL     1      -3.619  -4.330   1.675  0.00  0.00    +0.037 A 
ATOM     26  C   UNL     1      -3.758  -5.676   1.260  0.00  0.00    +0.043 A 
ATOM     27  C   UNL     1      -4.877  -6.165   1.863  0.00  0.00    +0.103 A 
ATOM     28  N   UNL     1      -5.428  -5.165   2.635  0.00  0.00    -0.356 N 
ATOM     29  H   UNL     1      -6.232  -5.248   3.171  0.00  0.00    +0.165 HD
ATOM     30  C   UNL     1      -4.675  -4.060   2.532  0.00  0.00    +0.094 A 
BRANCH  27  31
ATOM     31  C   UNL     1      -5.406  -7.527   1.717  0.00  0.00    +0.263 C 
ATOM     32  O   UNL     1      -4.832  -8.330   1.005  0.00  0.00    -0.268 OA
ATOM     33  N   UNL     1      -6.528  -7.889   2.372  0.00  0.00    -0.296 N 
ATOM     34  C   UNL     1      -7.321  -7.022   3.255  0.00  0.00    +0.108 C 
ATOM     35  C   UNL     1      -8.492  -7.868   3.796  0.00  0.00    +0.020 C 
ATOM     36  C   UNL     1      -7.974  -9.322   3.635  0.00  0.00    +0.020 C 
ATOM     37  C   UNL     1      -7.165  -9.216   2.315  0.00  0.00    +0.108 C 
ENDBRANCH  27  31
ENDBRANCH  23  25
ENDBRANCH  22  23
ENDBRANCH   5  22
TORSDOF 7
