REMARK  Name = ZINC20710120
REMARK  5 active torsions:
REMARK  status: ('A' for Active; 'I' for Inactive)
REMARK    1  A    between atoms: C_1  and  C_2
REMARK    2  A    between atoms: C_8  and  C_10
REMARK    3  A    between atoms: C_23  and  C_26
REMARK    4  A    between atoms: C_28  and  N_33
REMARK    5  A    between atoms: C_31  and  O_32
REMARK                            x       y       z     vdW  Elec       q    Type
REMARK                         _______ _______ _______ _____ _____    ______ ____
ROOT
ATOM      1  C   UNL     1       3.836  -0.745  -0.915  0.00  0.00    +0.037 A 
ATOM      2  C   UNL     1       3.083   0.385  -1.249  0.00  0.00    +0.015 A 
ATOM      3  C   UNL     1       1.710   0.333  -1.169  0.00  0.00    +0.024 A 
ATOM      4  C   UNL     1       1.075  -0.838  -0.762  0.00  0.00    +0.031 A 
ATOM      5  C   UNL     1       1.815  -1.966  -0.429  0.00  0.00    -0.019 A 
ATOM      6  C   UNL     1       3.195  -1.914  -0.506  0.00  0.00    +0.019 A 
ATOM      7  C   UNL     1       1.171  -3.244   0.010  0.00  0.00    +0.049 C 
ATOM      8  C   UNL     1       1.319  -3.452   1.499  0.00  0.00    -0.023 C 
ATOM      9  C   UNL     1       0.241  -4.015   1.987  0.00  0.00    -0.030 C 
ATOM     10  C   UNL     1      -0.774  -4.264   0.888  0.00  0.00    +0.033 C 
ATOM     11  C   UNL     1      -0.352  -3.261  -0.226  0.00  0.00    +0.029 C 
ATOM     12  C   UNL     1      -0.952  -1.899   0.134  0.00  0.00    +0.108 C 
ATOM     13  N   UNL     1      -0.316  -0.866  -0.689  0.00  0.00    -0.336 N 
ATOM     14  H   UNL     1      -0.935  -0.136  -1.231  0.00  0.00    +0.147 HD
ENDROOT
BRANCH   1  22
ATOM     15  C   UNL     1       7.831   1.956   3.041  0.00  0.00    +0.007 C 
ATOM     16  C   UNL     1       7.308   1.759   1.617  0.00  0.00    -0.011 C 
ATOM     17  C   UNL     1       7.951   0.512   1.006  0.00  0.00    +0.022 C 
ATOM     18  C   UNL     1       7.452   0.338  -0.432  0.00  0.00    +0.108 C 
ATOM     19  N   UNL     1       5.983   0.317  -0.423  0.00  0.00    -0.298 N 
ATOM     20  C   UNL     1       5.264   1.427   0.215  0.00  0.00    +0.108 C 
ATOM     21  C   UNL     1       5.788   1.587   1.651  0.00  0.00    +0.022 C 
ATOM     22  C   UNL     1       5.308  -0.700  -0.996  0.00  0.00    +0.247 C 
ATOM     23  O   UNL     1       5.912  -1.580  -1.578  0.00  0.00    -0.270 OA
ENDBRANCH   1  22
BRANCH  12  24
ATOM     24  C   UNL     1      -0.703  -1.608   1.591  0.00  0.00    +0.017 A 
ATOM     25  C   UNL     1       0.501  -1.061   1.991  0.00  0.00    +0.041 A 
ATOM     26  C   UNL     1       0.729  -0.789   3.328  0.00  0.00    +0.127 A 
ATOM     27  C   UNL     1      -0.244  -1.073   4.269  0.00  0.00    +0.036 A 
ATOM     28  C   UNL     1      -1.448  -1.624   3.875  0.00  0.00    +0.048 A 
ATOM     29  C   UNL     1      -1.680  -1.893   2.533  0.00  0.00    +0.122 A 
BRANCH  26  30
ATOM     30  N   UNL     1       2.018  -0.198   3.752  0.00  0.00    +0.056 N 
ATOM     31  O   UNL     1       2.221   0.037   4.930  0.00  0.00    -0.126 OA
ATOM     32  O   UNL     1       2.875   0.052   2.925  0.00  0.00    -0.126 OA
ENDBRANCH  26  30
BRANCH  29  33
ATOM     33  O   UNL     1      -2.864  -2.436   2.143  0.00  0.00    -0.506 OA
ATOM     34  H   UNL     1      -3.638  -2.662   2.891  0.00  0.00    +0.292 HD
ENDBRANCH  29  33
ENDBRANCH  12  24
TORSDOF 4
