REMARK  Name = ZINC35559692
REMARK  5 active torsions:
REMARK  status: ('A' for Active; 'I' for Inactive)
REMARK    1  A    between atoms: N_9  and  S_22
REMARK    2  A    between atoms: C_10  and  C_12
REMARK    3  A    between atoms: C_12  and  C_13
REMARK    4  A    between atoms: N_15  and  C_16
REMARK    5  A    between atoms: S_22  and  C_25
REMARK                            x       y       z     vdW  Elec       q    Type
REMARK                         _______ _______ _______ _____ _____    ______ ____
ROOT
ATOM      1  C   UNL     1      -0.121   0.979   0.926  0.00  0.00    +0.000 A 
ATOM      2  C   UNL     1       0.956   1.754   0.538  0.00  0.00    +0.000 A 
ATOM      3  C   UNL     1       2.126   1.145   0.134  0.00  0.00    +0.005 A 
ATOM      4  C   UNL     1       2.231  -0.239   0.117  0.00  0.00    -0.025 A 
ATOM      5  C   UNL     1       1.163  -1.012   0.512  0.00  0.00    -0.041 A 
ATOM      6  C   UNL     1      -0.018  -0.396   0.911  0.00  0.00    +0.004 A 
ATOM      7  C   UNL     1       1.212  -2.517   0.549  0.00  0.00    +0.052 C 
ATOM      8  C   UNL     1       2.334  -3.047  -0.342  0.00  0.00    +0.115 C 
ATOM      9  N   UNL     1       3.552  -2.275  -0.043  0.00  0.00    -0.168 NA
ATOM     10  C   UNL     1       3.533  -0.841  -0.350  0.00  0.00    +0.119 C 
ENDROOT
BRANCH   9  11
ATOM     11  S   UNL     1       4.890  -2.998   0.612  0.00  0.00    +0.061 S 
ATOM     12  O   UNL     1       5.533  -2.014   1.411  0.00  0.00    -0.153 OA
ATOM     13  O   UNL     1       4.461  -4.246   1.139  0.00  0.00    -0.153 OA
BRANCH  11  14
ATOM     14  C   UNL     1       5.988  -3.363  -0.717  0.00  0.00    +0.106 A 
ATOM     15  C   UNL     1       5.826  -4.525  -1.448  0.00  0.00    +0.029 A 
ATOM     16  C   UNL     1       6.687  -4.812  -2.490  0.00  0.00    +0.017 A 
ATOM     17  C   UNL     1       7.711  -3.937  -2.802  0.00  0.00    +0.018 A 
ATOM     18  C   UNL     1       7.873  -2.774  -2.071  0.00  0.00    +0.017 A 
ATOM     19  C   UNL     1       7.009  -2.485  -1.031  0.00  0.00    +0.029 A 
ATOM     20 BR   UNL     1       8.889  -4.329  -4.228  0.00  0.00    -0.050 Br
ENDBRANCH  11  14
ENDBRANCH   9  11
BRANCH  10  21
ATOM     21  C   UNL     1       4.697  -0.152   0.365  0.00  0.00    +0.121 C 
BRANCH  21  22
ATOM     22  C   UNL     1       4.426  -0.115   1.847  0.00  0.00    +0.215 C 
ATOM     23  O   UNL     1       3.447  -0.672   2.298  0.00  0.00    -0.276 OA
ATOM     24  N   UNL     1       5.270   0.537   2.671  0.00  0.00    -0.312 N 
ATOM     25  H   UNL     1       6.087   0.925   2.320  0.00  0.00    +0.149 HD
BRANCH  24  26
ATOM     26  C   UNL     1       4.954   0.659   4.096  0.00  0.00    +0.073 C 
ATOM     27  C   UNL     1       3.975   1.817   4.304  0.00  0.00    +0.022 C 
ATOM     28  C   UNL     1       3.645   1.945   5.792  0.00  0.00    +0.002 C 
ATOM     29  C   UNL     1       4.929   2.216   6.578  0.00  0.00    +0.000 C 
ATOM     30  C   UNL     1       5.908   1.059   6.370  0.00  0.00    +0.002 C 
ATOM     31  C   UNL     1       6.238   0.931   4.882  0.00  0.00    +0.022 C 
ENDBRANCH  24  26
ENDBRANCH  21  22
ENDBRANCH  10  21
TORSDOF 5
