REMARK  Name = ZINC40984035
REMARK  15 active torsions:
REMARK  status: ('A' for Active; 'I' for Inactive)
REMARK    1  A    between atoms: C_1  and  C_2
REMARK    2  A    between atoms: C_3  and  C_16
REMARK    3  A    between atoms: C_5  and  C_7
REMARK    4  A    between atoms: C_12  and  O_13
REMARK    5  A    between atoms: O_13  and  C_14
REMARK    6  A    between atoms: C_16  and  N_17
REMARK    7  A    between atoms: C_20  and  C_23
REMARK    8  A    between atoms: N_25  and  C_26
REMARK    9  A    between atoms: N_25  and  C_30
REMARK   10  A    between atoms: C_26  and  C_27
REMARK   11  A    between atoms: C_27  and  C_28
REMARK   12  A    between atoms: C_27  and  C_29
REMARK   13  A    between atoms: C_30  and  C_31
REMARK   14  A    between atoms: C_31  and  C_32
REMARK   15  A    between atoms: C_31  and  C_33
REMARK                            x       y       z     vdW  Elec       q    Type
REMARK                         _______ _______ _______ _____ _____    ______ ____
ROOT
ATOM      1  N   UNL     1      -3.236  -2.787  -2.756  0.00  0.00    +0.383 N 
ATOM      2  C   UNL     1      -3.759  -3.493  -3.931  0.00  0.00    -0.078 C 
ATOM      3  C   UNL     1      -3.991  -2.496  -5.069  0.00  0.00    -0.006 C 
ATOM      4  C   UNL     1      -5.000  -1.437  -4.615  0.00  0.00    +0.072 C 
ATOM      5  C   UNL     1      -4.478  -0.759  -3.345  0.00  0.00    -0.006 C 
ATOM      6  C   UNL     1      -4.229  -1.820  -2.272  0.00  0.00    -0.078 C 
ATOM      7  H   UNL     1      -2.389  -2.300  -3.008  0.00  0.00    -0.081 HD
ENDROOT
BRANCH   4   8
ATOM      8  C   UNL     1      -5.174  -0.408  -5.702  0.00  0.00    +0.219 C 
ATOM      9  O   UNL     1      -4.331  -0.290  -6.565  0.00  0.00    -0.275 OA
ATOM     10  N   UNL     1      -6.266   0.382  -5.714  0.00  0.00    -0.301 N 
BRANCH  10  11
ATOM     11  C   UNL     1      -6.498   1.294  -6.837  0.00  0.00    +0.110 C 
BRANCH  11  12
ATOM     12  C   UNL     1      -7.317   0.579  -7.913  0.00  0.00    +0.000 C 
ATOM     13  C   UNL     1      -7.666   1.567  -9.028  0.00  0.00    +0.009 C 
ATOM     14  C   UNL     1      -6.499  -0.576  -8.493  0.00  0.00    +0.009 C 
ENDBRANCH  11  12
ENDBRANCH  10  11
BRANCH  10  15
ATOM     15  C   UNL     1      -7.222   0.327  -4.605  0.00  0.00    +0.110 C 
BRANCH  15  16
ATOM     16  C   UNL     1      -7.326   1.708  -3.954  0.00  0.00    +0.000 C 
ATOM     17  C   UNL     1      -8.429   1.690  -2.893  0.00  0.00    +0.009 C 
ATOM     18  C   UNL     1      -5.991   2.064  -3.296  0.00  0.00    +0.009 C 
ENDBRANCH  15  16
ENDBRANCH  10  15
ENDBRANCH   4   8
BRANCH   1  19
ATOM     19  C   UNL     1      -2.942  -3.758  -1.693  0.00  0.00    -0.019 C 
BRANCH  19  22
ATOM     20  C   UNL     1       0.121  -3.299  -1.271  0.00  0.00    +0.088 C 
ATOM     21  C   UNL     1      -0.517  -4.477  -1.961  0.00  0.00    +0.124 A 
ATOM     22  C   UNL     1      -1.835  -4.676  -2.144  0.00  0.00    +0.066 A 
ATOM     23  N   UNL     1      -1.988  -5.837  -2.799  0.00  0.00    -0.216 NA
ATOM     24  C   UNL     1      -0.802  -6.353  -3.022  0.00  0.00    +0.231 A 
ATOM     25  O   UNL     1       0.127  -5.524  -2.515  0.00  0.00    -0.440 OA
BRANCH  24  26
ATOM     26  C   UNL     1      -0.533  -7.628  -3.717  0.00  0.00    +0.079 A 
ATOM     27  C   UNL     1      -1.589  -8.396  -4.209  0.00  0.00    +0.032 A 
ATOM     28  C   UNL     1      -1.331  -9.586  -4.857  0.00  0.00    +0.019 A 
ATOM     29  C   UNL     1      -0.027 -10.022  -5.022  0.00  0.00    +0.019 A 
ATOM     30  C   UNL     1       1.027  -9.271  -4.539  0.00  0.00    +0.047 A 
ATOM     31  C   UNL     1       0.785  -8.070  -3.891  0.00  0.00    +0.132 A 
ATOM     32 BR   UNL     1      -2.763 -10.625  -5.524  0.00  0.00    -0.050 Br
BRANCH  31  33
ATOM     33  O   UNL     1       1.820  -7.328  -3.421  0.00  0.00    -0.494 OA
ATOM     34  C   UNL     1       3.136  -7.842  -3.635  0.00  0.00    +0.277 C 
ENDBRANCH  31  33
ENDBRANCH  24  26
ENDBRANCH  19  22
ENDBRANCH   1  19
TORSDOF 9
