REMARK  Name = ZINC07778547
REMARK  6 active torsions:
REMARK  status: ('A' for Active; 'I' for Inactive)
REMARK    1  A    between atoms: C_6  and  C_7
REMARK    2  A    between atoms: C_7  and  C_12
REMARK    3  A    between atoms: C_12  and  O_14
REMARK    4  A    between atoms: O_14  and  C_15
REMARK    5  A    between atoms: C_15  and  C_16
REMARK    6  A    between atoms: N_18  and  C_19
REMARK                            x       y       z     vdW  Elec       q    Type
REMARK                         _______ _______ _______ _____ _____    ______ ____
ROOT
ATOM      1  C   UNL     1       0.448   3.934  -3.509  0.00  0.00    +0.328 C 
ENDROOT
BRANCH   1   2
ATOM      2  C   UNL     1      -0.231   4.462  -4.746  0.00  0.00    +0.255 C 
ATOM      3  O   UNL     1      -1.351   4.091  -5.029  0.00  0.00    -0.272 OA
ATOM      4  N   UNL     1       0.406   5.345  -5.540  0.00  0.00    -0.283 N 
ATOM      5  H   UNL     1       1.330   5.580  -5.360  0.00  0.00    +0.155 HD
BRANCH   4   6
ATOM      6  C   UNL     1      -0.266   5.926  -6.623  0.00  0.00    +0.036 A 
ATOM      7  C   UNL     1       0.427   6.220  -7.792  0.00  0.00    +0.025 A 
ATOM      8  C   UNL     1      -0.231   6.786  -8.866  0.00  0.00    +0.029 A 
ATOM      9  C   UNL     1      -1.585   7.074  -8.774  0.00  0.00    +0.067 A 
ATOM     10  C   UNL     1      -2.282   6.785  -7.599  0.00  0.00    +0.069 A 
ATOM     11  C   UNL     1      -1.620   6.211  -6.526  0.00  0.00    +0.051 A 
ATOM     12  N   UNL     1      -3.601   7.180  -7.807  0.00  0.00    -0.306 N 
ATOM     13  H   UNL     1      -4.324   7.104  -7.164  0.00  0.00    +0.170 HD
ATOM     14  C   UNL     1      -3.703   7.686  -9.050  0.00  0.00    +0.325 A 
ATOM     15  O   UNL     1      -4.724   8.122  -9.548  0.00  0.00    -0.247 OA
ATOM     16  N   UNL     1      -2.504   7.636  -9.660  0.00  0.00    -0.306 N 
ATOM     17  H   UNL     1      -2.312   7.940 -10.561  0.00  0.00    +0.170 HD
ENDBRANCH   4   6
ENDBRANCH   1   2
BRANCH   1  18
ATOM     18  O   UNL     1      -0.438   3.005  -2.830  0.00  0.00    -0.455 OA
BRANCH  18  19
ATOM     19  C   UNL     1       0.019   2.441  -1.701  0.00  0.00    +0.318 C 
ATOM     20  O   UNL     1       1.123   2.715  -1.293  0.00  0.00    -0.250 OA
BRANCH  19  21
ATOM     21  C   UNL     1      -0.844   1.467  -0.942  0.00  0.00    +0.093 C 
ATOM     22  C   UNL     1      -0.098   0.965   0.307  0.00  0.00    +0.023 C 
ATOM     23  C   UNL     1      -0.947   1.382   1.526  0.00  0.00    +0.001 C 
ATOM     24  C   UNL     1      -1.780   2.585   1.014  0.00  0.00    +0.001 C 
ATOM     25  C   UNL     1      -2.120   2.172  -0.439  0.00  0.00    +0.023 C 
BRANCH  21  31
ATOM     26  C   UNL     1      -1.952  -0.746  -1.316  0.00  0.00    +0.006 A 
ATOM     27  C   UNL     1      -2.293  -1.811  -2.128  0.00  0.00    +0.020 A 
ATOM     28  C   UNL     1      -1.884  -1.832  -3.450  0.00  0.00    +0.041 A 
ATOM     29  C   UNL     1      -1.137  -0.784  -3.958  0.00  0.00    +0.020 A 
ATOM     30  C   UNL     1      -0.801   0.283  -3.147  0.00  0.00    +0.006 A 
ATOM     31  C   UNL     1      -1.210   0.303  -1.826  0.00  0.00    -0.031 A 
ATOM     32 CL   UNL     1      -2.307  -3.172  -4.469  0.00  0.00    -0.084 Cl
ENDBRANCH  21  31
ENDBRANCH  19  21
ENDBRANCH  18  19
ENDBRANCH   1  18
TORSDOF 6
