REMARK  Name = ZINC03438791
REMARK  8 active torsions:
REMARK  status: ('A' for Active; 'I' for Inactive)
REMARK    1  A    between atoms: C_9  and  C_12
REMARK    2  A    between atoms: C_10  and  O_11
REMARK    3  A    between atoms: C_12  and  O_14
REMARK    4  A    between atoms: O_14  and  C_15
REMARK    5  A    between atoms: C_15  and  C_16
REMARK    6  A    between atoms: N_18  and  C_19
REMARK    7  A    between atoms: C_22  and  S_25
REMARK    8  A    between atoms: S_25  and  N_28
REMARK                            x       y       z     vdW  Elec       q    Type
REMARK                         _______ _______ _______ _____ _____    ______ ____
ROOT
ATOM      1  C   UNL     1       2.173   9.555   0.021  0.00  0.00    +0.328 C 
ENDROOT
BRANCH   1   2
ATOM      2  C   UNL     1       3.563  10.136   0.019  0.00  0.00    +0.255 C 
ATOM      3  O   UNL     1       4.528   9.400   0.015  0.00  0.00    -0.272 OA
ATOM      4  N   UNL     1       3.735  11.473   0.022  0.00  0.00    -0.283 N 
ATOM      5  H   UNL     1       2.966  12.060  -0.043  0.00  0.00    +0.155 HD
BRANCH   4   6
ATOM      6  C   UNL     1       5.023  12.012   0.118  0.00  0.00    +0.034 A 
ATOM      7  C   UNL     1       5.231  13.196   0.813  0.00  0.00    +0.025 A 
ATOM      8  C   UNL     1       6.504  13.723   0.911  0.00  0.00    +0.030 A 
ATOM      9  C   UNL     1       7.568  13.079   0.308  0.00  0.00    +0.105 A 
ATOM     10  C   UNL     1       7.364  11.903  -0.390  0.00  0.00    +0.030 A 
ATOM     11  C   UNL     1       6.094  11.368  -0.487  0.00  0.00    +0.025 A 
BRANCH   9  12
ATOM     12  S   UNL     1       9.190  13.758   0.429  0.00  0.00    +0.056 S 
ATOM     13  O   UNL     1       9.203  14.572   1.594  0.00  0.00    -0.153 OA
ATOM     14  O   UNL     1      10.097  12.681   0.242  0.00  0.00    -0.153 OA
BRANCH  12  15
ATOM     15  N   UNL     1       9.392  14.777  -0.861  0.00  0.00    -0.204 NA
ATOM     16  H   UNL     1       8.674  14.896  -1.502  0.00  0.00    +0.144 HD
ATOM     17  H   UNL     1      10.228  15.254  -0.976  0.00  0.00    +0.144 HD
ENDBRANCH  12  15
ENDBRANCH   9  12
ENDBRANCH   4   6
ENDBRANCH   1   2
BRANCH   1  18
ATOM     18  O   UNL     1       2.254   8.105   0.017  0.00  0.00    -0.452 OA
BRANCH  18  19
ATOM     19  C   UNL     1       1.089   7.427   0.018  0.00  0.00    +0.343 C 
ATOM     20  O   UNL     1       0.035   8.031   0.022  0.00  0.00    -0.245 OA
BRANCH  19  29
ATOM     21  C   UNL     1      -0.014   1.076   0.004  0.00  0.00    +0.001 A 
ATOM     22  C   UNL     1      -1.235   1.746   0.004  0.00  0.00    +0.001 A 
ATOM     23  C   UNL     1      -1.287   3.107   0.013  0.00  0.00    +0.012 A 
ATOM     24  C   UNL     1      -0.094   3.848   0.012  0.00  0.00    +0.024 A 
ATOM     25  C   UNL     1       1.149   3.167   0.008  0.00  0.00    -0.014 A 
ATOM     26  C   UNL     1       1.162   1.763   0.004  0.00  0.00    +0.008 A 
ATOM     27  C   UNL     1       2.349   3.904   0.007  0.00  0.00    +0.009 A 
ATOM     28  C   UNL     1       2.318   5.260   0.011  0.00  0.00    +0.019 A 
ATOM     29  C   UNL     1       1.095   5.955   0.015  0.00  0.00    +0.101 A 
ATOM     30  C   UNL     1      -0.112   5.258   0.016  0.00  0.00    +0.138 A 
BRANCH  30  31
ATOM     31  O   UNL     1      -1.290   5.927   0.020  0.00  0.00    -0.505 OA
ATOM     32  H   UNL     1      -1.630   6.119   0.905  0.00  0.00    +0.292 HD
ENDBRANCH  30  31
ENDBRANCH  19  29
ENDBRANCH  18  19
ENDBRANCH   1  18
TORSDOF 8
