REMARK  Name = ZINC38610859
REMARK  6 active torsions:
REMARK  status: ('A' for Active; 'I' for Inactive)
REMARK    1  A    between atoms: C_1  and  C_2
REMARK    2  A    between atoms: C_2  and  O_3
REMARK    3  A    between atoms: O_3  and  C_4
REMARK    4  A    between atoms: C_4  and  C_6
REMARK    5  A    between atoms: C_8  and  N_17
REMARK    6  A    between atoms: C_18  and  C_20
REMARK                            x       y       z     vdW  Elec       q    Type
REMARK                         _______ _______ _______ _____ _____    ______ ____
ROOT
ATOM      1  C   UNL     1       0.472  -3.793  -4.215  0.00  0.00    +0.234 C 
ATOM      2  C   UNL     1       0.651  -2.381  -3.701  0.00  0.00    +0.053 C 
ATOM      3  C   UNL     1       1.444  -2.489  -2.573  0.00  0.00    +0.020 A 
ATOM      4  C   UNL     1       1.951  -1.527  -1.666  0.00  0.00    +0.050 A 
ATOM      5  C   UNL     1       2.723  -1.927  -0.624  0.00  0.00    +0.124 A 
ATOM      6  C   UNL     1       3.034  -3.275  -0.417  0.00  0.00    +0.040 A 
ATOM      7  C   UNL     1       2.584  -4.248  -1.245  0.00  0.00    +0.029 A 
ATOM      8  C   UNL     1       1.771  -3.909  -2.358  0.00  0.00    +0.045 A 
ATOM      9  N   UNL     1       1.217  -4.657  -3.294  0.00  0.00    -0.367 N 
ATOM     10  F   UNL     1       3.201  -1.000   0.236  0.00  0.00    -0.205 F 
ATOM     11  H   UNL     1       1.290  -5.622  -3.361  0.00  0.00    +0.161 HD
ENDROOT
BRANCH   2  12
ATOM     12  N   UNL     1       0.136  -1.239  -4.239  0.00  0.00    -0.286 N 
ATOM     13  C   UNL     1      -0.760  -1.311  -5.243  0.00  0.00    +0.223 C 
ATOM     14  O   UNL     1      -1.189  -2.389  -5.596  0.00  0.00    -0.275 OA
ATOM     15  H   UNL     1       0.416  -0.374  -3.899  0.00  0.00    +0.155 HD
BRANCH  13  16
ATOM     16  C   UNL     1      -1.230  -0.052  -5.925  0.00  0.00    +0.049 C 
ATOM     17  C   UNL     1      -0.033   0.666  -6.550  0.00  0.00    +0.019 C 
ATOM     18  C   UNL     1      -0.510   1.945  -7.243  0.00  0.00    -0.008 C 
ATOM     19  C   UNL     1      -1.518   1.586  -8.337  0.00  0.00    +0.007 C 
ATOM     20  C   UNL     1      -2.715   0.867  -7.712  0.00  0.00    -0.008 C 
ATOM     21  C   UNL     1      -2.238  -0.411  -7.019  0.00  0.00    +0.019 C 
ATOM     22  C   UNL     1      -3.382   1.785  -6.685  0.00  0.00    +0.021 C 
ATOM     23  C   UNL     1      -2.374   2.144  -5.591  0.00  0.00    +0.028 C 
ATOM     24  C   UNL     1      -1.177   2.862  -6.216  0.00  0.00    +0.021 C 
ATOM     25  C   UNL     1      -1.897   0.866  -4.899  0.00  0.00    +0.034 C 
ATOM     26 BR   UNL     1      -3.231   3.323  -4.272  0.00  0.00    -0.084 Br
ENDBRANCH  13  16
ENDBRANCH   2  12
BRANCH   1  27
ATOM     27  C   UNL     1       1.035  -3.913  -5.608  0.00  0.00    +0.336 C 
ATOM     28  O   UNL     1       2.177  -4.272  -5.770  0.00  0.00    -0.248 OA
BRANCH  27  29
ATOM     29  O   UNL     1       0.267  -3.621  -6.670  0.00  0.00    -0.463 OA
BRANCH  29  31
ATOM     30  C   UNL     1      -0.156  -3.383  -9.037  0.00  0.00    +0.048 C 
ATOM     31  C   UNL     1       0.865  -3.757  -7.960  0.00  0.00    +0.229 C 
ENDBRANCH  29  31
ENDBRANCH  27  29
ENDBRANCH   1  27
TORSDOF 5
