REMARK  Name = ZINC35255346
REMARK  5 active torsions:
REMARK  status: ('A' for Active; 'I' for Inactive)
REMARK    1  A    between atoms: C_1  and  C_2
REMARK    2  A    between atoms: C_2  and  C_4
REMARK    3  A    between atoms: C_2  and  N_12
REMARK    4  A    between atoms: N_12  and  C_13
REMARK    5  A    between atoms: C_13  and  C_14
REMARK                            x       y       z     vdW  Elec       q    Type
REMARK                         _______ _______ _______ _____ _____    ______ ____
ROOT
ATOM      1  N   UNL     1       0.690  -0.478  -1.207  0.00  0.00    +0.388 N 
ATOM      2  H   UNL     1       0.632  -1.484  -1.254  0.00  0.00    -0.084 HD
ATOM      3  H   UNL     1       0.251  -0.077  -2.022  0.00  0.00    -0.084 HD
ENDROOT
BRANCH   1   5
ATOM      4  C   UNL     1      -0.019   1.526   0.010  0.00  0.00    -0.006 C 
ATOM      5  C   UNL     1       0.002  -0.004   0.002  0.00  0.00    -0.005 C 
BRANCH   5   6
ATOM      6  C   UNL     1      -1.412  -0.526   0.013  0.00  0.00    +0.119 A 
ATOM      7  N   UNL     1      -2.240  -0.538  -0.996  0.00  0.00    -0.136 NA
ATOM      8  N   UNL     1      -3.360  -1.053  -0.630  0.00  0.00    -0.134 NA
ATOM      9  C   UNL     1      -3.296  -1.391   0.630  0.00  0.00    +0.133 A 
ATOM     10  N   UNL     1      -2.058  -1.075   1.071  0.00  0.00    -0.316 N 
ATOM     11  C   UNL     1      -1.891  -1.435   2.484  0.00  0.00    +0.125 C 
ATOM     12  C   UNL     1      -3.320  -1.638   3.032  0.00  0.00    +0.029 C 
ATOM     13  C   UNL     1      -4.103  -2.006   1.754  0.00  0.00    +0.078 C 
ENDBRANCH   5   6
ENDBRANCH   1   5
BRANCH   1  14
ATOM     14  C   UNL     1       2.100  -0.070  -1.159  0.00  0.00    -0.046 C 
BRANCH  14  15
ATOM     15  C   UNL     1       2.806  -0.556  -2.399  0.00  0.00    -0.063 A 
ATOM     16  C   UNL     1       3.401  -1.804  -2.411  0.00  0.00    +0.002 A 
ATOM     17  C   UNL     1       4.048  -2.250  -3.548  0.00  0.00    +0.001 A 
ATOM     18  C   UNL     1       4.100  -1.449  -4.673  0.00  0.00    +0.015 A 
ATOM     19  C   UNL     1       3.505  -0.201  -4.662  0.00  0.00    +0.018 A 
ATOM     20  C   UNL     1       2.852   0.243  -3.525  0.00  0.00    +0.017 A 
ATOM     21 BR   UNL     1       3.576   0.896  -6.200  0.00  0.00    -0.050 Br
ENDBRANCH  14  15
ENDBRANCH   1  14
TORSDOF 4
