REMARK  Name = ZINC21577483
REMARK  8 active torsions:
REMARK  status: ('A' for Active; 'I' for Inactive)
REMARK    1  A    between atoms: C_1  and  C_2
REMARK    2  A    between atoms: C_2  and  C_3
REMARK    3  A    between atoms: C_3  and  C_4
REMARK    4  A    between atoms: N_9  and  C_12
REMARK    5  A    between atoms: C_17  and  N_18
REMARK    6  A    between atoms: N_18  and  C_19
REMARK    7  A    between atoms: C_19  and  N_21
REMARK    8  A    between atoms: C_22  and  C_24
REMARK                            x       y       z     vdW  Elec       q    Type
REMARK                         _______ _______ _______ _____ _____    ______ ____
ROOT
ATOM      1  C   UNL     1       1.008   3.531   0.190  0.00  0.00    +0.051 A 
ATOM      2  C   UNL     1       2.146   4.322   0.243  0.00  0.00    +0.026 A 
ATOM      3  C   UNL     1       3.397   3.741   0.152  0.00  0.00    +0.022 A 
ATOM      4  C   UNL     1       3.518   2.369   0.016  0.00  0.00    +0.043 A 
ATOM      5  C   UNL     1       2.388   1.573  -0.032  0.00  0.00    +0.045 A 
ATOM      6  C   UNL     1       1.130   2.148   0.058  0.00  0.00    +0.055 A 
ATOM      7 CL   UNL     1       5.092   1.646  -0.096  0.00  0.00    -0.083 Cl
ENDROOT
BRANCH   1  13
ATOM      8  C   UNL     1      -2.776   7.310   0.565  0.00  0.00    +0.216 C 
ATOM      9  O   UNL     1      -2.982   7.800   1.655  0.00  0.00    -0.276 OA
ATOM     10  N   UNL     1      -2.227   6.083   0.470  0.00  0.00    -0.298 N 
ATOM     11  C   UNL     1      -1.870   5.321   1.676  0.00  0.00    +0.126 C 
ATOM     12  C   UNL     1      -0.418   4.848   1.541  0.00  0.00    +0.124 C 
ATOM     13  N   UNL     1      -0.260   4.119   0.276  0.00  0.00    -0.325 N 
ATOM     14  C   UNL     1      -0.514   4.992  -0.878  0.00  0.00    +0.124 C 
ATOM     15  C   UNL     1      -1.969   5.471  -0.842  0.00  0.00    +0.126 C 
BRANCH   8  16
ATOM     16  C   UNL     1      -3.135   8.073  -0.684  0.00  0.00    +0.096 C 
BRANCH  16  18
ATOM     17  C   UNL     1      -4.101  10.201  -1.567  0.00  0.00    +0.004 C 
ATOM     18  C   UNL     1      -3.737   9.426  -0.299  0.00  0.00    +0.006 C 
ENDBRANCH  16  18
ENDBRANCH   8  16
ENDBRANCH   1  13
BRANCH   6  19
ATOM     19  N   UNL     1      -0.016   1.344   0.009  0.00  0.00    -0.295 N 
ATOM     20  H   UNL     1      -0.841   1.518   0.716  0.00  0.00    +0.154 HD
BRANCH  19  21
ATOM     21  C   UNL     1      -0.108   0.356  -0.903  0.00  0.00    +0.141 C 
ATOM     22  S   UNL     1       1.110   0.173  -2.092  0.00  0.00    -0.018 S 
BRANCH  21  23
ATOM     23  N   UNL     1      -1.159  -0.488  -0.880  0.00  0.00    -0.264 N 
ATOM     24  C   UNL     1      -1.251  -1.475  -1.792  0.00  0.00    +0.251 C 
ATOM     25  O   UNL     1      -0.386  -1.605  -2.637  0.00  0.00    -0.270 OA
ATOM     26  H   UNL     1      -1.942  -0.370  -0.116  0.00  0.00    +0.157 HD
BRANCH  24  27
ATOM     27  C   UNL     1      -2.402  -2.400  -1.767  0.00  0.00    +0.057 A 
ATOM     28  C   UNL     1      -3.395  -2.257  -0.795  0.00  0.00    +0.034 A 
ATOM     29  C   UNL     1      -4.471  -3.121  -0.780  0.00  0.00    +0.042 A 
ATOM     30  C   UNL     1      -4.562  -4.135  -1.720  0.00  0.00    +0.021 A 
ATOM     31  C   UNL     1      -3.581  -4.285  -2.682  0.00  0.00    +0.022 A 
ATOM     32  C   UNL     1      -2.501  -3.424  -2.712  0.00  0.00    +0.053 A 
ATOM     33 CL   UNL     1      -1.269  -3.615  -3.920  0.00  0.00    -0.083 Cl
ATOM     34 CL   UNL     1      -5.709  -2.942   0.424  0.00  0.00    -0.084 Cl
ENDBRANCH  24  27
ENDBRANCH  21  23
ENDBRANCH  19  21
ENDBRANCH   6  19
TORSDOF 7
