REMARK  Name = ZINC36610231
REMARK  16 active torsions:
REMARK  status: ('A' for Active; 'I' for Inactive)
REMARK    1  A    between atoms: C_1  and  C_2
REMARK    2  A    between atoms: C_5  and  C_8
REMARK    3  A    between atoms: C_8  and  C_10
REMARK    4  A    between atoms: C_8  and  N_21
REMARK    5  A    between atoms: N_12  and  C_13
REMARK    6  A    between atoms: C_13  and  C_14
REMARK    7  A    between atoms: C_13  and  C_15
REMARK    8  A    between atoms: C_13  and  C_16
REMARK    9  A    between atoms: C_16  and  C_17
REMARK   10  A    between atoms: C_17  and  C_18
REMARK   11  A    between atoms: C_17  and  C_19
REMARK   12  A    between atoms: C_17  and  C_20
REMARK   13  A    between atoms: N_21  and  C_22
REMARK   14  A    between atoms: C_28  and  C_30
REMARK   15  A    between atoms: C_31  and  O_37
REMARK   16  A    between atoms: C_35  and  O_36
REMARK                            x       y       z     vdW  Elec       q    Type
REMARK                         _______ _______ _______ _____ _____    ______ ____
ROOT
ATOM      1  C   UNL     1      -1.102  -4.134  -1.334  0.00  0.00    +0.197 C 
ENDROOT
BRANCH   1   6
ATOM      2  C   UNL     1      -4.383  -3.977   3.419  0.00  0.00    +0.044 C 
ATOM      3  C   UNL     1      -3.528  -4.018   2.180  0.00  0.00    -0.050 A 
ATOM      4  C   UNL     1      -3.635  -3.017   1.232  0.00  0.00    +0.004 A 
ATOM      5  C   UNL     1      -2.850  -3.055   0.095  0.00  0.00    +0.006 A 
ATOM      6  C   UNL     1      -1.957  -4.093  -0.094  0.00  0.00    -0.018 A 
ATOM      7  C   UNL     1      -1.849  -5.093   0.854  0.00  0.00    +0.006 A 
ATOM      8  C   UNL     1      -2.631  -5.053   1.993  0.00  0.00    +0.004 A 
ENDBRANCH   1   6
BRANCH   1   9
ATOM      9  C   UNL     1      -1.310  -5.447  -2.044  0.00  0.00    +0.239 C 
ATOM     10  O   UNL     1      -0.373  -6.197  -2.220  0.00  0.00    -0.273 OA
ATOM     11  N   UNL     1      -2.537  -5.789  -2.484  0.00  0.00    -0.308 N 
ATOM     12  H   UNL     1      -3.287  -5.189  -2.343  0.00  0.00    +0.149 HD
BRANCH  11  13
ATOM     13  C   UNL     1      -2.740  -7.065  -3.174  0.00  0.00    +0.030 C 
ATOM     14  C   UNL     1      -1.803  -7.146  -4.381  0.00  0.00    +0.031 C 
ATOM     15  C   UNL     1      -2.436  -8.217  -2.214  0.00  0.00    +0.031 C 
BRANCH  13  16
ATOM     16  C   UNL     1      -4.191  -7.164  -3.647  0.00  0.00    +0.031 C 
BRANCH  16  17
ATOM     17  C   UNL     1      -5.085  -6.326  -2.731  0.00  0.00    -0.036 C 
ATOM     18  C   UNL     1      -4.925  -4.845  -3.080  0.00  0.00    +0.010 C 
ATOM     19  C   UNL     1      -6.545  -6.741  -2.924  0.00  0.00    +0.010 C 
ATOM     20  C   UNL     1      -4.678  -6.554  -1.274  0.00  0.00    +0.010 C 
ENDBRANCH  16  17
ENDBRANCH  13  16
ENDBRANCH  11  13
ENDBRANCH   1   9
BRANCH   1  21
ATOM     21  N   UNL     1       0.308  -4.000  -0.960  0.00  0.00    -0.251 N 
ATOM     22  C   UNL     1       1.267  -4.088  -1.903  0.00  0.00    +0.259 C 
ATOM     23  O   UNL     1       0.960  -4.186  -3.076  0.00  0.00    -0.269 OA
BRANCH  21  24
ATOM     24  C   UNL     1       0.659  -3.780   0.376  0.00  0.00    +0.038 A 
ATOM     25  C   UNL     1       1.115  -4.833   1.158  0.00  0.00    +0.023 A 
ATOM     26  C   UNL     1       1.460  -4.613   2.477  0.00  0.00    +0.002 A 
ATOM     27  C   UNL     1       1.353  -3.345   3.019  0.00  0.00    +0.000 A 
ATOM     28  C   UNL     1       0.899  -2.294   2.243  0.00  0.00    +0.002 A 
ATOM     29  C   UNL     1       0.558  -2.506   0.921  0.00  0.00    +0.023 A 
ENDBRANCH  21  24
BRANCH  22  30
ATOM     30  C   UNL     1       2.687  -4.064  -1.514  0.00  0.00    +0.120 A 
ATOM     31  C   UNL     1       3.398  -5.264  -1.364  0.00  0.00    +0.133 A 
ATOM     32  C   UNL     1       4.734  -5.230  -0.998  0.00  0.00    +0.046 A 
ATOM     33  C   UNL     1       5.365  -4.020  -0.780  0.00  0.00    +0.007 A 
ATOM     34  C   UNL     1       4.674  -2.832  -0.923  0.00  0.00    +0.046 A 
ATOM     35  C   UNL     1       3.339  -2.842  -1.295  0.00  0.00    +0.133 A 
BRANCH  35  36
ATOM     36  O   UNL     1       2.664  -1.674  -1.441  0.00  0.00    -0.506 OA
ATOM     37  H   UNL     1       2.235  -1.364  -0.631  0.00  0.00    +0.292 HD
ENDBRANCH  35  36
BRANCH  31  38
ATOM     38  O   UNL     1       2.780  -6.453  -1.577  0.00  0.00    -0.506 OA
ATOM     39  H   UNL     1       2.834  -6.766  -2.491  0.00  0.00    +0.292 HD
ENDBRANCH  31  38
ENDBRANCH  22  30
ENDBRANCH   1  21
TORSDOF 10
