REMARK  Name = ZINC19125499
REMARK  5 active torsions:
REMARK  status: ('A' for Active; 'I' for Inactive)
REMARK    1  A    between atoms: C_1  and  C_2
REMARK    2  A    between atoms: C_7  and  C_8
REMARK    3  A    between atoms: C_8  and  N_9
REMARK    4  A    between atoms: C_19  and  C_20
REMARK    5  A    between atoms: C_19  and  O_26
REMARK                            x       y       z     vdW  Elec       q    Type
REMARK                         _______ _______ _______ _____ _____    ______ ____
ROOT
ATOM      1  N   UNL     1      -1.608   0.358   2.745  0.00  0.00    +0.383 N 
ATOM      2  C   UNL     1      -2.204   1.078   1.623  0.00  0.00    -0.072 C 
ATOM      3  C   UNL     1      -3.625   1.551   1.918  0.00  0.00    +0.009 C 
ATOM      4  C   UNL     1      -4.571   0.374   2.088  0.00  0.00    +0.005 C 
ATOM      5  C   UNL     1      -4.305  -0.444   3.338  0.00  0.00    +0.001 C 
ATOM      6  C   UNL     1      -4.023   0.384   4.578  0.00  0.00    +0.005 C 
ATOM      7  C   UNL     1      -3.097   1.564   4.326  0.00  0.00    +0.009 C 
ATOM      8  C   UNL     1      -1.681   1.093   4.005  0.00  0.00    -0.072 C 
ATOM      9  C   UNL     1      -3.614   2.425   3.173  0.00  0.00    +0.095 C 
ATOM     10  H   UNL     1      -2.039  -0.547   2.845  0.00  0.00    -0.081 HD
ENDROOT
BRANCH   9  11
ATOM     11  C   UNL     1      -4.993   2.953   3.473  0.00  0.00    +0.002 A 
ATOM     12  C   UNL     1      -5.870   3.252   2.441  0.00  0.00    +0.009 A 
ATOM     13  C   UNL     1      -7.128   3.735   2.764  0.00  0.00    +0.020 A 
ATOM     14  C   UNL     1      -7.465   3.901   4.094  0.00  0.00    +0.111 A 
ATOM     15  N   UNL     1      -6.605   3.607   5.049  0.00  0.00    -0.263 NA
ATOM     16  C   UNL     1      -5.402   3.140   4.779  0.00  0.00    +0.117 A 
ENDBRANCH   9  11
BRANCH   9  17
ATOM     17  O   UNL     1      -2.724   3.530   2.973  0.00  0.00    -0.383 OA
ATOM     18  H   UNL     1      -2.665   4.130   3.729  0.00  0.00    +0.211 HD
ENDBRANCH   9  17
BRANCH   1  19
ATOM     19  C   UNL     1      -0.181   0.118   2.433  0.00  0.00    -0.043 C 
BRANCH  19  26
ATOM     20  C   UNL     1      -0.706  -2.713   2.627  0.00  0.00    +0.044 C 
ATOM     21  C   UNL     1      -0.326  -2.108   1.300  0.00  0.00    -0.045 A 
ATOM     22  C   UNL     1      -0.235  -2.910   0.177  0.00  0.00    +0.053 A 
ATOM     23  C   UNL     1       0.115  -2.356  -1.043  0.00  0.00    +0.166 A 
ATOM     24  C   UNL     1       0.374  -0.990  -1.135  0.00  0.00    +0.166 A 
ATOM     25  C   UNL     1       0.281  -0.194  -0.006  0.00  0.00    +0.051 A 
ATOM     26  C   UNL     1      -0.074  -0.752   1.208  0.00  0.00    -0.057 A 
ATOM     27  O   UNL     1       0.694  -0.693  -2.429  0.00  0.00    -0.453 OA
ATOM     28  C   UNL     1       1.026  -1.953  -3.041  0.00  0.00    +0.466 C 
ATOM     29  O   UNL     1       0.272  -2.914  -2.279  0.00  0.00    -0.453 OA
ENDBRANCH  19  26
ENDBRANCH   1  19
TORSDOF 4
