REMARK  Name = ZINC04084301
REMARK  4 active torsions:
REMARK  status: ('A' for Active; 'I' for Inactive)
REMARK    1  A    between atoms: C_1  and  C_2
REMARK    2  A    between atoms: C_4  and  C_26
REMARK    3  A    between atoms: N_5  and  S_7
REMARK    4  A    between atoms: S_7  and  C_10
REMARK                            x       y       z     vdW  Elec       q    Type
REMARK                         _______ _______ _______ _____ _____    ______ ____
ROOT
ATOM      1  C   UNL     1      -1.220   1.752   0.017  0.00  0.00    +0.113 A 
ATOM      2  C   UNL     1      -1.248   3.135   0.030  0.00  0.00    +0.030 A 
ATOM      3  C   UNL     1      -0.069   3.860   0.022  0.00  0.00    +0.014 A 
ATOM      4  C   UNL     1       1.154   3.195   0.008  0.00  0.00    +0.033 A 
ATOM      5  C   UNL     1       1.183   1.789   0.000  0.00  0.00    +0.035 A 
ATOM      6  C   UNL     1      -0.013   1.076   0.008  0.00  0.00    +0.041 A 
ATOM      7  C   UNL     1       2.477   1.075  -0.015  0.00  0.00    +0.195 C 
ATOM      8  O   UNL     1       2.502  -0.139  -0.022  0.00  0.00    -0.287 OA
ATOM      9  C   UNL     1       3.741   1.841  -0.022  0.00  0.00    +0.033 A 
ATOM     10  C   UNL     1       4.964   1.177  -0.037  0.00  0.00    +0.012 A 
ATOM     11  C   UNL     1       6.143   1.903  -0.044  0.00  0.00    +0.001 A 
ATOM     12  C   UNL     1       6.114   3.285  -0.037  0.00  0.00    +0.001 A 
ATOM     13  C   UNL     1       4.907   3.962  -0.022  0.00  0.00    +0.012 A 
ATOM     14  C   UNL     1       3.712   3.247  -0.015  0.00  0.00    +0.033 A 
ATOM     15  C   UNL     1       2.418   3.961   0.000  0.00  0.00    +0.195 C 
ATOM     16  O   UNL     1       2.393   5.176   0.007  0.00  0.00    -0.287 OA
ENDROOT
BRANCH   1  17
ATOM     17  S   UNL     1      -2.731   0.847   0.020  0.00  0.00    +0.099 S 
ATOM     18  O   UNL     1      -3.722   1.709  -0.521  0.00  0.00    -0.146 OA
ATOM     19  O   UNL     1      -2.442  -0.428  -0.539  0.00  0.00    -0.146 OA
BRANCH  17  24
ATOM     20  C   UNL     1      -4.796   1.463   4.753  0.00  0.00    +0.067 C 
ATOM     21  C   UNL     1      -4.035   0.890   3.586  0.00  0.00    +0.062 A 
ATOM     22  C   UNL     1      -3.318  -0.311   3.585  0.00  0.00    +0.049 A 
ATOM     23  C   UNL     1      -2.784  -0.476   2.353  0.00  0.00    +0.062 A 
ATOM     24  N   UNL     1      -3.143   0.587   1.603  0.00  0.00    -0.133 N 
ATOM     25  N   UNL     1      -3.931   1.429   2.398  0.00  0.00    -0.155 NA
ATOM     26  C   UNL     1      -1.938  -1.638   1.899  0.00  0.00    +0.067 C 
ENDBRANCH  17  24
ENDBRANCH   1  17
TORSDOF 2
