REMARK  Name = ZINC59310083
REMARK  6 active torsions:
REMARK  status: ('A' for Active; 'I' for Inactive)
REMARK    1  A    between atoms: C_4  and  N_7
REMARK    2  A    between atoms: N_16  and  C_17
REMARK    3  A    between atoms: C_17  and  C_19
REMARK    4  A    between atoms: C_19  and  C_20
REMARK    5  A    between atoms: C_20  and  C_21
REMARK    6  A    between atoms: C_21  and  C_22
REMARK                            x       y       z     vdW  Elec       q    Type
REMARK                         _______ _______ _______ _____ _____    ______ ____
ROOT
ATOM      1  N   UNL     1       3.624  -0.653  -0.039  0.00  0.00    -0.280 N 
ATOM      2  C   UNL     1       3.792  -2.031   0.065  0.00  0.00    +0.073 A 
ATOM      3  C   UNL     1       2.901  -3.088   0.180  0.00  0.00    +0.028 A 
ATOM      4  C   UNL     1       3.375  -4.381   0.267  0.00  0.00    +0.002 A 
ATOM      5  C   UNL     1       4.737  -4.629   0.241  0.00  0.00    +0.002 A 
ATOM      6  C   UNL     1       5.633  -3.585   0.128  0.00  0.00    +0.028 A 
ATOM      7  C   UNL     1       5.166  -2.280   0.039  0.00  0.00    +0.066 A 
ATOM      8  N   UNL     1       5.805  -1.050  -0.080  0.00  0.00    -0.326 N 
ATOM      9  C   UNL     1       4.855  -0.079  -0.131  0.00  0.00    +0.206 A 
ATOM     10  N   UNL     1       5.091   1.224  -0.249  0.00  0.00    -0.146 NA
ATOM     11  H   UNL     1       6.764  -0.910  -0.123  0.00  0.00    +0.169 HD
ENDROOT
BRANCH   1  15
ATOM     12  C   UNL     1      -0.021   1.366  -0.079  0.00  0.00    +0.000 A 
ATOM     13  C   UNL     1       0.875   1.540  -1.117  0.00  0.00    +0.002 A 
ATOM     14  C   UNL     1       2.084   0.872  -1.107  0.00  0.00    +0.026 A 
ATOM     15  C   UNL     1       2.399   0.026  -0.052  0.00  0.00    +0.050 A 
ATOM     16  C   UNL     1       1.497  -0.146   0.990  0.00  0.00    +0.026 A 
ATOM     17  C   UNL     1       0.290   0.524   0.973  0.00  0.00    +0.002 A 
ENDBRANCH   1  15
BRANCH  10  18
ATOM     18  C   UNL     1       6.332   1.660  -0.447  0.00  0.00    +0.239 C 
ATOM     19  O   UNL     1       7.235   0.865  -0.622  0.00  0.00    -0.274 OA
BRANCH  18  20
ATOM     20  C   UNL     1       6.619   3.139  -0.455  0.00  0.00    +0.098 C 
BRANCH  20  21
ATOM     21  C   UNL     1       8.112   3.368  -0.701  0.00  0.00    +0.017 C 
BRANCH  21  22
ATOM     22  C   UNL     1       8.403   4.870  -0.708  0.00  0.00    +0.075 C 
BRANCH  22  23
ATOM     23  C   UNL     1       9.873   5.095  -0.951  0.00  0.00    +0.110 A 
ATOM     24  N   UNL     1      10.332   6.374  -0.987  0.00  0.00    -0.310 N 
ATOM     25  H   UNL     1       9.714   7.110  -0.858  0.00  0.00    +0.170 HD
ATOM     26  C   UNL     1      11.644   6.629  -1.201  0.00  0.00    +0.259 A 
ATOM     27  O   UNL     1      12.068   7.769  -1.236  0.00  0.00    -0.267 OA
ATOM     28  C   UNL     1      12.536   5.476  -1.390  0.00  0.00    +0.065 A 
ATOM     29  C   UNL     1      13.902   5.630  -1.617  0.00  0.00    +0.015 A 
ATOM     30  C   UNL     1      14.692   4.514  -1.788  0.00  0.00    +0.001 A 
ATOM     31  C   UNL     1      14.138   3.242  -1.736  0.00  0.00    +0.002 A 
ATOM     32  C   UNL     1      12.790   3.068  -1.513  0.00  0.00    +0.028 A 
ATOM     33  C   UNL     1      11.969   4.183  -1.337  0.00  0.00    +0.078 A 
ATOM     34  N   UNL     1      10.637   4.058  -1.109  0.00  0.00    -0.234 NA
ENDBRANCH  22  23
ENDBRANCH  21  22
ENDBRANCH  20  21
ENDBRANCH  18  20
ENDBRANCH  10  18
TORSDOF 6
