REMARK  Name = ZINC12445771
REMARK  4 active torsions:
REMARK  status: ('A' for Active; 'I' for Inactive)
REMARK    1  A    between atoms: C_11  and  C_28
REMARK    2  A    between atoms: C_15  and  C_16
REMARK    3  A    between atoms: C_15  and  N_60
REMARK    4  A    between atoms: C_21  and  C_22
REMARK                            x       y       z     vdW  Elec       q    Type
REMARK                         _______ _______ _______ _____ _____    ______ ____
ROOT
ATOM      1  C   UNL     1       3.741   5.461   0.487  0.00  0.00    +0.001 A 
ATOM      2  C   UNL     1       5.074   5.087   0.444  0.00  0.00    +0.002 A 
ATOM      3  C   UNL     1       5.469   3.760   0.449  0.00  0.00    +0.026 A 
ATOM      4  C   UNL     1       4.460   2.801   0.500  0.00  0.00    +0.047 A 
ATOM      5  C   UNL     1       3.095   3.190   0.544  0.00  0.00    +0.003 A 
ATOM      6  C   UNL     1       2.726   4.538   0.538  0.00  0.00    +0.010 A 
ATOM      7  C   UNL     1       2.334   1.962   0.589  0.00  0.00    -0.022 A 
ATOM      8  C   UNL     1       3.221   0.941   0.573  0.00  0.00    +0.012 A 
ATOM      9  N   UNL     1       4.496   1.436   0.518  0.00  0.00    -0.359 N 
ATOM     10  H   UNL     1       5.303   0.899   0.496  0.00  0.00    +0.166 HD
ATOM     11  C   UNL     1       2.807  -0.511   0.612  0.00  0.00    +0.030 C 
ATOM     12  C   UNL     1       0.541   0.303   0.280  0.00  0.00    -0.072 C 
ATOM     13  C   UNL     1       0.840   1.764   0.644  0.00  0.00    +0.019 C 
ATOM     14  N   UNL     1       1.407  -0.576   1.097  0.00  0.00    +0.392 N 
ATOM     15  H   UNL     1       1.379  -0.257   2.073  0.00  0.00    -0.080 HD
ENDROOT
BRANCH  11  16
ATOM     16  C   UNL     1       3.692  -1.265   1.571  0.00  0.00    +0.033 A 
ATOM     17  C   UNL     1       4.906  -1.761   1.134  0.00  0.00    +0.022 A 
ATOM     18  C   UNL     1       5.715  -2.448   2.026  0.00  0.00    +0.003 A 
ATOM     19  C   UNL     1       5.266  -2.621   3.326  0.00  0.00    +0.020 A 
ATOM     20  C   UNL     1       4.037  -2.102   3.689  0.00  0.00    +0.111 A 
ATOM     21  N   UNL     1       3.296  -1.448   2.815  0.00  0.00    -0.261 NA
ENDBRANCH  11  16
BRANCH  14  22
ATOM     22  C   UNL     1       0.916  -1.968   1.032  0.00  0.00    -0.038 C 
BRANCH  22  23
ATOM     23  C   UNL     1       0.976  -2.488  -0.381  0.00  0.00    -0.023 A 
ATOM     24  C   UNL     1       1.394  -1.796  -1.466  0.00  0.00    +0.107 A 
ATOM     25  N   UNL     1       1.298  -2.613  -2.537  0.00  0.00    -0.284 N 
ATOM     26  H   UNL     1       1.542  -2.380  -3.478  0.00  0.00    +0.188 HD
ATOM     27  N   UNL     1       0.797  -3.844  -2.096  0.00  0.00    -0.178 NA
ATOM     28  C   UNL     1       0.604  -3.768  -0.804  0.00  0.00    +0.067 A 
BRANCH  28  29
ATOM     29  C   UNL     1       0.073  -4.870   0.077  0.00  0.00    +0.040 C 
ATOM     30  C   UNL     1       1.011  -6.077   0.004  0.00  0.00    +0.010 C 
ATOM     31  C   UNL     1       0.472  -7.196   0.898  0.00  0.00    +0.001 C 
ATOM     32  C   UNL     1      -0.922  -7.604   0.420  0.00  0.00    +0.000 C 
ATOM     33  C   UNL     1      -1.860  -6.397   0.493  0.00  0.00    +0.001 C 
ATOM     34  C   UNL     1      -1.321  -5.278  -0.401  0.00  0.00    +0.010 C 
ENDBRANCH  28  29
ENDBRANCH  22  23
ENDBRANCH  14  22
TORSDOF 4
