REMARK  Name = ZINC00874699
REMARK  8 active torsions:
REMARK  status: ('A' for Active; 'I' for Inactive)
REMARK    1  A    between atoms: C_1  and  C_2
REMARK    2  A    between atoms: C_3  and  C_23
REMARK    3  A    between atoms: C_4  and  C_16
REMARK    4  A    between atoms: C_6  and  C_14
REMARK    5  A    between atoms: C_7  and  S_9
REMARK    6  A    between atoms: S_9  and  C_10
REMARK    7  A    between atoms: C_10  and  C_11
REMARK    8  A    between atoms: N_25  and  C_26
REMARK                            x       y       z     vdW  Elec       q    Type
REMARK                         _______ _______ _______ _____ _____    ______ ____
ROOT
ATOM      1  C   UNL     1       5.931   3.067   0.132  0.00  0.00    +0.061 C 
ATOM      2  C   UNL     1       5.884   1.562   0.084  0.00  0.00    +0.014 C 
ATOM      3  C   UNL     1       4.696   0.939   0.033  0.00  0.00    +0.044 C 
ATOM      4  C   UNL     1       4.590  -0.559  -0.014  0.00  0.00    +0.100 C 
ATOM      5  C   UNL     1       5.910  -1.176  -0.382  0.00  0.00    +0.069 C 
ATOM      6  C   UNL     1       7.066  -0.464  -0.309  0.00  0.00    +0.080 C 
ATOM      7  N   UNL     1       7.053   0.851   0.098  0.00  0.00    -0.312 N 
ATOM      8  H   UNL     1       7.984   1.330   0.434  0.00  0.00    +0.152 HD
ENDROOT
BRANCH   4   9
ATOM      9  C   UNL     1       4.165  -1.068   1.339  0.00  0.00    -0.016 A 
ATOM     10  C   UNL     1       4.952  -0.824   2.449  0.00  0.00    +0.006 A 
ATOM     11  C   UNL     1       4.559  -1.287   3.690  0.00  0.00    +0.000 A 
ATOM     12  C   UNL     1       3.384  -2.004   3.821  0.00  0.00    +0.001 A 
ATOM     13  C   UNL     1       2.599  -2.253   2.712  0.00  0.00    +0.020 A 
ATOM     14  C   UNL     1       2.989  -1.785   1.469  0.00  0.00    +0.045 A 
ATOM     15 CL   UNL     1       2.003  -2.097   0.075  0.00  0.00    -0.083 Cl
ENDBRANCH   4   9
BRANCH   3  16
ATOM     16  C   UNL     1       3.511   1.714   0.017  0.00  0.00    +0.247 C 
ATOM     17  O   UNL     1       2.847   1.790  -1.001  0.00  0.00    -0.270 OA
ATOM     18  N   UNL     1       3.119   2.367   1.128  0.00  0.00    -0.282 N 
ATOM     19  H   UNL     1       3.752   2.352   2.027  0.00  0.00    +0.155 HD
BRANCH  18  20
ATOM     20  C   UNL     1       1.906   3.064   1.138  0.00  0.00    +0.034 A 
ATOM     21  C   UNL     1       1.468   3.715  -0.009  0.00  0.00    +0.023 A 
ATOM     22  C   UNL     1       0.273   4.406   0.006  0.00  0.00    +0.002 A 
ATOM     23  C   UNL     1      -0.493   4.442   1.157  0.00  0.00    +0.000 A 
ATOM     24  C   UNL     1      -0.060   3.795   2.300  0.00  0.00    +0.002 A 
ATOM     25  C   UNL     1       1.137   3.107   2.293  0.00  0.00    +0.023 A 
ENDBRANCH  18  20
ENDBRANCH   3  16
BRANCH   5  26
ATOM     26  C   UNL     1       5.950  -2.540  -0.817  0.00  0.00    +0.098 C 
ATOM     27  N   UNL     1       5.982  -3.622  -1.161  0.00  0.00    -0.191 NA
ENDBRANCH   5  26
BRANCH   6  28
ATOM     28  S   UNL     1       8.594  -1.231  -0.740  0.00  0.00    -0.100 S 
BRANCH  28  29
ATOM     29  C   UNL     1       9.729   0.150  -0.458  0.00  0.00    +0.171 C 
BRANCH  29  30
ATOM     30  C   UNL     1      11.137  -0.286  -0.771  0.00  0.00    +0.221 C 
ATOM     31  O   UNL     1      11.352  -1.418  -1.148  0.00  0.00    -0.275 OA
ATOM     32  N   UNL     1      12.158   0.583  -0.633  0.00  0.00    -0.329 N 
ATOM     33  H   UNL     1      13.186   0.265  -0.862  0.00  0.00    +0.145 HD
ATOM     34  H   UNL     1      11.963   1.611  -0.291  0.00  0.00    +0.145 HD
ENDBRANCH  29  30
ENDBRANCH  28  29
ENDBRANCH   6  28
TORSDOF 7
