REMARK  Name = ZINC05557920
REMARK  2 active torsions:
REMARK  status: ('A' for Active; 'I' for Inactive)
REMARK    1  A    between atoms: C_1  and  N_35
REMARK    2  A    between atoms: C_12  and  C_15
REMARK                            x       y       z     vdW  Elec       q    Type
REMARK                         _______ _______ _______ _____ _____    ______ ____
ROOT
ATOM      1  C   UNL     1      -0.243   0.811   2.403  0.00  0.00    -0.096 C 
ATOM      2  C   UNL     1      -0.013   1.086   0.008  0.00  0.00    -0.074 C 
ATOM      3  C   UNL     1      -0.748   1.590  -1.237  0.00  0.00    +0.018 C 
ATOM      4  C   UNL     1      -0.934   3.098  -1.102  0.00  0.00    -0.027 A 
ATOM      5  C   UNL     1      -0.807   3.689   0.109  0.00  0.00    -0.021 A 
ATOM      6  S   UNL     1      -1.098   5.411  -0.191  0.00  0.00    -0.080 S 
ATOM      7  C   UNL     1      -1.382   5.345  -1.878  0.00  0.00    +0.080 A 
ATOM      8  C   UNL     1      -1.247   3.986  -2.207  0.00  0.00    +0.068 A 
ATOM      9  C   UNL     1      -1.445   3.604  -3.624  0.00  0.00    +0.248 C 
ATOM     10  O   UNL     1      -1.467   2.436  -3.968  0.00  0.00    -0.270 OA
ATOM     11  N   UNL     1      -1.599   4.602  -4.518  0.00  0.00    -0.289 N 
ATOM     12  C   UNL     1      -1.353   6.007  -4.208  0.00  0.00    +0.197 C 
ATOM     13  N   UNL     1      -1.684   6.310  -2.804  0.00  0.00    -0.316 N 
ATOM     14  C   UNL     1      -0.491   3.007   1.403  0.00  0.00    -0.036 C 
ATOM     15  H   UNL     1      -1.890   4.375  -5.415  0.00  0.00    +0.151 HD
ATOM     16  H   UNL     1      -2.095   7.150  -2.547  0.00  0.00    +0.149 HD
ATOM     17  N   UNL     1      -0.721   1.554   1.217  0.00  0.00    +0.381 N 
ATOM     18  H   UNL     1      -1.727   1.386   1.101  0.00  0.00    -0.082 HD
ENDROOT
BRANCH  12  19
ATOM     19  C   UNL     1       0.101   6.318  -4.450  0.00  0.00    +0.029 A 
ATOM     20  C   UNL     1       0.957   5.761  -5.342  0.00  0.00    +0.030 A 
ATOM     21  C   UNL     1       2.263   6.210  -5.389  0.00  0.00    +0.025 A 
ATOM     22  C   UNL     1       2.651   7.195  -4.541  0.00  0.00    +0.060 A 
ATOM     23  S   UNL     1       1.143   7.523  -3.643  0.00  0.00    -0.097 S 
ATOM     24 BR   UNL     1       3.492   5.461  -6.616  0.00  0.00    -0.050 Br
ENDBRANCH  12  19
TORSDOF 1
