REMARK  Name = ZINC27529350
REMARK  3 active torsions:
REMARK  status: ('A' for Active; 'I' for Inactive)
REMARK    1  A    between atoms: C_1  and  C_2
REMARK    2  A    between atoms: N_6  and  N_7
REMARK    3  A    between atoms: C_10  and  C_13
REMARK                            x       y       z     vdW  Elec       q    Type
REMARK                         _______ _______ _______ _____ _____    ______ ____
ROOT
ATOM      1  N   UNL     1      -3.866  -2.322  -0.024  0.00  0.00    -0.215 N 
ATOM      2  C   UNL     1      -3.640  -0.974   0.198  0.00  0.00    +0.178 A 
ATOM      3  N   UNL     1      -2.499  -0.308   0.207  0.00  0.00    -0.223 NA
ATOM      4  C   UNL     1      -2.466   0.996   0.440  0.00  0.00    +0.087 A 
ATOM      5  C   UNL     1      -3.635   1.664   0.680  0.00  0.00    +0.077 A 
ATOM      6  S   UNL     1      -4.815   0.327   0.547  0.00  0.00    -0.059 S 
ATOM      7  H   UNL     1      -3.020  -2.995  -0.228  0.00  0.00    +0.176 HD
ENDROOT
BRANCH   4   8
ATOM      8  C   UNL     1      -1.175   1.723   0.445  0.00  0.00    +0.086 A 
ATOM      9  C   UNL     1      -0.002   1.057   0.210  0.00  0.00    +0.028 A 
ATOM     10  C   UNL     1       1.244   1.824   0.221  0.00  0.00    +0.018 A 
ATOM     11  C   UNL     1       2.471   1.192  -0.019  0.00  0.00    +0.011 A 
ATOM     12  C   UNL     1       3.625   1.923  -0.006  0.00  0.00    +0.001 A 
ATOM     13  C   UNL     1       3.591   3.287   0.245  0.00  0.00    +0.004 A 
ATOM     14  C   UNL     1       2.394   3.928   0.484  0.00  0.00    +0.047 A 
ATOM     15  C   UNL     1       1.206   3.206   0.475  0.00  0.00    +0.139 A 
ATOM     16  O   UNL     1       0.032   3.829   0.710  0.00  0.00    -0.422 OA
ATOM     17  C   UNL     1      -1.133   3.164   0.709  0.00  0.00    +0.347 A 
ATOM     18  O   UNL     1      -2.169   3.766   0.925  0.00  0.00    -0.244 OA
ENDBRANCH   4   8
BRANCH   1  24
ATOM     19  C   UNL     1      -6.064  -7.938   1.661  0.00  0.00    +0.007 C 
ATOM     20  C   UNL     1      -5.840  -6.790   0.675  0.00  0.00    -0.013 C 
ATOM     21  C   UNL     1      -6.946  -5.748   0.847  0.00  0.00    +0.009 C 
ATOM     22  C   UNL     1      -6.774  -4.645  -0.202  0.00  0.00    +0.053 C 
ATOM     23  C   UNL     1      -5.372  -4.089  -0.091  0.00  0.00    +0.037 C 
ATOM     24  N   UNL     1      -5.171  -2.829   0.011  0.00  0.00    -0.190 NA
ATOM     25  C   UNL     1      -4.212  -5.060  -0.109  0.00  0.00    +0.053 C 
ATOM     26  C   UNL     1      -4.477  -6.149   0.942  0.00  0.00    +0.009 C 
ENDBRANCH   1  24
TORSDOF 2
