REMARK  Name = ZINC48150920
REMARK  3 active torsions:
REMARK  status: ('A' for Active; 'I' for Inactive)
REMARK    1  A    between atoms: C_1  and  C_2
REMARK    2  A    between atoms: N_14  and  C_15
REMARK    3  A    between atoms: C_20  and  N_21
REMARK                            x       y       z     vdW  Elec       q    Type
REMARK                         _______ _______ _______ _____ _____    ______ ____
ROOT
ATOM      1  C   UNL     1      -0.048   1.517   0.037  0.00  0.00    +0.033 C 
ATOM      2  C   UNL     1      -0.008  -0.012   0.015  0.00  0.00    +0.105 C 
ATOM      3  C   UNL     1      -1.422  -0.569   0.176  0.00  0.00    -0.017 A 
ATOM      4  C   UNL     1      -2.514  -0.103  -0.555  0.00  0.00    +0.013 A 
ATOM      5  C   UNL     1      -3.738  -0.646  -0.363  0.00  0.00    +0.046 A 
ATOM      6  S   UNL     1      -3.403  -1.873   0.891  0.00  0.00    -0.101 S 
ATOM      7  C   UNL     1      -1.665  -1.568   1.066  0.00  0.00    -0.004 A 
ATOM      8  C   UNL     1      -0.692  -2.243   1.977  0.00  0.00    +0.062 C 
ATOM      9  C   UNL     1       0.733  -1.931   1.494  0.00  0.00    +0.115 C 
ATOM     10  N   UNL     1       0.800  -0.506   1.137  0.00  0.00    -0.278 N 
ATOM     11  C   UNL     1       1.591   0.336   1.832  0.00  0.00    +0.307 C 
ATOM     12  O   UNL     1       1.575   1.526   1.587  0.00  0.00    -0.252 OA
ATOM     13  N   UNL     1       2.400  -0.143   2.798  0.00  0.00    -0.267 N 
ATOM     14  H   UNL     1       2.467  -1.099   2.945  0.00  0.00    +0.156 HD
ENDROOT
BRANCH  13  15
ATOM     15  C   UNL     1       3.146   0.741   3.588  0.00  0.00    +0.060 A 
ATOM     16  C   UNL     1       3.667   1.900   3.033  0.00  0.00    +0.025 A 
ATOM     17  C   UNL     1       4.402   2.770   3.815  0.00  0.00    +0.002 A 
ATOM     18  C   UNL     1       4.620   2.490   5.152  0.00  0.00    +0.002 A 
ATOM     19  C   UNL     1       4.104   1.337   5.713  0.00  0.00    +0.029 A 
ATOM     20  C   UNL     1       3.361   0.461   4.937  0.00  0.00    +0.087 A 
BRANCH  20  21
ATOM     21  N   UNL     1       2.831  -0.707   5.506  0.00  0.00    -0.238 N 
ATOM     22  C   UNL     1       2.882  -1.049   6.813  0.00  0.00    +0.114 A 
ATOM     23  C   UNL     1       2.260  -2.243   6.951  0.00  0.00    +0.041 A 
ATOM     24  C   UNL     1       1.814  -2.645   5.688  0.00  0.00    +0.135 A 
ATOM     25  N   UNL     1       2.151  -1.722   4.822  0.00  0.00    -0.175 NA
ENDBRANCH  20  21
ENDBRANCH  13  15
TORSDOF 2
