REMARK  Name = ZINC21150626
REMARK  9 active torsions:
REMARK  status: ('A' for Active; 'I' for Inactive)
REMARK    1  A    between atoms: C_1  and  C_2
REMARK    2  A    between atoms: C_2  and  C_32
REMARK    3  A    between atoms: C_6  and  N_24
REMARK    4  A    between atoms: C_8  and  S_12
REMARK    5  A    between atoms: C_9  and  C_10
REMARK    6  A    between atoms: S_12  and  C_13
REMARK    7  A    between atoms: C_13  and  C_14
REMARK    8  A    between atoms: N_16  and  C_17
REMARK    9  A    between atoms: C_17  and  C_18
REMARK                            x       y       z     vdW  Elec       q    Type
REMARK                         _______ _______ _______ _____ _____    ______ ____
ROOT
ATOM      1  C   UNL     1      -2.126   4.822  13.083  0.00  0.00    +0.041 C 
ATOM      2  C   UNL     1      -2.468   6.259  12.684  0.00  0.00    +0.068 C 
ATOM      3  C   UNL     1      -3.437   6.247  11.499  0.00  0.00    +0.071 C 
ATOM      4  C   UNL     1      -2.717   5.790  10.260  0.00  0.00    -0.016 A 
ATOM      5  C   UNL     1      -1.345   5.778  10.185  0.00  0.00    +0.023 A 
ATOM      6  C   UNL     1      -0.729   5.350   9.006  0.00  0.00    +0.128 A 
ATOM      7  N   UNL     1      -1.445   4.956   7.964  0.00  0.00    -0.224 NA
ATOM      8  C   UNL     1      -2.769   4.948   7.992  0.00  0.00    +0.117 A 
ATOM      9  C   UNL     1      -3.457   5.371   9.143  0.00  0.00    +0.087 A 
ATOM     10  C   UNL     1      -0.490   6.213  11.346  0.00  0.00    +0.199 C 
ATOM     11  O   UNL     1      -1.275   6.945  12.288  0.00  0.00    -0.369 OA
ATOM     12  C   UNL     1      -3.108   6.983  13.870  0.00  0.00    +0.041 C 
ENDROOT
BRANCH   6  13
ATOM     13  N   UNL     1       0.654   5.337   8.926  0.00  0.00    -0.310 N 
ATOM     14  C   UNL     1       1.129   6.238   7.865  0.00  0.00    +0.134 C 
ATOM     15  C   UNL     1       2.659   6.239   7.851  0.00  0.00    +0.178 C 
ATOM     16  O   UNL     1       3.131   4.900   7.676  0.00  0.00    -0.377 OA
ATOM     17  C   UNL     1       2.688   3.996   8.692  0.00  0.00    +0.178 C 
ATOM     18  C   UNL     1       1.157   3.972   8.714  0.00  0.00    +0.134 C 
ENDBRANCH   6  13
BRANCH   9  19
ATOM     19  C   UNL     1      -4.888   5.370   9.178  0.00  0.00    +0.102 C 
ATOM     20  N   UNL     1      -6.024   5.368   9.205  0.00  0.00    -0.191 NA
ENDBRANCH   9  19
BRANCH   8  21
ATOM     21  S   UNL     1      -3.672   4.412   6.577  0.00  0.00    -0.095 S 
BRANCH  21  22
ATOM     22  C   UNL     1      -2.303   4.018   5.461  0.00  0.00    +0.171 C 
BRANCH  22  23
ATOM     23  C   UNL     1      -2.853   3.524   4.147  0.00  0.00    +0.223 C 
ATOM     24  O   UNL     1      -4.052   3.447   3.982  0.00  0.00    -0.275 OA
ATOM     25  N   UNL     1      -2.012   3.168   3.156  0.00  0.00    -0.312 N 
ATOM     26  H   UNL     1      -0.924   3.239   3.306  0.00  0.00    +0.149 HD
BRANCH  25  27
ATOM     27  C   UNL     1      -2.546   2.689   1.879  0.00  0.00    +0.135 C 
BRANCH  27  28
ATOM     28  C   UNL     1      -1.389   2.355   0.935  0.00  0.00    +0.135 C 
ATOM     29  C   UNL     1      -1.923   1.964  -0.466  0.00  0.00    +0.035 C 
ATOM     30  C   UNL     1      -0.771   1.091  -1.021  0.00  0.00    +0.031 C 
ATOM     31  C   UNL     1      -0.004   0.636   0.236  0.00  0.00    +0.160 C 
ATOM     32  O   UNL     1      -0.696   1.166   1.379  0.00  0.00    -0.375 OA
ENDBRANCH  27  28
ENDBRANCH  25  27
ENDBRANCH  22  23
ENDBRANCH  21  22
ENDBRANCH   8  21
TORSDOF 7
