REMARK  Name = ZINC16092936
REMARK  4 active torsions:
REMARK  status: ('A' for Active; 'I' for Inactive)
REMARK    1  A    between atoms: C_1  and  C_2
REMARK    2  A    between atoms: C_11  and  O_13
REMARK    3  A    between atoms: O_13  and  S_14
REMARK    4  A    between atoms: S_14  and  C_17
REMARK                            x       y       z     vdW  Elec       q    Type
REMARK                         _______ _______ _______ _____ _____    ______ ____
ROOT
ATOM      1  C   UNL     1      -2.537  -0.471   0.025  0.00  0.00    +0.045 C 
ATOM      2  C   UNL     1      -2.505   1.036   0.032  0.00  0.00    -0.033 A 
ATOM      3  C   UNL     1      -3.655   1.758   0.047  0.00  0.00    +0.096 A 
ATOM      4  C   UNL     1      -3.599   3.167   0.053  0.00  0.00    +0.337 A 
ATOM      5  O   UNL     1      -4.638   3.803   0.066  0.00  0.00    -0.245 OA
ATOM      6  O   UNL     1      -2.429   3.826   0.045  0.00  0.00    -0.422 OA
ATOM      7  C   UNL     1      -1.250   3.169   0.031  0.00  0.00    +0.143 A 
ATOM      8  C   UNL     1      -1.232   1.761   0.018  0.00  0.00    +0.021 A 
ATOM      9  C   UNL     1      -0.013   1.076   0.008  0.00  0.00    +0.015 A 
ATOM     10  C   UNL     1       1.159   1.776   0.001  0.00  0.00    +0.049 A 
ATOM     11  C   UNL     1       1.148   3.170   0.008  0.00  0.00    +0.160 A 
ATOM     12  C   UNL     1      -0.051   3.864   0.023  0.00  0.00    +0.095 A 
ENDROOT
BRANCH  11  13
ATOM     13  O   UNL     1       2.321   3.852   0.000  0.00  0.00    -0.342 OA
BRANCH  13  14
ATOM     14  S   UNL     1       2.844   4.170  -1.394  0.00  0.00    +0.151 S 
ATOM     15  O   UNL     1       4.156   4.689  -1.227  0.00  0.00    -0.131 OA
ATOM     16  O   UNL     1       2.571   3.032  -2.199  0.00  0.00    -0.131 OA
BRANCH  14  17
ATOM     17  C   UNL     1       1.859   5.486  -2.031  0.00  0.00    +0.131 A 
ATOM     18  C   UNL     1       0.715   5.205  -2.753  0.00  0.00    +0.050 A 
ATOM     19  C   UNL     1      -0.062   6.237  -3.249  0.00  0.00    +0.044 A 
ATOM     20  C   UNL     1       0.314   7.551  -3.031  0.00  0.00    +0.040 A 
ATOM     21  C   UNL     1       1.462   7.831  -2.313  0.00  0.00    +0.044 A 
ATOM     22  C   UNL     1       2.235   6.798  -1.813  0.00  0.00    +0.050 A 
ATOM     23 CL   UNL     1       1.934   9.479  -2.039  0.00  0.00    -0.083 Cl
ATOM     24 CL   UNL     1      -1.503   5.884  -4.149  0.00  0.00    -0.083 Cl
ENDBRANCH  14  17
ENDBRANCH  13  14
ENDBRANCH  11  13
TORSDOF 3
