REMARK  Name = ZINC06724925
REMARK  7 active torsions:
REMARK  status: ('A' for Active; 'I' for Inactive)
REMARK    1  A    between atoms: C_1  and  C_2
REMARK    2  A    between atoms: C_8  and  C_9
REMARK    3  A    between atoms: C_8  and  N_54
REMARK    4  A    between atoms: C_9  and  C_10
REMARK    5  A    between atoms: C_10  and  N_11
REMARK    6  A    between atoms: N_14  and  C_15
REMARK    7  A    between atoms: N_17  and  C_26
REMARK                            x       y       z     vdW  Elec       q    Type
REMARK                         _______ _______ _______ _____ _____    ______ ____
ROOT
ATOM      1  N   UNL     1       3.544  -0.972   0.166  0.00  0.00    -0.299 N 
ATOM      2  C   UNL     1       2.377  -0.304   0.080  0.00  0.00    +0.304 C 
ATOM      3  O   UNL     1       1.325  -0.915   0.086  0.00  0.00    -0.253 OA
ATOM      4  N   UNL     1       2.374   1.040  -0.015  0.00  0.00    -0.268 N 
ATOM      5  H   UNL     1       4.383  -0.484   0.161  0.00  0.00    +0.150 HD
ATOM      6  H   UNL     1       3.212   1.523  -0.089  0.00  0.00    +0.156 HD
ENDROOT
BRANCH   4   7
ATOM      7  C   UNL     1       1.159   1.742  -0.007  0.00  0.00    +0.059 A 
ATOM      8  C   UNL     1       0.904   2.651   0.955  0.00  0.00    +0.112 A 
ATOM      9  N   UNL     1      -0.270   3.354   1.005  0.00  0.00    -0.316 N 
ATOM     10  C   UNL     1      -1.244   3.192   0.089  0.00  0.00    +0.259 A 
ATOM     11  O   UNL     1      -2.273   3.840   0.164  0.00  0.00    -0.267 OA
ATOM     12  C   UNL     1      -1.057   2.223  -0.997  0.00  0.00    +0.048 A 
ATOM     13  C   UNL     1       0.153   1.493  -1.045  0.00  0.00    +0.010 A 
ATOM     14  C   UNL     1       0.359   0.565  -2.066  0.00  0.00    +0.010 A 
ATOM     15  C   UNL     1      -0.611   0.370  -3.009  0.00  0.00    +0.001 A 
ATOM     16  C   UNL     1      -1.801   1.084  -2.966  0.00  0.00    +0.001 A 
ATOM     17  C   UNL     1      -2.033   2.007  -1.970  0.00  0.00    +0.014 A 
ATOM     18  C   UNL     1      -0.470   4.320   2.088  0.00  0.00    +0.152 C 
ENDBRANCH   4   7
BRANCH   1  19
ATOM     19  C   UNL     1       3.547  -2.433   0.269  0.00  0.00    +0.104 C 
BRANCH  19  20
ATOM     20  C   UNL     1       4.989  -2.936   0.354  0.00  0.00    +0.000 C 
BRANCH  20  21
ATOM     21  C   UNL     1       4.992  -4.462   0.461  0.00  0.00    -0.077 C 
BRANCH  21  28
ATOM     22  C   UNL     1       6.432  -4.957  -1.905  0.00  0.00    -0.013 C 
ATOM     23  C   UNL     1       7.153  -4.518  -0.629  0.00  0.00    -0.072 C 
ATOM     24  C   UNL     1       8.543  -5.157  -0.583  0.00  0.00    -0.016 C 
ATOM     25  C   UNL     1       9.252  -4.731   0.705  0.00  0.00    -0.003 C 
ATOM     26  C   UNL     1       8.401  -5.145   1.908  0.00  0.00    -0.019 C 
ATOM     27  C   UNL     1       7.015  -4.506   1.790  0.00  0.00    -0.078 C 
ATOM     28  N   UNL     1       6.375  -4.975   0.542  0.00  0.00    +0.381 N 
ATOM     29  H   UNL     1       6.351  -6.001   0.546  0.00  0.00    -0.081 HD
ENDBRANCH  21  28
ENDBRANCH  20  21
ENDBRANCH  19  20
ENDBRANCH   1  19
TORSDOF 5
