REMARK  Name = ZINC05705817
REMARK  10 active torsions:
REMARK  status: ('A' for Active; 'I' for Inactive)
REMARK    1  A    between atoms: C_1  and  C_2
REMARK    2  A    between atoms: C_2  and  C_30
REMARK    3  A    between atoms: C_6  and  C_15
REMARK    4  A    between atoms: C_8  and  C_12
REMARK    5  A    between atoms: C_9  and  N_11
REMARK    6  A    between atoms: C_18  and  O_23
REMARK    7  A    between atoms: C_19  and  O_21
REMARK    8  A    between atoms: O_21  and  C_22
REMARK    9  A    between atoms: O_23  and  C_24
REMARK   10  A    between atoms: C_24  and  C_25
REMARK                            x       y       z     vdW  Elec       q    Type
REMARK                         _______ _______ _______ _____ _____    ______ ____
ROOT
ATOM      1  C   UNL     1       0.210   1.455  -0.098  0.00  0.00    +0.012 C 
ATOM      2  C   UNL     1       0.160  -0.074  -0.099  0.00  0.00    -0.021 C 
ATOM      3  C   UNL     1      -1.294  -0.541  -0.015  0.00  0.00    +0.081 C 
ATOM      4  C   UNL     1      -1.347  -2.051  -0.056  0.00  0.00    +0.115 C 
ATOM      5  C   UNL     1      -0.422  -2.751  -0.738  0.00  0.00    +0.045 C 
ATOM      6  C   UNL     1      -0.479  -4.259  -0.782  0.00  0.00    +0.096 C 
ATOM      7  C   UNL     1      -1.341  -4.776   0.335  0.00  0.00    +0.083 C 
ATOM      8  C   UNL     1      -2.219  -3.952   0.962  0.00  0.00    +0.193 C 
ATOM      9  O   UNL     1      -2.346  -2.666   0.604  0.00  0.00    -0.446 OA
ATOM     10  C   UNL     1       0.625  -2.107  -1.424  0.00  0.00    +0.164 C 
ATOM     11  O   UNL     1       1.429  -2.772  -2.045  0.00  0.00    -0.292 OA
ATOM     12  C   UNL     1       0.772  -0.609  -1.398  0.00  0.00    +0.086 C 
ATOM     13  C   UNL     1       0.944  -0.615   1.099  0.00  0.00    +0.012 C 
ENDROOT
BRANCH   6  14
ATOM     14  C   UNL     1      -1.058  -4.699  -2.102  0.00  0.00    -0.031 A 
ATOM     15  C   UNL     1      -2.333  -4.303  -2.462  0.00  0.00    +0.008 A 
ATOM     16  C   UNL     1      -2.869  -4.704  -3.671  0.00  0.00    +0.050 A 
ATOM     17  C   UNL     1      -2.127  -5.503  -4.527  0.00  0.00    +0.163 A 
ATOM     18  C   UNL     1      -0.844  -5.901  -4.165  0.00  0.00    +0.162 A 
ATOM     19  C   UNL     1      -0.311  -5.492  -2.953  0.00  0.00    +0.054 A 
BRANCH  18  20
ATOM     20  O   UNL     1      -0.112  -6.685  -5.001  0.00  0.00    -0.491 OA
ATOM     21  C   UNL     1       1.197  -7.055  -4.564  0.00  0.00    +0.277 C 
ENDBRANCH  18  20
BRANCH  17  22
ATOM     22  O   UNL     1      -2.653  -5.899  -5.717  0.00  0.00    -0.474 OA
BRANCH  22  23
ATOM     23  C   UNL     1      -3.976  -5.453  -6.022  0.00  0.00    +0.347 C 
BRANCH  23  24
ATOM     24  C   UNL     1      -4.378  -5.974  -7.339  0.00  0.00    +0.104 C 
ATOM     25  N   UNL     1      -4.688  -6.375  -8.355  0.00  0.00    -0.193 NA
ENDBRANCH  23  24
ENDBRANCH  22  23
ENDBRANCH  17  22
ENDBRANCH   6  14
BRANCH   7  26
ATOM     26  C   UNL     1      -1.239  -6.121   0.733  0.00  0.00    +0.243 C 
ATOM     27  O   UNL     1      -0.312  -6.478   1.439  0.00  0.00    -0.271 OA
ATOM     28  N   UNL     1      -2.165  -7.014   0.334  0.00  0.00    -0.325 N 
ATOM     29  H   UNL     1      -2.903  -6.730  -0.228  0.00  0.00    +0.145 HD
ATOM     30  H   UNL     1      -2.095  -7.942   0.608  0.00  0.00    +0.145 HD
ENDBRANCH   7  26
BRANCH   8  31
ATOM     31  N   UNL     1      -2.990  -4.444   1.982  0.00  0.00    -0.329 N 
ATOM     32  H   UNL     1      -2.843  -5.345   2.310  0.00  0.00    +0.145 HD
ATOM     33  H   UNL     1      -3.683  -3.892   2.376  0.00  0.00    +0.145 HD
ENDBRANCH   8  31
TORSDOF 7
