REMARK  Name = ZINC36566902
REMARK  9 active torsions:
REMARK  status: ('A' for Active; 'I' for Inactive)
REMARK    1  A    between atoms: C_1  and  C_2
REMARK    2  A    between atoms: C_2  and  C_3
REMARK    3  A    between atoms: N_5  and  C_6
REMARK    4  A    between atoms: C_10  and  N_13
REMARK    5  A    between atoms: C_11  and  C_12
REMARK    6  A    between atoms: N_13  and  C_14
REMARK    7  A    between atoms: C_14  and  N_16
REMARK    8  A    between atoms: C_17  and  C_19
REMARK    9  A    between atoms: C_20  and  C_21
REMARK                            x       y       z     vdW  Elec       q    Type
REMARK                         _______ _______ _______ _____ _____    ______ ____
ROOT
ATOM      1  N   UNL     1       2.921  -5.352   4.015  0.00  0.00    -0.296 N 
ATOM      2  H   UNL     1       3.054  -5.938   3.254  0.00  0.00    +0.154 HD
ENDROOT
BRANCH   1   7
ATOM      3  C   UNL     1       1.450  -2.251   2.683  0.00  0.00    +0.038 A 
ATOM      4  C   UNL     1       2.143  -1.298   3.420  0.00  0.00    +0.024 A 
ATOM      5  C   UNL     1       3.087  -1.692   4.348  0.00  0.00    +0.004 A 
ATOM      6  C   UNL     1       3.347  -3.035   4.546  0.00  0.00    +0.023 A 
ATOM      7  C   UNL     1       2.658  -3.993   3.813  0.00  0.00    +0.037 A 
ATOM      8  C   UNL     1       1.704  -3.600   2.885  0.00  0.00    -0.008 A 
ATOM      9  C   UNL     1       0.951  -4.637   2.092  0.00  0.00    +0.047 C 
BRANCH   3  12
ATOM     10  C   UNL     1      -0.053  -0.622   1.820  0.00  0.00    +0.217 C 
ATOM     11  O   UNL     1       0.207   0.100   2.759  0.00  0.00    -0.275 OA
ATOM     12  N   UNL     1       0.494  -1.851   1.743  0.00  0.00    -0.285 N 
ATOM     13  H   UNL     1       0.226  -2.459   1.036  0.00  0.00    +0.155 HD
BRANCH  10  15
ATOM     14  C   UNL     1      -1.464   1.272   1.065  0.00  0.00    +0.013 C 
ATOM     15  C   UNL     1      -0.987  -0.144   0.738  0.00  0.00    +0.093 C 
ENDBRANCH  10  15
ENDBRANCH   3  12
ENDBRANCH   1   7
BRANCH   1  16
ATOM     16  C   UNL     1       2.989  -5.846   5.267  0.00  0.00    +0.141 C 
ATOM     17  S   UNL     1       2.878  -4.792   6.611  0.00  0.00    -0.018 S 
BRANCH  16  18
ATOM     18  N   UNL     1       3.145  -7.171   5.461  0.00  0.00    -0.264 N 
ATOM     19  C   UNL     1       3.213  -7.665   6.713  0.00  0.00    +0.242 C 
ATOM     20  O   UNL     1       3.134  -6.915   7.669  0.00  0.00    -0.270 OA
ATOM     21  H   UNL     1       3.208  -7.768   4.700  0.00  0.00    +0.157 HD
BRANCH  19  22
ATOM     22  C   UNL     1       3.376  -9.054   6.916  0.00  0.00    +0.069 C 
ATOM     23  C   UNL     1       3.445  -9.552   8.177  0.00  0.00    +0.020 C 
BRANCH  23  24
ATOM     24  C   UNL     1       3.609 -10.943   8.381  0.00  0.00    +0.012 A 
ATOM     25  C   UNL     1       3.696 -11.650   9.575  0.00  0.00    +0.015 A 
ATOM     26  C   UNL     1       3.854 -13.009   9.451  0.00  0.00    +0.008 A 
ATOM     27  C   UNL     1       3.914 -13.557   8.212  0.00  0.00    +0.046 A 
ATOM     28  S   UNL     1       3.749 -12.247   7.173  0.00  0.00    -0.097 S 
ENDBRANCH  23  24
ENDBRANCH  19  22
ENDBRANCH  16  18
ENDBRANCH   1  16
TORSDOF 7
