REMARK  Name = ZINC39673742
REMARK  7 active torsions:
REMARK  status: ('A' for Active; 'I' for Inactive)
REMARK    1  A    between atoms: C_1  and  C_2
REMARK    2  A    between atoms: C_2  and  C_3
REMARK    3  A    between atoms: C_3  and  C_4
REMARK    4  A    between atoms: C_4  and  C_6
REMARK    5  A    between atoms: C_4  and  N_7
REMARK    6  A    between atoms: C_8  and  C_10
REMARK    7  A    between atoms: C_21  and  C_23
REMARK                            x       y       z     vdW  Elec       q    Type
REMARK                         _______ _______ _______ _____ _____    ______ ____
ROOT
ATOM      1  C   UNL     1       1.146  -4.166  -2.979  0.00  0.00    +0.100 C 
ATOM      2  C   UNL     1      -0.164  -4.310  -3.786  0.00  0.00    +0.121 C 
ATOM      3  N   UNL     1      -0.049  -5.627  -4.454  0.00  0.00    -0.296 N 
ATOM      4  C   UNL     1       0.579  -6.503  -3.437  0.00  0.00    +0.115 C 
ATOM      5  C   UNL     1       1.631  -5.608  -2.752  0.00  0.00    -0.004 C 
ATOM      6  C   UNL     1       2.999  -5.813  -3.395  0.00  0.00    -0.010 C 
ATOM      7  C   UNL     1       3.484  -7.237  -3.107  0.00  0.00    -0.082 C 
ATOM      8  N   UNL     1       3.567  -7.443  -1.655  0.00  0.00    +0.379 N 
ATOM      9  C   UNL     1       2.231  -7.335  -1.057  0.00  0.00    -0.082 C 
ATOM     10  C   UNL     1       1.692  -5.916  -1.259  0.00  0.00    -0.010 C 
ATOM     11  C   UNL     1      -0.430  -5.955  -5.705  0.00  0.00    +0.249 C 
ATOM     12  O   UNL     1      -0.343  -7.107  -6.085  0.00  0.00    -0.270 OA
ATOM     13  H   UNL     1       3.944  -8.360  -1.468  0.00  0.00    -0.086 HD
ATOM     14  H   UNL     1       4.172  -6.744  -1.252  0.00  0.00    -0.086 HD
ENDROOT
BRANCH  11  15
ATOM     15  C   UNL     1      -0.952  -4.915  -6.614  0.00  0.00    +0.073 A 
ATOM     16  C   UNL     1      -1.798  -3.917  -6.126  0.00  0.00    +0.036 A 
ATOM     17  C   UNL     1      -2.282  -2.948  -6.981  0.00  0.00    +0.042 A 
ATOM     18  C   UNL     1      -1.931  -2.963  -8.321  0.00  0.00    +0.023 A 
ATOM     19  C   UNL     1      -1.095  -3.947  -8.813  0.00  0.00    +0.040 A 
ATOM     20  C   UNL     1      -0.597  -4.921  -7.967  0.00  0.00    +0.136 A 
ATOM     21  F   UNL     1       0.225  -5.880  -8.447  0.00  0.00    -0.205 F 
ATOM     22 CL   UNL     1      -3.335  -1.707  -6.375  0.00  0.00    -0.084 Cl
ENDBRANCH  11  15
BRANCH   1  24
ATOM     23  N   UNL     1       1.840  -2.744  -1.077  0.00  0.00    -0.312 N 
ATOM     24  C   UNL     1       0.878  -3.488  -1.660  0.00  0.00    +0.218 C 
ATOM     25  O   UNL     1      -0.202  -3.612  -1.123  0.00  0.00    -0.275 OA
ATOM     26  H   UNL     1       2.704  -2.646  -1.507  0.00  0.00    +0.149 HD
BRANCH  23  27
ATOM     27  C   UNL     1       1.579  -2.086   0.205  0.00  0.00    +0.070 C 
ATOM     28  C   UNL     1       0.894  -0.740  -0.043  0.00  0.00    +0.028 C 
BRANCH  27  29
ATOM     29  C   UNL     1       2.902  -1.856   0.939  0.00  0.00    +0.022 C 
BRANCH  29  31
ATOM     30  C   UNL     1       4.850  -2.977   2.030  0.00  0.00    +0.004 C 
ATOM     31  C   UNL     1       3.527  -3.206   1.297  0.00  0.00    -0.002 C 
ENDBRANCH  29  31
ENDBRANCH  27  29
ENDBRANCH  23  27
ENDBRANCH   1  24
TORSDOF 5
