REMARK  Name = ZINC05295131
REMARK  6 active torsions:
REMARK  status: ('A' for Active; 'I' for Inactive)
REMARK    1  A    between atoms: C_1  and  N_2
REMARK    2  A    between atoms: N_11  and  C_25
REMARK    3  A    between atoms: N_14  and  N_15
REMARK    4  A    between atoms: C_16  and  C_17
REMARK    5  A    between atoms: C_18  and  C_19
REMARK    6  A    between atoms: C_25  and  C_26
REMARK                            x       y       z     vdW  Elec       q    Type
REMARK                         _______ _______ _______ _____ _____    ______ ____
ROOT
ATOM      1  C   UNL     1       6.511   2.998  -0.042  0.00  0.00    +0.155 C 
ATOM      2  N   UNL     1       5.785   4.269  -0.029  0.00  0.00    -0.280 N 
ATOM      3  C   UNL     1       4.399   4.275  -0.016  0.00  0.00    +0.170 A 
ATOM      4  C   UNL     1       3.734   5.497  -0.004  0.00  0.00    +0.153 A 
ATOM      5  C   UNL     1       4.484   6.687  -0.004  0.00  0.00    +0.280 A 
ATOM      6  O   UNL     1       3.922   7.768   0.006  0.00  0.00    -0.265 OA
ATOM      7  N   UNL     1       5.831   6.618  -0.016  0.00  0.00    -0.273 N 
ATOM      8  H   UNL     1       6.367   7.462  -0.016  0.00  0.00    +0.173 HD
ATOM      9  C   UNL     1       6.464   5.432  -0.029  0.00  0.00    +0.331 A 
ATOM     10  O   UNL     1       7.679   5.409  -0.040  0.00  0.00    -0.246 OA
ATOM     11  N   UNL     1       2.378   5.204   0.007  0.00  0.00    -0.301 N 
ATOM     12  C   UNL     1       2.270   3.848   0.001  0.00  0.00    +0.218 A 
ATOM     13  N   UNL     1       3.475   3.313  -0.008  0.00  0.00    -0.195 NA
ATOM     14  N   UNL     1       1.088   3.143   0.009  0.00  0.00    -0.206 N 
ATOM     15  H   UNL     1       0.241   3.617   0.019  0.00  0.00    +0.177 HD
ENDROOT
BRANCH  14  16
ATOM     16  N   UNL     1       1.107   1.742   0.001  0.00  0.00    -0.188 NA
ATOM     17  C   UNL     1      -0.013   1.076   0.008  0.00  0.00    +0.130 C 
BRANCH  17  18
ATOM     18  C   UNL     1      -1.250   1.768   0.018  0.00  0.00    +0.022 C 
ATOM     19  C   UNL     1      -2.409   1.077   0.019  0.00  0.00    +0.009 C 
BRANCH  19  20
ATOM     20  C   UNL     1      -3.693   1.796   0.029  0.00  0.00    -0.025 A 
ATOM     21  C   UNL     1      -3.716   3.194   0.043  0.00  0.00    +0.008 A 
ATOM     22  C   UNL     1      -4.924   3.860   0.047  0.00  0.00    +0.001 A 
ATOM     23  C   UNL     1      -6.111   3.148   0.049  0.00  0.00    +0.000 A 
ATOM     24  C   UNL     1      -6.096   1.764   0.041  0.00  0.00    +0.001 A 
ATOM     25  C   UNL     1      -4.897   1.084   0.031  0.00  0.00    +0.008 A 
ENDBRANCH  19  20
ENDBRANCH  17  18
ENDBRANCH  14  16
BRANCH  11  26
ATOM     26  C   UNL     1       1.275   6.168   0.023  0.00  0.00    +0.160 C 
BRANCH  26  27
ATOM     27  C   UNL     1       0.910   6.491   1.449  0.00  0.00    -0.027 A 
ATOM     28  C   UNL     1      -0.050   5.741   2.103  0.00  0.00    +0.005 A 
ATOM     29  C   UNL     1      -0.381   6.033   3.413  0.00  0.00    +0.001 A 
ATOM     30  C   UNL     1       0.239   7.082   4.066  0.00  0.00    +0.015 A 
ATOM     31  C   UNL     1       1.196   7.836   3.410  0.00  0.00    +0.018 A 
ATOM     32  C   UNL     1       1.531   7.540   2.101  0.00  0.00    +0.020 A 
ATOM     33 BR   UNL     1       2.044   9.271   4.302  0.00  0.00    -0.050 Br
ENDBRANCH  26  27
ENDBRANCH  11  26
TORSDOF 5
