REMARK  Name = ZINC07855727
REMARK  5 active torsions:
REMARK  status: ('A' for Active; 'I' for Inactive)
REMARK    1  A    between atoms: C_1  and  C_2
REMARK    2  A    between atoms: C_2  and  C_17
REMARK    3  A    between atoms: N_3  and  N_4
REMARK    4  A    between atoms: C_5  and  C_7
REMARK    5  A    between atoms: C_7  and  N_8
REMARK                            x       y       z     vdW  Elec       q    Type
REMARK                         _______ _______ _______ _____ _____    ______ ____
ROOT
ATOM      1  N   UNL     1       0.023   0.044   2.324  0.00  0.00    -0.206 N 
ATOM      2  C   UNL     1       0.044  -0.636   3.487  0.00  0.00    +0.254 C 
ATOM      3  O   UNL     1       0.060  -1.849   3.481  0.00  0.00    -0.272 OA
ATOM      4  H   UNL     1       0.010   1.014   2.329  0.00  0.00    +0.177 HD
ENDROOT
BRANCH   1   7
ATOM      5  C   UNL     1      -0.018   1.503   0.010  0.00  0.00    +0.063 C 
ATOM      6  C   UNL     1       0.002  -0.004   0.002  0.00  0.00    +0.040 C 
ATOM      7  N   UNL     1       0.021  -0.650   1.107  0.00  0.00    -0.189 NA
BRANCH   6   8
ATOM      8  C   UNL     1      -0.000  -0.750  -1.307  0.00  0.00    +0.011 C 
ATOM      9  C   UNL     1       1.236  -0.360  -2.119  0.00  0.00    +0.016 C 
ATOM     10  C   UNL     1       1.234  -1.117  -3.448  0.00  0.00    -0.010 C 
ATOM     11  C   UNL     1       1.257  -2.623  -3.177  0.00  0.00    +0.007 C 
ATOM     12  C   UNL     1       0.021  -3.014  -2.365  0.00  0.00    -0.010 C 
ATOM     13  C   UNL     1       0.023  -2.256  -1.036  0.00  0.00    +0.016 C 
ATOM     14  C   UNL     1      -1.241  -2.657  -3.153  0.00  0.00    +0.007 C 
ATOM     15  C   UNL     1      -1.264  -1.151  -3.425  0.00  0.00    -0.010 C 
ATOM     16  C   UNL     1      -0.028  -0.760  -4.237  0.00  0.00    +0.007 C 
ATOM     17  C   UNL     1      -1.262  -0.394  -2.095  0.00  0.00    +0.016 C 
ENDBRANCH   6   8
ENDBRANCH   1   7
BRANCH   2  18
ATOM     18  C   UNL     1       0.046   0.110   4.797  0.00  0.00    +0.243 C 
BRANCH  18  19
ATOM     19  N   UNL     1       0.070  -0.848   5.905  0.00  0.00    -0.235 N 
ATOM     20  C   UNL     1      -1.018  -1.405   6.534  0.00  0.00    +0.090 A 
ATOM     21  C   UNL     1      -2.395  -1.282   6.374  0.00  0.00    +0.029 A 
ATOM     22  C   UNL     1      -3.238  -1.991   7.183  0.00  0.00    +0.002 A 
ATOM     23  C   UNL     1      -2.733  -2.834   8.165  0.00  0.00    +0.002 A 
ATOM     24  C   UNL     1      -1.388  -2.971   8.342  0.00  0.00    +0.032 A 
ATOM     25  C   UNL     1      -0.501  -2.256   7.526  0.00  0.00    +0.113 A 
ATOM     26  N   UNL     1       0.843  -2.187   7.464  0.00  0.00    -0.129 NA
ATOM     27  N   UNL     1       1.207  -1.382   6.529  0.00  0.00    -0.064 NA
ENDBRANCH  18  19
ENDBRANCH   2  18
TORSDOF 4
