REMARK  Name = ZINC02990507
REMARK  6 active torsions:
REMARK  status: ('A' for Active; 'I' for Inactive)
REMARK    1  A    between atoms: C_1  and  C_2
REMARK    2  A    between atoms: C_2  and  C_3
REMARK    3  A    between atoms: C_3  and  O_4
REMARK    4  A    between atoms: O_4  and  C_5
REMARK    5  A    between atoms: C_10  and  N_11
REMARK    6  A    between atoms: C_20  and  C_34
REMARK                            x       y       z     vdW  Elec       q    Type
REMARK                         _______ _______ _______ _____ _____    ______ ____
ROOT
ATOM      1  N   UNL     1       0.830  -4.700  -1.377  0.00  0.00    -0.206 N 
ATOM      2  C   UNL     1      -0.442  -5.119  -1.407  0.00  0.00    +0.231 C 
ATOM      3  O   UNL     1      -1.238  -4.883  -2.290  0.00  0.00    -0.274 OA
ATOM      4  C   UNL     1      -0.726  -5.934  -0.164  0.00  0.00    +0.101 C 
ATOM      5  C   UNL     1       0.612  -5.913   0.597  0.00  0.00    +0.103 C 
ATOM      6  C   UNL     1       1.517  -5.094  -0.297  0.00  0.00    +0.231 C 
ATOM      7  O   UNL     1       2.679  -4.832  -0.070  0.00  0.00    -0.274 OA
ATOM      8  C   UNL     1       1.195  -7.336   0.736  0.00  0.00    +0.030 C 
ATOM      9  C   UNL     1       0.103  -8.157   1.404  0.00  0.00    -0.033 A 
ATOM     10  C   UNL     1       0.247  -8.835   2.580  0.00  0.00    +0.005 A 
ATOM     11  C   UNL     1      -0.836  -9.547   3.079  0.00  0.00    +0.000 A 
ATOM     12  C   UNL     1      -2.037  -9.568   2.394  0.00  0.00    +0.000 A 
ATOM     13  C   UNL     1      -2.176  -8.876   1.198  0.00  0.00    +0.004 A 
ATOM     14  C   UNL     1      -1.107  -8.177   0.714  0.00  0.00    -0.035 A 
ATOM     15  C   UNL     1      -1.116  -7.366  -0.590  0.00  0.00    +0.062 C 
ATOM     16  C   UNL     1       0.064  -7.883  -1.398  0.00  0.00    -0.035 A 
ATOM     17  C   UNL     1       1.287  -7.876  -0.683  0.00  0.00    -0.033 A 
ATOM     18  C   UNL     1       2.435  -8.317  -1.276  0.00  0.00    +0.005 A 
ATOM     19  C   UNL     1       2.377  -8.786  -2.582  0.00  0.00    +0.000 A 
ATOM     20  C   UNL     1       1.175  -8.804  -3.266  0.00  0.00    +0.000 A 
ATOM     21  C   UNL     1      -0.010  -8.328  -2.687  0.00  0.00    +0.004 A 
ATOM     22  C   UNL     1       2.533  -7.365   1.477  0.00  0.00    +0.022 C 
ENDROOT
BRANCH   1  28
ATOM     23  C   UNL     1       1.341  -2.530  -2.323  0.00  0.00    +0.142 A 
ATOM     24  C   UNL     1       1.908  -1.763  -3.329  0.00  0.00    +0.047 A 
ATOM     25  C   UNL     1       2.522  -2.378  -4.404  0.00  0.00    +0.004 A 
ATOM     26  C   UNL     1       2.573  -3.758  -4.479  0.00  0.00    +0.002 A 
ATOM     27  C   UNL     1       2.010  -4.529  -3.480  0.00  0.00    +0.027 A 
ATOM     28  C   UNL     1       1.397  -3.919  -2.396  0.00  0.00    +0.085 A 
BRANCH  23  29
ATOM     29  O   UNL     1       0.738  -1.926  -1.265  0.00  0.00    -0.490 OA
BRANCH  29  30
ATOM     30  C   UNL     1       0.718  -0.497  -1.257  0.00  0.00    +0.229 C 
BRANCH  30  32
ATOM     31  C   UNL     1      -0.019   1.526   0.010  0.00  0.00    +0.007 C 
ATOM     32  C   UNL     1       0.002  -0.004   0.002  0.00  0.00    +0.038 C 
ENDBRANCH  30  32
ENDBRANCH  29  30
ENDBRANCH  23  29
ENDBRANCH   1  28
TORSDOF 4
