REMARK  Name = ZINC00714291
REMARK  7 active torsions:
REMARK  status: ('A' for Active; 'I' for Inactive)
REMARK    1  A    between atoms: C_1  and  C_2
REMARK    2  A    between atoms: C_2  and  O_3
REMARK    3  A    between atoms: O_3  and  C_4
REMARK    4  A    between atoms: C_4  and  C_6
REMARK    5  A    between atoms: C_7  and  N_26
REMARK    6  A    between atoms: C_9  and  C_18
REMARK    7  A    between atoms: C_19  and  C_20
REMARK                            x       y       z     vdW  Elec       q    Type
REMARK                         _______ _______ _______ _____ _____    ______ ____
ROOT
ATOM      1  C   UNL     1       0.142   6.827  -2.892  0.00  0.00    +0.119 A 
ATOM      2  C   UNL     1       0.817   5.923  -2.096  0.00  0.00    +0.056 A 
ATOM      3  C   UNL     1       1.666   6.439  -1.039  0.00  0.00    +0.037 A 
ATOM      4  C   UNL     1       2.458   5.714  -0.093  0.00  0.00    -0.009 A 
ATOM      5  C   UNL     1       3.201   6.424   0.850  0.00  0.00    -0.018 A 
ATOM      6  C   UNL     1       3.175   7.806   0.854  0.00  0.00    +0.046 A 
ATOM      7  N   UNL     1       2.437   8.463  -0.028  0.00  0.00    -0.244 NA
ATOM      8  C   UNL     1       1.713   7.846  -0.934  0.00  0.00    +0.112 A 
ATOM      9  S   UNL     1       0.637   8.406  -2.232  0.00  0.00    -0.060 S 
ATOM     10  C   UNL     1       4.066   8.331   1.961  0.00  0.00    +0.056 C 
ATOM     11  C   UNL     1       4.978   7.146   2.341  0.00  0.00    +0.011 C 
ATOM     12  C   UNL     1       4.119   5.926   1.947  0.00  0.00    +0.038 C 
ENDROOT
BRANCH   2  13
ATOM     13  N   UNL     1       0.687   4.557  -2.302  0.00  0.00    -0.356 N 
ATOM     14  H   UNL     1       1.062   3.932  -1.661  0.00  0.00    +0.142 HD
ATOM     15  H   UNL     1       0.221   4.227  -3.086  0.00  0.00    +0.142 HD
ENDBRANCH   2  13
BRANCH   1  16
ATOM     16  C   UNL     1      -0.733   6.562  -3.971  0.00  0.00    +0.348 C 
ATOM     17  O   UNL     1      -0.967   5.413  -4.298  0.00  0.00    -0.244 OA
BRANCH  16  18
ATOM     18  O   UNL     1      -1.308   7.584  -4.640  0.00  0.00    -0.461 OA
BRANCH  18  20
ATOM     19  C   UNL     1      -2.732   8.523  -6.352  0.00  0.00    +0.048 C 
ATOM     20  C   UNL     1      -2.180   7.244  -5.720  0.00  0.00    +0.229 C 
ENDBRANCH  18  20
ENDBRANCH  16  18
ENDBRANCH   1  16
BRANCH   4  21
ATOM     21  C   UNL     1       2.482   4.244  -0.111  0.00  0.00    +0.009 C 
ATOM     22  C   UNL     1       2.139   3.552   0.990  0.00  0.00    +0.008 C 
BRANCH  22  23
ATOM     23  C   UNL     1       2.163   2.080   0.973  0.00  0.00    -0.025 A 
ATOM     24  C   UNL     1       1.807   1.357   2.115  0.00  0.00    +0.008 A 
ATOM     25  C   UNL     1       1.832  -0.021   2.091  0.00  0.00    +0.001 A 
ATOM     26  C   UNL     1       2.209  -0.690   0.939  0.00  0.00    +0.000 A 
ATOM     27  C   UNL     1       2.564   0.018  -0.196  0.00  0.00    +0.001 A 
ATOM     28  C   UNL     1       2.544   1.397  -0.186  0.00  0.00    +0.008 A 
ENDBRANCH  22  23
ENDBRANCH   4  21
TORSDOF 6
