REMARK  Name = ZINC20569523
REMARK  12 active torsions:
REMARK  status: ('A' for Active; 'I' for Inactive)
REMARK    1  A    between atoms: C_1  and  C_2
REMARK    2  A    between atoms: C_7  and  C_21
REMARK    3  A    between atoms: C_9  and  C_13
REMARK    4  A    between atoms: C_10  and  C_12
REMARK    5  A    between atoms: C_13  and  O_15
REMARK    6  A    between atoms: O_15  and  C_16
REMARK    7  A    between atoms: C_24  and  O_28
REMARK    8  A    between atoms: C_25  and  O_27
REMARK    9  A    between atoms: O_28  and  C_29
REMARK   10  A    between atoms: C_32  and  C_34
REMARK   11  A    between atoms: C_34  and  O_36
REMARK   12  A    between atoms: O_36  and  C_37
REMARK                            x       y       z     vdW  Elec       q    Type
REMARK                         _______ _______ _______ _____ _____    ______ ____
ROOT
ATOM      1  C   UNL     1       3.807   0.667  -1.464  0.00  0.00    +0.009 C 
ATOM      2  C   UNL     1       3.998   1.871  -0.539  0.00  0.00    +0.013 C 
ATOM      3  C   UNL     1       3.163   3.050  -1.043  0.00  0.00    +0.055 C 
ATOM      4  C   UNL     1       1.701   2.679  -1.026  0.00  0.00    +0.016 C 
ATOM      5  C   UNL     1       1.215   1.811  -0.113  0.00  0.00    +0.025 C 
ATOM      6  C   UNL     1      -0.251   1.454  -0.094  0.00  0.00    +0.092 C 
ATOM      7  C   UNL     1      -0.908   1.810  -1.396  0.00  0.00    +0.065 C 
ATOM      8  C   UNL     1      -0.334   2.671  -2.254  0.00  0.00    +0.016 C 
ATOM      9  N   UNL     1       0.874   3.240  -1.961  0.00  0.00    -0.321 N 
ATOM     10  C   UNL     1      -1.028   3.011  -3.548  0.00  0.00    +0.061 C 
ATOM     11  C   UNL     1       2.056   1.216   0.843  0.00  0.00    +0.176 C 
ATOM     12  O   UNL     1       1.584   0.447   1.657  0.00  0.00    -0.291 OA
ATOM     13  C   UNL     1       3.531   1.513   0.875  0.00  0.00    +0.171 C 
ATOM     14  H   UNL     1       1.178   4.158  -2.485  0.00  0.00    +0.152 HD
ENDROOT
BRANCH   6  15
ATOM     15  C   UNL     1      -0.928   2.205   1.023  0.00  0.00    -0.032 A 
ATOM     16  C   UNL     1      -0.929   3.587   1.024  0.00  0.00    +0.008 A 
ATOM     17  C   UNL     1      -1.550   4.280   2.046  0.00  0.00    +0.050 A 
ATOM     18  C   UNL     1      -2.174   3.589   3.072  0.00  0.00    +0.161 A 
ATOM     19  C   UNL     1      -2.173   2.198   3.071  0.00  0.00    +0.159 A 
ATOM     20  C   UNL     1      -1.553   1.509   2.041  0.00  0.00    +0.053 A 
BRANCH  19  21
ATOM     21  O   UNL     1      -2.784   1.515   4.077  0.00  0.00    -0.503 OA
ATOM     22  H   UNL     1      -2.782   0.415   4.075  0.00  0.00    +0.292 HD
ENDBRANCH  19  21
BRANCH  18  23
ATOM     23  O   UNL     1      -2.786   4.270   4.078  0.00  0.00    -0.491 OA
ATOM     24  C   UNL     1      -2.748   5.697   4.014  0.00  0.00    +0.277 C 
ENDBRANCH  18  23
ENDBRANCH   6  15
BRANCH   7  25
ATOM     25  C   UNL     1      -2.154   1.228  -1.725  0.00  0.00    +0.338 C 
ATOM     26  O   UNL     1      -2.697   1.509  -2.777  0.00  0.00    -0.245 OA
BRANCH  25  27
ATOM     27  O   UNL     1      -2.741   0.363  -0.872  0.00  0.00    -0.458 OA
BRANCH  27  28
ATOM     28  C   UNL     1      -4.000  -0.186  -1.269  0.00  0.00    +0.177 C 
ATOM     29  C   UNL     1      -5.151   0.684  -0.725  0.00  0.00    +0.044 C 
ATOM     30  C   UNL     1      -6.251  -0.339  -0.343  0.00  0.00    +0.004 C 
ATOM     31  C   UNL     1      -5.434  -1.520   0.236  0.00  0.00    +0.004 C 
ATOM     32  C   UNL     1      -4.179  -1.587  -0.659  0.00  0.00    +0.044 C 
ENDBRANCH  27  28
ENDBRANCH  25  27
ENDBRANCH   7  25
BRANCH  13  33
ATOM     33  C   UNL     1       4.279   0.299   1.362  0.00  0.00    +0.318 C 
ATOM     34  O   UNL     1       3.875  -0.808   1.093  0.00  0.00    -0.250 OA
BRANCH  33  35
ATOM     35  O   UNL     1       5.395   0.447   2.094  0.00  0.00    -0.467 OA
ATOM     36  C   UNL     1       6.064  -0.766   2.528  0.00  0.00    +0.280 C 
ENDBRANCH  33  35
ENDBRANCH  13  33
TORSDOF 8
