REMARK  Name = ZINC39898962
REMARK  10 active torsions:
REMARK  status: ('A' for Active; 'I' for Inactive)
REMARK    1  A    between atoms: C_1  and  C_2
REMARK    2  A    between atoms: C_5  and  C_8
REMARK    3  A    between atoms: C_8  and  N_9
REMARK    4  A    between atoms: C_10  and  C_28
REMARK    5  A    between atoms: C_13  and  C_20
REMARK    6  A    between atoms: C_31  and  O_36
REMARK    7  A    between atoms: C_32  and  O_34
REMARK    8  A    between atoms: O_34  and  C_35
REMARK    9  A    between atoms: O_36  and  C_37
REMARK   10  A    between atoms: C_37  and  C_38
REMARK                            x       y       z     vdW  Elec       q    Type
REMARK                         _______ _______ _______ _____ _____    ______ ____
ROOT
ATOM      1  N   UNL     1       1.447  -4.746  -0.032  0.00  0.00    -0.281 N 
ATOM      2  C   UNL     1       2.249  -5.007  -1.232  0.00  0.00    +0.142 C 
ATOM      3  C   UNL     1       3.597  -5.469  -0.748  0.00  0.00    +0.035 A 
ATOM      4  C   UNL     1       4.848  -5.890  -1.067  0.00  0.00    +0.075 A 
ATOM      5  N   UNL     1       5.496  -6.120   0.113  0.00  0.00    -0.276 N 
ATOM      6  N   UNL     1       4.714  -5.863   1.100  0.00  0.00    -0.168 NA
ATOM      7  H   UNL     1       6.412  -6.431   0.194  0.00  0.00    +0.189 HD
ATOM      8  C   UNL     1       3.537  -5.461   0.664  0.00  0.00    +0.153 A 
ATOM      9  C   UNL     1       2.192  -5.002   1.057  0.00  0.00    +0.268 C 
ATOM     10  O   UNL     1       1.810  -4.876   2.204  0.00  0.00    -0.268 OA
ENDROOT
BRANCH   4  11
ATOM     11  C   UNL     1       5.402  -6.066  -2.428  0.00  0.00    +0.048 A 
ATOM     12  C   UNL     1       5.751  -7.337  -2.883  0.00  0.00    +0.033 A 
ATOM     13  C   UNL     1       6.267  -7.495  -4.154  0.00  0.00    +0.042 A 
ATOM     14  C   UNL     1       6.439  -6.396  -4.978  0.00  0.00    +0.024 A 
ATOM     15  C   UNL     1       6.096  -5.132  -4.537  0.00  0.00    +0.053 A 
ATOM     16  C   UNL     1       5.571  -4.959  -3.266  0.00  0.00    +0.188 A 
ATOM     17  O   UNL     1       5.229  -3.717  -2.834  0.00  0.00    -0.287 OA
ATOM     18 CL   UNL     1       6.702  -9.078  -4.720  0.00  0.00    -0.084 Cl
ENDBRANCH   4  11
BRANCH   2  19
ATOM     19  C   UNL     1       2.394  -3.746  -2.043  0.00  0.00    -0.019 A 
ATOM     20  C   UNL     1       2.573  -2.532  -1.405  0.00  0.00    +0.009 A 
ATOM     21  C   UNL     1       2.706  -1.372  -2.145  0.00  0.00    +0.050 A 
ATOM     22  C   UNL     1       2.660  -1.423  -3.529  0.00  0.00    +0.162 A 
ATOM     23  C   UNL     1       2.479  -2.645  -4.171  0.00  0.00    +0.162 A 
ATOM     24  C   UNL     1       2.352  -3.804  -3.424  0.00  0.00    +0.055 A 
BRANCH  23  25
ATOM     25  O   UNL     1       2.433  -2.700  -5.529  0.00  0.00    -0.491 OA
ATOM     26  C   UNL     1       2.245  -3.988  -6.120  0.00  0.00    +0.277 C 
ENDBRANCH  23  25
BRANCH  22  27
ATOM     27  O   UNL     1       2.790  -0.283  -4.258  0.00  0.00    -0.484 OA
BRANCH  27  28
ATOM     28  C   UNL     1       2.972   0.934  -3.531  0.00  0.00    +0.256 C 
BRANCH  28  29
ATOM     29  C   UNL     1       3.096   2.083  -4.499  0.00  0.00    +0.006 C 
ATOM     30  C   UNL     1       2.440   3.196  -4.282  0.00  0.00    +0.007 C 
ENDBRANCH  28  29
ENDBRANCH  27  28
ENDBRANCH  22  27
ENDBRANCH   2  19
BRANCH   1  31
ATOM     31  C   UNL     1       0.059  -4.275  -0.021  0.00  0.00    +0.144 C 
BRANCH  31  36
ATOM     32  C   UNL     1      -0.018   1.503   0.010  0.00  0.00    +0.044 C 
ATOM     33  C   UNL     1       0.002  -0.004   0.002  0.00  0.00    -0.050 A 
ATOM     34  C   UNL     1       0.006  -0.689  -1.199  0.00  0.00    +0.003 A 
ATOM     35  C   UNL     1       0.025  -2.071  -1.206  0.00  0.00    +0.005 A 
ATOM     36  C   UNL     1       0.040  -2.768  -0.013  0.00  0.00    -0.030 A 
ATOM     37  C   UNL     1       0.037  -2.084   1.188  0.00  0.00    +0.005 A 
ATOM     38  C   UNL     1       0.023  -0.702   1.195  0.00  0.00    +0.003 A 
ENDBRANCH  31  36
ENDBRANCH   1  31
TORSDOF 8
