REMARK  Name = ZINC59106078
REMARK  7 active torsions:
REMARK  status: ('A' for Active; 'I' for Inactive)
REMARK    1  A    between atoms: C_2  and  C_3
REMARK    2  A    between atoms: C_3  and  C_4
REMARK    3  A    between atoms: C_6  and  C_22
REMARK    4  A    between atoms: C_9  and  O_10
REMARK    5  A    between atoms: O_10  and  C_11
REMARK    6  A    between atoms: C_11  and  C_12
REMARK    7  A    between atoms: N_28  and  C_29
REMARK                            x       y       z     vdW  Elec       q    Type
REMARK                         _______ _______ _______ _____ _____    ______ ____
ROOT
ATOM      1  C   UNL     1       1.380  -1.650   1.142  0.00  0.00    -0.001 A 
ATOM      2  C   UNL     1       1.926  -1.274   2.349  0.00  0.00    +0.015 A 
ATOM      3  C   UNL     1       2.064  -2.216   3.376  0.00  0.00    -0.023 A 
ATOM      4  C   UNL     1       1.644  -3.536   3.169  0.00  0.00    +0.011 A 
ATOM      5  C   UNL     1       1.100  -3.901   1.958  0.00  0.00    +0.046 A 
ATOM      6  C   UNL     1       0.961  -2.960   0.944  0.00  0.00    +0.124 A 
ENDROOT
BRANCH   3   7
ATOM      7  C   UNL     1       2.646  -1.821   4.665  0.00  0.00    +0.028 C 
ATOM      8  C   UNL     1       2.728  -0.508   4.998  0.00  0.00    +0.078 C 
ATOM      9  C   UNL     1       3.405   0.125   6.146  0.00  0.00    +0.256 C 
ATOM     10  O   UNL     1       4.005  -0.535   6.974  0.00  0.00    -0.269 OA
ATOM     11  N   UNL     1       3.330   1.443   6.235  0.00  0.00    -0.260 N 
ATOM     12  C   UNL     1       2.646   2.172   5.286  0.00  0.00    +0.166 C 
ATOM     13  N   UNL     1       2.476   3.474   5.223  0.00  0.00    -0.226 NA
ATOM     14  S   UNL     1       2.054   0.919   4.161  0.00  0.00    -0.049 S 
ATOM     15  H   UNL     1       3.761   1.900   6.974  0.00  0.00    +0.157 HD
BRANCH  13  16
ATOM     16  C   UNL     1       3.016   4.282   6.187  0.00  0.00    +0.067 A 
ATOM     17  C   UNL     1       2.905   3.937   7.535  0.00  0.00    +0.030 A 
ATOM     18  C   UNL     1       3.453   4.755   8.501  0.00  0.00    +0.040 A 
ATOM     19  C   UNL     1       4.111   5.918   8.136  0.00  0.00    +0.124 A 
ATOM     20  C   UNL     1       4.224   6.267   6.800  0.00  0.00    +0.040 A 
ATOM     21  C   UNL     1       3.686   5.453   5.824  0.00  0.00    +0.030 A 
ATOM     22  F   UNL     1       4.645   6.716   9.087  0.00  0.00    -0.205 F 
ENDBRANCH  13  16
ENDBRANCH   3   7
BRANCH   1  23
ATOM     23  C   UNL     1       1.232  -0.637   0.035  0.00  0.00    +0.065 C 
BRANCH  23  25
ATOM     24  C   UNL     1      -0.311   1.251   0.153  0.00  0.00    +0.004 C 
ATOM     25  C   UNL     1      -0.154  -0.048   0.077  0.00  0.00    -0.030 C 
ENDBRANCH  23  25
ENDBRANCH   1  23
BRANCH   6  26
ATOM     26  O   UNL     1       0.417  -3.324  -0.246  0.00  0.00    -0.487 OA
BRANCH  26  27
ATOM     27  C   UNL     1       0.007  -4.686  -0.383  0.00  0.00    +0.265 C 
BRANCH  27  28
ATOM     28  C   UNL     1      -0.567  -4.902  -1.759  0.00  0.00    -0.003 A 
ATOM     29  C   UNL     1      -0.623  -3.871  -2.647  0.00  0.00    +0.007 A 
ATOM     30  C   UNL     1      -1.150  -4.052  -3.924  0.00  0.00    +0.001 A 
ATOM     31  C   UNL     1      -1.626  -5.264  -4.321  0.00  0.00    +0.008 A 
ATOM     32  C   UNL     1      -1.585  -6.351  -3.432  0.00  0.00    -0.018 A 
ATOM     33  C   UNL     1      -1.043  -6.169  -2.135  0.00  0.00    -0.011 A 
ATOM     34  C   UNL     1      -0.997  -7.259  -1.248  0.00  0.00    +0.009 A 
ATOM     35  C   UNL     1      -1.466  -8.472  -1.647  0.00  0.00    +0.001 A 
ATOM     36  C   UNL     1      -1.994  -8.653  -2.925  0.00  0.00    +0.001 A 
ATOM     37  C   UNL     1      -2.067  -7.618  -3.806  0.00  0.00    +0.008 A 
ENDBRANCH  27  28
ENDBRANCH  26  27
ENDBRANCH   6  26
TORSDOF 7
