REMARK  Name = ZINC21631879
REMARK  7 active torsions:
REMARK  status: ('A' for Active; 'I' for Inactive)
REMARK    1  A    between atoms: C_1  and  C_2
REMARK    2  A    between atoms: C_2  and  C_3
REMARK    3  A    between atoms: C_2  and  C_4
REMARK    4  A    between atoms: C_7  and  N_10
REMARK    5  A    between atoms: C_11  and  C_13
REMARK    6  A    between atoms: C_13  and  N_14
REMARK    7  A    between atoms: C_22  and  C_26
REMARK                            x       y       z     vdW  Elec       q    Type
REMARK                         _______ _______ _______ _____ _____    ______ ____
ROOT
ATOM      1  N   UNL     1      -2.635   3.821  -0.194  0.00  0.00    -0.257 N 
ATOM      2  C   UNL     1      -1.413   3.162  -0.229  0.00  0.00    +0.058 A 
ATOM      3  C   UNL     1      -1.448   1.767  -0.272  0.00  0.00    +0.025 A 
ATOM      4  C   UNL     1      -0.281   1.034  -0.295  0.00  0.00    +0.002 A 
ATOM      5  C   UNL     1       0.945   1.678  -0.289  0.00  0.00    +0.002 A 
ATOM      6  C   UNL     1       0.999   3.052  -0.256  0.00  0.00    +0.025 A 
ATOM      7  C   UNL     1      -0.182   3.814  -0.227  0.00  0.00    +0.053 A 
ATOM      8  N   UNL     1      -0.041   5.165  -0.202  0.00  0.00    -0.312 N 
ATOM      9  C   UNL     1      -0.723   5.987   0.509  0.00  0.00    +0.044 C 
ATOM     10  C   UNL     1      -1.835   5.521   1.411  0.00  0.00    +0.091 C 
ATOM     11  C   UNL     1      -2.904   4.893   0.554  0.00  0.00    +0.246 C 
ATOM     12  O   UNL     1      -4.021   5.366   0.545  0.00  0.00    -0.270 OA
ATOM     13  H   UNL     1       0.746   5.539  -0.873  0.00  0.00    +0.152 HD
ENDROOT
BRANCH   9  14
ATOM     14  C   UNL     1      -0.409   7.425   0.440  0.00  0.00    -0.004 A 
ATOM     15  C   UNL     1      -1.210   8.351   1.115  0.00  0.00    +0.010 A 
ATOM     16  C   UNL     1      -0.907   9.695   1.050  0.00  0.00    +0.001 A 
ATOM     17  C   UNL     1       0.179  10.128   0.310  0.00  0.00    +0.000 A 
ATOM     18  C   UNL     1       0.973   9.218  -0.366  0.00  0.00    +0.001 A 
ATOM     19  C   UNL     1       0.686   7.870  -0.306  0.00  0.00    +0.010 A 
ENDBRANCH   9  14
BRANCH   1  20
ATOM     20  C   UNL     1      -3.709   3.300  -1.042  0.00  0.00    +0.210 C 
BRANCH  20  22
ATOM     21  N   UNL     1      -4.550   3.643  -3.342  0.00  0.00    -0.284 N 
ATOM     22  C   UNL     1      -3.652   3.968  -2.392  0.00  0.00    +0.235 C 
ATOM     23  O   UNL     1      -2.797   4.797  -2.622  0.00  0.00    -0.274 OA
ATOM     24  H   UNL     1      -5.378   2.959  -3.106  0.00  0.00    +0.155 HD
BRANCH  21  28
ATOM     25  C   UNL     1      -4.192   5.234  -7.176  0.00  0.00    -0.045 A 
ATOM     26  C   UNL     1      -3.058   4.930  -6.447  0.00  0.00    +0.006 A 
ATOM     27  C   UNL     1      -3.173   4.403  -5.176  0.00  0.00    +0.023 A 
ATOM     28  C   UNL     1      -4.430   4.178  -4.630  0.00  0.00    +0.033 A 
ATOM     29  C   UNL     1      -5.568   4.479  -5.367  0.00  0.00    +0.023 A 
ATOM     30  C   UNL     1      -5.446   5.012  -6.636  0.00  0.00    +0.006 A 
BRANCH  25  32
ATOM     31  C   UNL     1      -4.739   4.876  -9.568  0.00  0.00    +0.012 C 
ATOM     32  C   UNL     1      -4.063   5.810  -8.563  0.00  0.00    +0.013 C 
ATOM     33  C   UNL     1      -4.736   7.184  -8.610  0.00  0.00    +0.012 C 
ENDBRANCH  25  32
ENDBRANCH  21  28
ENDBRANCH  20  22
ENDBRANCH   1  20
TORSDOF 5
