REMARK  Name = ZINC20790429
REMARK  5 active torsions:
REMARK  status: ('A' for Active; 'I' for Inactive)
REMARK    1  A    between atoms: C_4  and  C_22
REMARK    2  A    between atoms: C_15  and  C_20
REMARK    3  A    between atoms: N_16  and  C_17
REMARK    4  A    between atoms: C_17  and  C_18
REMARK    5  A    between atoms: C_18  and  O_19
REMARK                            x       y       z     vdW  Elec       q    Type
REMARK                         _______ _______ _______ _____ _____    ______ ____
ROOT
ATOM      1  C   UNL     1      -0.185   2.564  -1.436  0.00  0.00    +0.000 C 
ATOM      2  C   UNL     1       1.286   2.972  -1.333  0.00  0.00    +0.003 C 
ATOM      3  C   UNL     1       2.136   2.042  -2.201  0.00  0.00    +0.038 C 
ATOM      4  C   UNL     1       1.970   0.601  -1.717  0.00  0.00    +0.113 C 
ATOM      5  C   UNL     1       0.499   0.195  -1.827  0.00  0.00    +0.024 C 
ATOM      6  C   UNL     1      -0.351   1.121  -0.955  0.00  0.00    +0.006 C 
ATOM      7  C   UNL     1       0.337  -1.251  -1.350  0.00  0.00    +0.012 C 
ATOM      8  C   UNL     1       1.237  -2.158  -2.193  0.00  0.00    +0.024 C 
ATOM      9  C   UNL     1       1.125  -3.599  -1.694  0.00  0.00    +0.006 C 
ATOM     10  C   UNL     1       1.573  -3.671  -0.233  0.00  0.00    +0.000 C 
ATOM     11  C   UNL     1       3.025  -3.203  -0.122  0.00  0.00    +0.003 C 
ATOM     12  C   UNL     1       3.133  -1.759  -0.615  0.00  0.00    +0.038 C 
ATOM     13  C   UNL     1       2.687  -1.685  -2.074  0.00  0.00    +0.113 C 
ATOM     14  N   UNL     1       2.790  -0.296  -2.541  0.00  0.00    -0.264 NA
ENDROOT
BRANCH  13  15
ATOM     15  C   UNL     1       3.553  -2.545  -2.897  0.00  0.00    +0.085 C 
ATOM     16  N   UNL     1       4.222  -3.209  -3.532  0.00  0.00    -0.195 NA
ENDBRANCH  13  15
BRANCH   4  17
ATOM     17  C   UNL     1       2.399   0.504  -0.312  0.00  0.00    +0.085 C 
ATOM     18  N   UNL     1       2.730   0.429   0.772  0.00  0.00    -0.195 NA
ENDBRANCH   4  17
BRANCH  14  19
ATOM     19  C   UNL     1       4.190   0.148  -2.569  0.00  0.00    +0.115 C 
BRANCH  19  20
ATOM     20  C   UNL     1       4.834  -0.279  -3.890  0.00  0.00    +0.171 C 
BRANCH  20  21
ATOM     21  O   UNL     1       4.158   0.358  -4.976  0.00  0.00    -0.394 OA
ATOM     22  H   UNL     1       4.514   0.132  -5.847  0.00  0.00    +0.209 HD
ENDBRANCH  20  21
ENDBRANCH  19  20
ENDBRANCH  14  19
TORSDOF 5
