REMARK  Name = ZINC62027307
REMARK  6 active torsions:
REMARK  status: ('A' for Active; 'I' for Inactive)
REMARK    1  A    between atoms: C_1  and  O_2
REMARK    2  A    between atoms: O_2  and  C_3
REMARK    3  A    between atoms: C_6  and  C_9
REMARK    4  A    between atoms: C_9  and  C_10
REMARK    5  A    between atoms: C_10  and  C_11
REMARK    6  A    between atoms: N_13  and  C_14
REMARK                            x       y       z     vdW  Elec       q    Type
REMARK                         _______ _______ _______ _____ _____    ______ ____
ROOT
ATOM      1  C   UNL     1      -8.575  -4.611  -2.606  0.00  0.00    +0.034 A 
ATOM      2  C   UNL     1      -9.232  -4.950  -1.430  0.00  0.00    +0.025 A 
ATOM      3  C   UNL     1     -10.408  -5.669  -1.473  0.00  0.00    +0.025 A 
ATOM      4  C   UNL     1     -10.946  -6.062  -2.697  0.00  0.00    +0.038 A 
ATOM      5  C   UNL     1     -10.281  -5.718  -3.869  0.00  0.00    -0.009 A 
ATOM      6  C   UNL     1      -9.111  -4.996  -3.829  0.00  0.00    +0.029 A 
ATOM      7  C   UNL     1     -11.106  -6.279  -5.000  0.00  0.00    +0.074 C 
ATOM      8  C   UNL     1     -10.294  -7.296  -5.797  0.00  0.00    +0.021 C 
ATOM      9  C   UNL     1     -11.158  -7.875  -6.920  0.00  0.00    +0.001 C 
ATOM     10  C   UNL     1     -11.627  -6.743  -7.836  0.00  0.00    +0.000 C 
ATOM     11  C   UNL     1     -12.458  -5.744  -7.030  0.00  0.00    +0.001 C 
ATOM     12  C   UNL     1     -11.599  -5.156  -5.907  0.00  0.00    +0.021 C 
ATOM     13  C   UNL     1     -12.271  -6.955  -4.318  0.00  0.00    +0.228 C 
ATOM     14  O   UNL     1     -13.185  -7.540  -4.861  0.00  0.00    -0.274 OA
ATOM     15  N   UNL     1     -12.105  -6.784  -2.994  0.00  0.00    -0.284 N 
ATOM     16  H   UNL     1     -12.718  -7.123  -2.324  0.00  0.00    +0.155 HD
ENDROOT
BRANCH   1  19
ATOM     17  C   UNL     1      -6.505  -4.085  -1.555  0.00  0.00    +0.218 C 
ATOM     18  O   UNL     1      -6.787  -4.838  -0.648  0.00  0.00    -0.275 OA
ATOM     19  N   UNL     1      -7.381  -3.880  -2.559  0.00  0.00    -0.285 N 
ATOM     20  H   UNL     1      -7.184  -3.227  -3.249  0.00  0.00    +0.155 HD
BRANCH  17  21
ATOM     21  C   UNL     1      -5.175  -3.376  -1.560  0.00  0.00    +0.101 C 
BRANCH  21  22
ATOM     22  C   UNL     1      -4.377  -3.780  -0.318  0.00  0.00    +0.044 C 
BRANCH  22  26
ATOM     23  C   UNL     1      -0.605  -1.771  -0.332  0.00  0.00    +0.120 A 
ATOM     24  C   UNL     1      -1.704  -1.183   0.279  0.00  0.00    +0.046 A 
ATOM     25  C   UNL     1      -2.922  -1.835   0.282  0.00  0.00    +0.007 A 
ATOM     26  C   UNL     1      -3.047  -3.071  -0.323  0.00  0.00    -0.047 A 
ATOM     27  C   UNL     1      -1.954  -3.659  -0.933  0.00  0.00    +0.007 A 
ATOM     28  C   UNL     1      -0.735  -3.009  -0.944  0.00  0.00    +0.046 A 
BRANCH  23  30
ATOM     29  C   UNL     1       0.654   0.140   0.312  0.00  0.00    +0.277 C 
ATOM     30  O   UNL     1       0.594  -1.132  -0.336  0.00  0.00    -0.495 OA
ENDBRANCH  23  30
ENDBRANCH  22  26
ENDBRANCH  21  22
ENDBRANCH  17  21
ENDBRANCH   1  19
TORSDOF 5
