REMARK  Name = ZINC45830815
REMARK  9 active torsions:
REMARK  status: ('A' for Active; 'I' for Inactive)
REMARK    1  A    between atoms: C_1  and  C_2
REMARK    2  A    between atoms: C_2  and  C_4
REMARK    3  A    between atoms: C_2  and  N_14
REMARK    4  A    between atoms: C_15  and  C_17
REMARK    5  A    between atoms: C_17  and  C_19
REMARK    6  A    between atoms: C_17  and  S_20
REMARK    7  A    between atoms: S_20  and  C_21
REMARK    8  A    between atoms: C_24  and  N_27
REMARK    9  A    between atoms: C_28  and  C_30
REMARK                            x       y       z     vdW  Elec       q    Type
REMARK                         _______ _______ _______ _____ _____    ______ ____
ROOT
ATOM      1  N   UNL     1       0.598  -0.392   1.210  0.00  0.00    -0.308 N 
ATOM      2  C   UNL     1      -0.191  -0.700   2.258  0.00  0.00    +0.227 C 
ATOM      3  O   UNL     1      -1.396  -0.595   2.161  0.00  0.00    -0.275 OA
ATOM      4  H   UNL     1       1.562  -0.476   1.287  0.00  0.00    +0.149 HD
ENDROOT
BRANCH   1   6
ATOM      5  C   UNL     1      -0.128   1.593  -0.021  0.00  0.00    +0.033 C 
ATOM      6  C   UNL     1       0.002   0.069  -0.047  0.00  0.00    +0.101 C 
BRANCH   6   7
ATOM      7  C   UNL     1       0.881  -0.341  -1.200  0.00  0.00    -0.020 A 
ATOM      8  C   UNL     1       2.213  -0.546  -1.006  0.00  0.00    +0.006 A 
ATOM      9  C   UNL     1       3.042  -0.925  -2.060  0.00  0.00    +0.001 A 
ATOM     10  C   UNL     1       2.543  -1.101  -3.315  0.00  0.00    +0.008 A 
ATOM     11  C   UNL     1       1.174  -0.900  -3.553  0.00  0.00    -0.018 A 
ATOM     12  C   UNL     1       0.330  -0.520  -2.480  0.00  0.00    -0.013 A 
ATOM     13  C   UNL     1      -1.042  -0.324  -2.717  0.00  0.00    +0.009 A 
ATOM     14  C   UNL     1      -1.541  -0.506  -3.970  0.00  0.00    +0.001 A 
ATOM     15  C   UNL     1      -0.712  -0.886  -5.025  0.00  0.00    +0.001 A 
ATOM     16  C   UNL     1       0.623  -1.072  -4.835  0.00  0.00    +0.008 A 
ENDBRANCH   6   7
ENDBRANCH   1   6
BRANCH   2  17
ATOM     17  C   UNL     1       0.422  -1.173   3.550  0.00  0.00    +0.134 C 
ATOM     18  C   UNL     1       0.778  -2.657   3.432  0.00  0.00    +0.029 C 
BRANCH  17  19
ATOM     19  S   UNL     1      -0.764  -0.942   4.903  0.00  0.00    -0.113 S 
BRANCH  19  20
ATOM     20  C   UNL     1      -0.838   0.806   5.111  0.00  0.00    +0.009 A 
ATOM     21  C   UNL     1      -0.148   1.639   4.239  0.00  0.00    +0.016 A 
ATOM     22  C   UNL     1      -0.206   3.009   4.402  0.00  0.00    +0.024 A 
ATOM     23  C   UNL     1      -0.954   3.554   5.438  0.00  0.00    +0.033 A 
ATOM     24  C   UNL     1      -1.643   2.721   6.310  0.00  0.00    +0.024 A 
ATOM     25  C   UNL     1      -1.590   1.352   6.144  0.00  0.00    +0.016 A 
BRANCH  23  26
ATOM     26  N   UNL     1      -1.012   4.944   5.603  0.00  0.00    -0.286 N 
ATOM     27  C   UNL     1      -0.997   5.753   4.525  0.00  0.00    +0.214 C 
ATOM     28  O   UNL     1      -1.036   5.277   3.410  0.00  0.00    -0.276 OA
ATOM     29  C   UNL     1      -0.933   7.247   4.705  0.00  0.00    +0.109 C 
ATOM     30  H   UNL     1      -1.063   5.325   6.494  0.00  0.00    +0.155 HD
ENDBRANCH  23  26
ENDBRANCH  19  20
ENDBRANCH  17  19
ENDBRANCH   2  17
TORSDOF 6
