REMARK  Name = ZINC64678705
REMARK  8 active torsions:
REMARK  status: ('A' for Active; 'I' for Inactive)
REMARK    1  A    between atoms: C_1  and  C_2
REMARK    2  A    between atoms: C_7  and  C_13
REMARK    3  A    between atoms: C_9  and  C_12
REMARK    4  A    between atoms: C_16  and  C_19
REMARK    5  A    between atoms: C_19  and  C_20
REMARK    6  A    between atoms: C_20  and  N_21
REMARK    7  A    between atoms: N_21  and  C_22
REMARK    8  A    between atoms: C_23  and  C_25
REMARK                            x       y       z     vdW  Elec       q    Type
REMARK                         _______ _______ _______ _____ _____    ______ ____
ROOT
ATOM      1  C   UNL     1      -0.991  -5.196   1.920  0.00  0.00    +0.318 C 
ATOM      2  N   UNL     1      -1.037  -6.499   1.238  0.00  0.00    -0.291 N 
ATOM      3  C   UNL     1      -1.029  -7.463   2.219  0.00  0.00    +0.139 C 
ATOM      4  N   UNL     1      -0.985  -6.941   3.391  0.00  0.00    -0.072 NA
ATOM      5  O   UNL     1      -0.960  -5.525   3.318  0.00  0.00    -0.367 OA
ATOM      6  H   UNL     1      -1.067  -6.650   0.280  0.00  0.00    +0.151 HD
ENDROOT
BRANCH   1  13
ATOM      7  C   UNL     1       0.363   1.496   0.122  0.00  0.00    +0.044 C 
ATOM      8  C   UNL     1       0.334  -0.011   0.099  0.00  0.00    -0.050 A 
ATOM      9  C   UNL     1       0.298  -0.674  -1.136  0.00  0.00    +0.005 A 
ATOM     10  C   UNL     1       0.271  -2.019  -1.240  0.00  0.00    +0.026 A 
ATOM     11  C   UNL     1       0.276  -2.831  -0.072  0.00  0.00    +0.043 A 
ATOM     12  N   UNL     1       0.252  -4.132   0.086  0.00  0.00    -0.373 N 
ATOM     13  C   UNL     1       0.272  -4.429   1.523  0.00  0.00    +0.168 C 
ATOM     14  C   UNL     1       0.311  -3.089   2.223  0.00  0.00    -0.036 C 
ATOM     15  C   UNL     1       0.312  -2.155   1.244  0.00  0.00    -0.001 A 
ATOM     16  C   UNL     1       0.347  -0.688   1.270  0.00  0.00    +0.013 A 
ATOM     17  C   UNL     1       0.341  -2.843   3.709  0.00  0.00    +0.042 C 
ATOM     18  H   UNL     1       0.226  -4.789  -0.627  0.00  0.00    +0.160 HD
ENDBRANCH   1  13
BRANCH   3  19
ATOM     19  C   UNL     1      -1.068  -8.945   1.952  0.00  0.00    +0.094 C 
BRANCH  19  20
ATOM     20  C   UNL     1      -1.046  -9.704   3.280  0.00  0.00    +0.115 C 
BRANCH  20  21
ATOM     21  N   UNL     1      -1.083 -11.145   3.021  0.00  0.00    -0.300 N 
ATOM     22  C   UNL     1       0.166 -11.893   2.854  0.00  0.00    +0.132 C 
ATOM     23  C   UNL     1      -2.267 -11.784   2.934  0.00  0.00    +0.246 C 
ATOM     24  O   UNL     1      -3.304 -11.149   2.966  0.00  0.00    -0.270 OA
BRANCH  23  25
ATOM     25  C   UNL     1      -2.305 -13.255   2.802  0.00  0.00    +0.037 A 
ATOM     26  C   UNL     1      -1.353 -14.042   3.453  0.00  0.00    +0.016 A 
ATOM     27  C   UNL     1      -1.393 -15.414   3.326  0.00  0.00    +0.039 A 
ATOM     28  C   UNL     1      -2.376 -16.012   2.553  0.00  0.00    +0.123 A 
ATOM     29  C   UNL     1      -3.323 -15.236   1.903  0.00  0.00    +0.039 A 
ATOM     30  C   UNL     1      -3.296 -13.863   2.029  0.00  0.00    +0.016 A 
ATOM     31  F   UNL     1      -2.410 -17.357   2.430  0.00  0.00    -0.205 F 
ENDBRANCH  23  25
ENDBRANCH  20  21
ENDBRANCH  19  20
ENDBRANCH   3  19
TORSDOF 5
