REMARK  Name = ZINC43298575
REMARK  5 active torsions:
REMARK  status: ('A' for Active; 'I' for Inactive)
REMARK    1  A    between atoms: C_1  and  C_2
REMARK    2  A    between atoms: C_2  and  C_3
REMARK    3  A    between atoms: C_7  and  C_21
REMARK    4  A    between atoms: C_9  and  N_12
REMARK    5  A    between atoms: C_15  and  C_17
REMARK                            x       y       z     vdW  Elec       q    Type
REMARK                         _______ _______ _______ _____ _____    ______ ____
ROOT
ATOM      1  C   UNL     1       0.827  -0.486  -1.205  0.00  0.00    -0.009 C 
ATOM      2  C   UNL     1      -0.080  -0.092  -2.372  0.00  0.00    +0.005 C 
ATOM      3  C   UNL     1       0.527  -0.597  -3.683  0.00  0.00    +0.021 C 
ATOM      4  C   UNL     1       0.658  -2.120  -3.631  0.00  0.00    +0.116 C 
ATOM      5  C   UNL     1       1.565  -2.514  -2.464  0.00  0.00    +0.124 C 
ATOM      6  C   UNL     1       0.958  -2.010  -1.153  0.00  0.00    +0.031 C 
ENDROOT
BRANCH   5   7
ATOM      7  N   UNL     1       1.691  -3.973  -2.414  0.00  0.00    -0.267 N 
ATOM      8  C   UNL     1       0.838  -4.823  -1.805  0.00  0.00    +0.109 A 
ATOM      9  C   UNL     1       1.306  -6.079  -1.988  0.00  0.00    +0.053 A 
ATOM     10  C   UNL     1       2.486  -5.994  -2.735  0.00  0.00    +0.165 A 
ATOM     11  N   UNL     1       2.714  -4.733  -2.996  0.00  0.00    -0.167 NA
BRANCH  10  12
ATOM     12  C   UNL     1       3.342  -7.155  -3.169  0.00  0.00    +0.436 C 
ATOM     13  F   UNL     1       2.909  -7.613  -4.418  0.00  0.00    -0.164 F 
ATOM     14  F   UNL     1       4.676  -6.743  -3.261  0.00  0.00    -0.164 F 
ATOM     15  F   UNL     1       3.237  -8.189  -2.232  0.00  0.00    -0.164 F 
ENDBRANCH  10  12
ENDBRANCH   5   7
BRANCH   1  17
ATOM     16  C   UNL     1       0.204   1.548   0.105  0.00  0.00    +0.004 C 
ATOM     17  C   UNL     1       0.220   0.018   0.106  0.00  0.00    +0.000 C 
ENDBRANCH   1  17
BRANCH   4  18
ATOM     18  C   UNL     1      -0.672  -2.721  -3.443  0.00  0.00    +0.068 C 
ATOM     19  N   UNL     1      -1.699  -3.184  -3.299  0.00  0.00    -0.196 NA
ENDBRANCH   4  18
TORSDOF 4
