REMARK  Name = ZINC63908293
REMARK  6 active torsions:
REMARK  status: ('A' for Active; 'I' for Inactive)
REMARK    1  A    between atoms: C_1  and  C_2
REMARK    2  A    between atoms: C_3  and  C_16
REMARK    3  A    between atoms: C_4  and  C_8
REMARK    4  A    between atoms: N_18  and  C_19
REMARK    5  A    between atoms: C_19  and  C_20
REMARK    6  A    between atoms: C_20  and  C_21
REMARK                            x       y       z     vdW  Elec       q    Type
REMARK                         _______ _______ _______ _____ _____    ______ ____
ROOT
ATOM      1  C   UNL     1      -2.509  -0.404   0.113  0.00  0.00    +0.245 C 
ATOM      2  O   UNL     1      -2.795   0.771   0.253  0.00  0.00    -0.270 OA
ATOM      3  N   UNL     1      -3.485  -1.328   0.016  0.00  0.00    -0.311 N 
ATOM      4  H   UNL     1      -3.259  -2.271  -0.024  0.00  0.00    +0.149 HD
ENDROOT
BRANCH   1   7
ATOM      5  C   UNL     1      -0.173   1.522   0.040  0.00  0.00    +0.089 C 
ATOM      6  C   UNL     1      -0.083   0.018   0.022  0.00  0.00    +0.132 C 
ATOM      7  C   UNL     1      -1.149  -0.800   0.051  0.00  0.00    +0.078 C 
ATOM      8  C   UNL     1      -0.630  -2.225   0.007  0.00  0.00    +0.165 C 
ATOM      9  N   UNL     1       0.772  -2.046  -0.450  0.00  0.00    -0.143 NA
ATOM     10  O   UNL     1       1.075  -0.668  -0.032  0.00  0.00    -0.410 OA
ATOM     11  H   UNL     1       1.387  -2.707   0.002  0.00  0.00    +0.168 HD
BRANCH   8  12
ATOM     12  C   UNL     1      -0.674  -2.853   1.377  0.00  0.00    +0.031 A 
ATOM     13  C   UNL     1       0.213  -2.440   2.357  0.00  0.00    +0.130 A 
ATOM     14  C   UNL     1       0.172  -3.017   3.615  0.00  0.00    +0.039 A 
ATOM     15  C   UNL     1      -0.755  -4.005   3.892  0.00  0.00    +0.004 A 
ATOM     16  C   UNL     1      -1.640  -4.417   2.914  0.00  0.00    +0.020 A 
ATOM     17  C   UNL     1      -1.604  -3.837   1.658  0.00  0.00    +0.049 A 
ATOM     18 CL   UNL     1      -2.721  -4.351   0.432  0.00  0.00    -0.083 Cl
ATOM     19  F   UNL     1       1.118  -1.474   2.086  0.00  0.00    -0.205 F 
ENDBRANCH   8  12
ENDBRANCH   1   7
BRANCH   3  20
ATOM     20  C   UNL     1      -4.888  -0.910  -0.028  0.00  0.00    +0.109 C 
BRANCH  20  21
ATOM     21  C   UNL     1      -5.786  -2.144  -0.137  0.00  0.00    +0.052 C 
BRANCH  21  22
ATOM     22  C   UNL     1      -7.229  -1.714  -0.182  0.00  0.00    -0.040 C 
ATOM     23  C   UNL     1      -7.985  -1.519  -1.287  0.00  0.00    -0.001 A 
ATOM     24  C   UNL     1      -7.701  -1.643  -2.721  0.00  0.00    +0.010 A 
ATOM     25  C   UNL     1      -8.683  -1.373  -3.611  0.00  0.00    +0.001 A 
ATOM     26  C   UNL     1      -9.963  -0.979  -3.198  0.00  0.00    +0.002 A 
ATOM     27  C   UNL     1     -10.300  -0.843  -1.898  0.00  0.00    +0.026 A 
ATOM     28  C   UNL     1      -9.345  -1.101  -0.876  0.00  0.00    +0.043 A 
ATOM     29  N   UNL     1      -9.426  -1.040   0.431  0.00  0.00    -0.380 N 
ATOM     30  C   UNL     1      -8.127  -1.419   0.998  0.00  0.00    +0.144 C 
ATOM     31  H   UNL     1     -10.214  -0.790   0.938  0.00  0.00    +0.160 HD
ENDBRANCH  21  22
ENDBRANCH  20  21
ENDBRANCH   3  20
TORSDOF 5
