REMARK  Name = ZINC13178607
REMARK  7 active torsions:
REMARK  status: ('A' for Active; 'I' for Inactive)
REMARK    1  A    between atoms: C_1  and  N_2
REMARK    2  A    between atoms: N_2  and  C_3
REMARK    3  A    between atoms: N_2  and  S_16
REMARK    4  A    between atoms: C_3  and  C_4
REMARK    5  A    between atoms: N_6  and  C_7
REMARK    6  A    between atoms: C_12  and  C_13
REMARK    7  A    between atoms: S_16  and  C_19
REMARK                            x       y       z     vdW  Elec       q    Type
REMARK                         _______ _______ _______ _____ _____    ______ ____
ROOT
ATOM      1  C   UNL     1      -2.338   1.362  -0.074  0.00  0.00    +0.233 C 
ATOM      2  O   UNL     1      -2.320   0.149  -0.069  0.00  0.00    -0.274 OA
ATOM      3  N   UNL     1      -1.185   2.054   0.016  0.00  0.00    -0.284 N 
ATOM      4  H   UNL     1      -1.204   3.022   0.077  0.00  0.00    +0.155 HD
ENDROOT
BRANCH   3   5
ATOM      5  C   UNL     1       0.033   1.379   0.020  0.00  0.00    +0.048 A 
ATOM      6  C   UNL     1       0.144   0.142   0.641  0.00  0.00    +0.025 A 
ATOM      7  C   UNL     1       1.351  -0.528   0.639  0.00  0.00    +0.017 A 
ATOM      8  C   UNL     1       2.460   0.027   0.019  0.00  0.00    +0.019 A 
ATOM      9  C   UNL     1       2.369   1.254  -0.602  0.00  0.00    +0.032 A 
ATOM     10  C   UNL     1       1.154   1.944  -0.608  0.00  0.00    +0.085 A 
ATOM     11 BR   UNL     1       4.106  -0.905   0.027  0.00  0.00    -0.050 Br
BRANCH  10  12
ATOM     12  C   UNL     1       1.050   3.256  -1.271  0.00  0.00    +0.388 C 
ATOM     13  O   UNL     1       0.017   3.893  -1.198  0.00  0.00    -0.241 OA
ATOM     14  O   UNL     1       2.099   3.749  -1.958  0.00  0.00    -0.241 OA
ENDBRANCH  10  12
ENDBRANCH   3   5
BRANCH   1  15
ATOM     15  C   UNL     1      -3.651   2.095  -0.181  0.00  0.00    +0.205 C 
BRANCH  15  17
ATOM     16  C   UNL     1      -5.321   0.561   0.959  0.00  0.00    +0.132 C 
ATOM     17  N   UNL     1      -4.746   1.125  -0.265  0.00  0.00    -0.171 NA
BRANCH  17  18
ATOM     18  S   UNL     1      -5.334   0.667  -1.744  0.00  0.00    +0.061 S 
ATOM     19  O   UNL     1      -6.663   0.214  -1.529  0.00  0.00    -0.153 OA
ATOM     20  O   UNL     1      -5.024   1.718  -2.648  0.00  0.00    -0.153 OA
BRANCH  18  21
ATOM     21  C   UNL     1      -4.402  -0.735  -2.263  0.00  0.00    +0.106 A 
ATOM     22  C   UNL     1      -3.251  -0.561  -3.010  0.00  0.00    +0.031 A 
ATOM     23  C   UNL     1      -2.516  -1.660  -3.414  0.00  0.00    +0.040 A 
ATOM     24  C   UNL     1      -2.939  -2.935  -3.080  0.00  0.00    +0.124 A 
ATOM     25  C   UNL     1      -4.094  -3.108  -2.337  0.00  0.00    +0.040 A 
ATOM     26  C   UNL     1      -4.824  -2.008  -1.929  0.00  0.00    +0.031 A 
ATOM     27  F   UNL     1      -2.224  -4.010  -3.478  0.00  0.00    -0.205 F 
ENDBRANCH  18  21
ENDBRANCH  17  18
ENDBRANCH  15  17
ENDBRANCH   1  15
TORSDOF 6
