REMARK  Name = ZINC39486902
REMARK  9 active torsions:
REMARK  status: ('A' for Active; 'I' for Inactive)
REMARK    1  A    between atoms: C_1  and  C_2
REMARK    2  A    between atoms: C_2  and  C_35
REMARK    3  A    between atoms: N_4  and  C_28
REMARK    4  A    between atoms: N_7  and  C_8
REMARK    5  A    between atoms: C_8  and  C_9
REMARK    6  A    between atoms: C_9  and  C_22
REMARK    7  A    between atoms: N_12  and  C_15
REMARK    8  A    between atoms: C_15  and  C_16
REMARK    9  A    between atoms: C_33  and  O_34
REMARK                            x       y       z     vdW  Elec       q    Type
REMARK                         _______ _______ _______ _____ _____    ______ ____
ROOT
ATOM      1  C   UNL     1       2.070   1.003   2.268  0.00  0.00    -0.014 C 
ATOM      2  C   UNL     1       1.496   2.076   1.339  0.00  0.00    -0.010 C 
ATOM      3  C   UNL     1      -0.004   1.834   1.154  0.00  0.00    -0.078 C 
ATOM      4  N   UNL     1      -0.678   1.901   2.456  0.00  0.00    +0.382 N 
ATOM      5  C   UNL     1      -0.184   0.829   3.328  0.00  0.00    -0.078 C 
ATOM      6  C   UNL     1       1.308   1.032   3.597  0.00  0.00    -0.010 C 
ATOM      7  H   UNL     1      -0.492   2.795   2.884  0.00  0.00    -0.081 HD
ENDROOT
BRANCH   1   8
ATOM      8  C   UNL     1       3.552   1.283   2.522  0.00  0.00    -0.003 C 
ATOM      9  C   UNL     1       4.310   1.258   1.193  0.00  0.00    +0.004 C 
ATOM     10  C   UNL     1       5.793   1.537   1.446  0.00  0.00    +0.000 C 
ATOM     11  C   UNL     1       5.948   2.914   2.096  0.00  0.00    +0.000 C 
ATOM     12  C   UNL     1       5.190   2.940   3.424  0.00  0.00    +0.000 C 
ATOM     13  C   UNL     1       3.708   2.660   3.171  0.00  0.00    +0.004 C 
ENDBRANCH   1   8
BRANCH   1  14
ATOM     14  C   UNL     1       1.912  -0.373   1.619  0.00  0.00    +0.117 C 
BRANCH  14  21
ATOM     15  C   UNL     1       1.015  -1.639   4.374  0.00  0.00    +0.033 C 
ATOM     16  C   UNL     1       1.845  -2.359   3.309  0.00  0.00    +0.049 C 
ATOM     17  C   UNL     1       2.980  -3.170   3.965  0.00  0.00    +0.140 C 
ATOM     18  N   UNL     1       4.205  -2.568   3.417  0.00  0.00    -0.250 N 
ATOM     19  C   UNL     1       3.872  -1.575   2.583  0.00  0.00    +0.310 C 
ATOM     20  O   UNL     1       4.695  -0.905   1.989  0.00  0.00    -0.252 OA
ATOM     21  N   UNL     1       2.552  -1.387   2.462  0.00  0.00    -0.278 N 
ATOM     22  C   UNL     1       0.955  -3.267   2.458  0.00  0.00    +0.033 C 
BRANCH  18  23
ATOM     23  C   UNL     1       5.513  -2.970   3.721  0.00  0.00    +0.079 A 
ATOM     24  C   UNL     1       6.174  -3.867   2.894  0.00  0.00    +0.027 A 
ATOM     25  C   UNL     1       7.464  -4.262   3.195  0.00  0.00    +0.002 A 
ATOM     26  C   UNL     1       8.098  -3.766   4.319  0.00  0.00    +0.004 A 
ATOM     27  C   UNL     1       7.445  -2.872   5.148  0.00  0.00    +0.047 A 
ATOM     28  C   UNL     1       6.155  -2.466   4.850  0.00  0.00    +0.138 A 
BRANCH  28  29
ATOM     29  O   UNL     1       5.513  -1.583   5.660  0.00  0.00    -0.505 OA
ATOM     30  H   UNL     1       5.074  -1.992   6.418  0.00  0.00    +0.292 HD
ENDBRANCH  28  29
ENDBRANCH  18  23
ENDBRANCH  14  21
ENDBRANCH   1  14
BRANCH   4  31
ATOM     31  C   UNL     1      -2.127   1.746   2.264  0.00  0.00    -0.043 C 
BRANCH  31  32
ATOM     32  C   UNL     1      -2.833   1.961   3.577  0.00  0.00    -0.064 A 
ATOM     33  C   UNL     1      -2.983   0.910   4.463  0.00  0.00    +0.002 A 
ATOM     34  C   UNL     1      -3.631   1.109   5.667  0.00  0.00    +0.000 A 
ATOM     35  C   UNL     1      -4.130   2.357   5.987  0.00  0.00    +0.000 A 
ATOM     36  C   UNL     1      -3.979   3.409   5.102  0.00  0.00    +0.000 A 
ATOM     37  C   UNL     1      -3.327   3.212   3.899  0.00  0.00    +0.002 A 
ENDBRANCH  31  32
ENDBRANCH   4  31
TORSDOF 7
