REMARK  Name = ZINC40755735
REMARK  5 active torsions:
REMARK  status: ('A' for Active; 'I' for Inactive)
REMARK    1  A    between atoms: C_6  and  C_7
REMARK    2  A    between atoms: C_7  and  N_8
REMARK    3  A    between atoms: C_10  and  N_26
REMARK    4  A    between atoms: C_11  and  N_15
REMARK    5  A    between atoms: N_15  and  C_16
REMARK                            x       y       z     vdW  Elec       q    Type
REMARK                         _______ _______ _______ _____ _____    ______ ____
ROOT
ATOM      1  N   UNL     1      -1.726  -1.017  -1.368  0.00  0.00    -0.323 N 
ATOM      2  C   UNL     1      -2.903  -1.715  -1.614  0.00  0.00    +0.145 A 
ATOM      3  C   UNL     1      -3.323  -1.957  -2.923  0.00  0.00    +0.105 A 
ATOM      4  C   UNL     1      -4.511  -2.663  -3.114  0.00  0.00    +0.145 A 
ATOM      5  N   UNL     1      -5.195  -3.075  -2.049  0.00  0.00    -0.219 NA
ATOM      6  C   UNL     1      -4.763  -2.826  -0.829  0.00  0.00    +0.225 A 
ATOM      7  N   UNL     1      -3.643  -2.167  -0.605  0.00  0.00    -0.219 NA
ATOM      8  H   UNL     1      -1.192  -0.691  -2.108  0.00  0.00    +0.148 HD
ENDROOT
BRANCH   3   9
ATOM      9  N   UNL     1      -2.570  -1.502  -4.018  0.00  0.00    -0.353 N 
ATOM     10  H   UNL     1      -1.745  -1.013  -3.870  0.00  0.00    +0.143 HD
ATOM     11  H   UNL     1      -2.874  -1.678  -4.922  0.00  0.00    +0.143 HD
ENDBRANCH   3   9
BRANCH   4  12
ATOM     12  N   UNL     1      -4.975  -2.930  -4.396  0.00  0.00    -0.322 N 
ATOM     13  H   UNL     1      -4.471  -2.626  -5.168  0.00  0.00    +0.148 HD
BRANCH  12  14
ATOM     14  C   UNL     1      -6.224  -3.672  -4.584  0.00  0.00    +0.034 C 
ATOM     15  C   UNL     1      -7.375  -2.907  -3.927  0.00  0.00    +0.029 C 
ATOM     16  C   UNL     1      -8.680  -3.682  -4.123  0.00  0.00    -0.008 C 
ATOM     17  C   UNL     1      -8.960  -3.839  -5.619  0.00  0.00    +0.007 C 
ATOM     18  C   UNL     1      -7.809  -4.604  -6.275  0.00  0.00    -0.008 C 
ATOM     19  C   UNL     1      -6.505  -3.829  -6.080  0.00  0.00    +0.029 C 
ATOM     20  C   UNL     1      -7.683  -5.987  -5.632  0.00  0.00    +0.007 C 
ATOM     21  C   UNL     1      -7.403  -5.829  -4.136  0.00  0.00    -0.008 C 
ATOM     22  C   UNL     1      -8.554  -5.064  -3.479  0.00  0.00    +0.007 C 
ATOM     23  C   UNL     1      -6.098  -5.055  -3.941  0.00  0.00    +0.029 C 
ENDBRANCH  12  14
ENDBRANCH   4  12
BRANCH   1  24
ATOM     24  C   UNL     1      -1.293  -0.775   0.011  0.00  0.00    +0.138 C 
BRANCH  24  30
ATOM     25  C   UNL     1      -0.017   1.378   0.010  0.00  0.00    +0.006 A 
ATOM     26  C   UNL     1       1.171   2.086   0.002  0.00  0.00    +0.020 A 
ATOM     27  C   UNL     1       2.378   1.410  -0.013  0.00  0.00    +0.041 A 
ATOM     28  C   UNL     1       2.396   0.027  -0.021  0.00  0.00    +0.020 A 
ATOM     29  C   UNL     1       1.208  -0.679  -0.013  0.00  0.00    +0.006 A 
ATOM     30  C   UNL     1       0.002  -0.004   0.002  0.00  0.00    -0.030 A 
ATOM     31 CL   UNL     1       3.870   2.298  -0.023  0.00  0.00    -0.084 Cl
ENDBRANCH  24  30
ENDBRANCH   1  24
TORSDOF 5
