REMARK  Name = ZINC38604048
REMARK  8 active torsions:
REMARK  status: ('A' for Active; 'I' for Inactive)
REMARK    1  A    between atoms: C_1  and  C_2
REMARK    2  A    between atoms: C_7  and  N_8
REMARK    3  A    between atoms: N_11  and  C_14
REMARK    4  A    between atoms: C_14  and  C_15
REMARK    5  A    between atoms: N_17  and  C_18
REMARK    6  A    between atoms: C_26  and  C_28
REMARK    7  A    between atoms: C_28  and  O_30
REMARK    8  A    between atoms: O_30  and  C_31
REMARK                            x       y       z     vdW  Elec       q    Type
REMARK                         _______ _______ _______ _____ _____    ______ ____
ROOT
ATOM      1  C   UNL     1       1.175   0.772   7.425  0.00  0.00    +0.231 C 
ATOM      2  O   UNL     1       1.955   1.304   6.664  0.00  0.00    -0.274 OA
ATOM      3  N   UNL     1       1.375   0.847   8.756  0.00  0.00    -0.285 N 
ATOM      4  H   UNL     1       0.723   0.468   9.366  0.00  0.00    +0.155 HD
ENDROOT
BRANCH   3   5
ATOM      5  C   UNL     1       2.491   1.457   9.244  0.00  0.00    +0.053 C 
ATOM      6  C   UNL     1       2.975   1.401  10.539  0.00  0.00    +0.019 A 
ATOM      7  C   UNL     1       2.512   0.743  11.704  0.00  0.00    +0.026 A 
ATOM      8  C   UNL     1       3.202   0.866  12.865  0.00  0.00    +0.019 A 
ATOM      9  C   UNL     1       4.370   1.631  12.946  0.00  0.00    +0.017 A 
ATOM     10  C   UNL     1       4.871   2.288  11.872  0.00  0.00    +0.027 A 
ATOM     11  C   UNL     1       4.205   2.207  10.621  0.00  0.00    +0.045 A 
ATOM     12  N   UNL     1       4.483   2.742   9.449  0.00  0.00    -0.367 N 
ATOM     13  C   UNL     1       3.462   2.331   8.481  0.00  0.00    +0.234 C 
ATOM     14 BR   UNL     1       2.570  -0.017  14.413  0.00  0.00    -0.050 Br
ATOM     15  H   UNL     1       5.244   3.313   9.257  0.00  0.00    +0.161 HD
BRANCH  13  16
ATOM     16  C   UNL     1       2.751   3.542   7.935  0.00  0.00    +0.335 C 
ATOM     17  O   UNL     1       2.851   4.606   8.498  0.00  0.00    -0.248 OA
BRANCH  16  18
ATOM     18  O   UNL     1       2.007   3.439   6.822  0.00  0.00    -0.466 OA
ATOM     19  C   UNL     1       1.361   4.628   6.361  0.00  0.00    +0.280 C 
ENDBRANCH  16  18
ENDBRANCH  13  16
ENDBRANCH   3   5
BRANCH   1  20
ATOM     20  C   UNL     1      -0.017   0.026   6.883  0.00  0.00    +0.180 C 
BRANCH  20  24
ATOM     21  N   UNL     1      -0.077  -0.746   2.758  0.00  0.00    -0.327 N 
ATOM     22  C   UNL     1      -1.294  -0.167   3.347  0.00  0.00    +0.120 C 
ATOM     23  C   UNL     1      -1.270  -0.417   4.859  0.00  0.00    +0.104 C 
ATOM     24  N   UNL     1      -0.008   0.090   5.415  0.00  0.00    -0.291 NA
ATOM     25  C   UNL     1       1.146  -0.632   4.863  0.00  0.00    +0.104 C 
ATOM     26  C   UNL     1       1.220  -0.396   3.356  0.00  0.00    +0.120 C 
BRANCH  21  33
ATOM     27  C   UNL     1       0.040   0.381   0.149  0.00  0.00    +0.045 C 
ATOM     28  C   UNL     1      -0.099  -1.103   0.371  0.00  0.00    -0.029 A 
ATOM     29  C   UNL     1      -0.167  -1.961  -0.710  0.00  0.00    +0.006 A 
ATOM     30  C   UNL     1      -0.294  -3.322  -0.507  0.00  0.00    +0.020 A 
ATOM     31  C   UNL     1      -0.353  -3.831   0.779  0.00  0.00    +0.043 A 
ATOM     32  C   UNL     1      -0.286  -2.978   1.864  0.00  0.00    +0.043 A 
ATOM     33  C   UNL     1      -0.152  -1.611   1.663  0.00  0.00    +0.034 A 
ATOM     34 CL   UNL     1      -0.513  -5.542   1.028  0.00  0.00    -0.083 Cl
ENDBRANCH  21  33
ENDBRANCH  20  24
ENDBRANCH   1  20
TORSDOF 6
