REMARK  Name = ZINC65417713
REMARK  7 active torsions:
REMARK  status: ('A' for Active; 'I' for Inactive)
REMARK    1  A    between atoms: C_1  and  C_2
REMARK    2  A    between atoms: C_2  and  C_3
REMARK    3  A    between atoms: C_5  and  C_10
REMARK    4  A    between atoms: C_7  and  C_9
REMARK    5  A    between atoms: C_12  and  C_29
REMARK    6  A    between atoms: N_16  and  C_17
REMARK    7  A    between atoms: C_26  and  O_28
REMARK                            x       y       z     vdW  Elec       q    Type
REMARK                         _______ _______ _______ _____ _____    ______ ____
ROOT
ATOM      1  C   UNL     1      -4.644  -1.778   1.835  0.00  0.00    +0.005 C 
ATOM      2  C   UNL     1      -4.476  -3.271   2.175  0.00  0.00    +0.074 C 
ATOM      3  N   UNL     1      -4.018  -3.310   3.585  0.00  0.00    -0.327 NA
ATOM      4  C   UNL     1      -4.488  -2.025   4.163  0.00  0.00    +0.007 C 
ATOM      5  N   UNL     1      -4.275  -1.042   3.067  0.00  0.00    +0.401 N 
ATOM      6  H   UNL     1      -4.421  -4.095   4.074  0.00  0.00    +0.120 HD
ATOM      7  H   UNL     1      -3.307  -0.758   3.032  0.00  0.00    -0.078 HD
ENDROOT
BRANCH   5   8
ATOM      8  C   UNL     1      -5.147   0.126   3.248  0.00  0.00    -0.005 C 
ATOM      9  C   UNL     1      -4.792   0.855   4.526  0.00  0.00    -0.055 A 
ATOM     10  C   UNL     1      -4.513   0.364   5.791  0.00  0.00    +0.002 A 
ATOM     11  C   UNL     1      -4.212   1.231   6.822  0.00  0.00    +0.000 A 
ATOM     12  C   UNL     1      -4.188   2.595   6.592  0.00  0.00    +0.000 A 
ATOM     13  C   UNL     1      -4.466   3.086   5.332  0.00  0.00    +0.004 A 
ATOM     14  C   UNL     1      -4.769   2.217   4.297  0.00  0.00    -0.043 A 
ATOM     15  C   UNL     1      -5.106   2.498   2.848  0.00  0.00    +0.065 C 
ATOM     16  C   UNL     1      -4.911   1.151   2.118  0.00  0.00    +0.110 C 
BRANCH  16  17
ATOM     17  O   UNL     1      -3.582   1.041   1.602  0.00  0.00    -0.393 OA
ATOM     18  H   UNL     1      -3.384   1.664   0.889  0.00  0.00    +0.210 HD
ENDBRANCH  16  17
ENDBRANCH   5   8
BRANCH   1  21
ATOM     19  C   UNL     1      -1.983  -0.685  -0.355  0.00  0.00    +0.084 A 
ATOM     20  N   UNL     1      -2.483  -0.901   0.831  0.00  0.00    -0.348 N 
ATOM     21  C   UNL     1      -3.724  -1.395   0.704  0.00  0.00    +0.025 A 
ATOM     22  H   UNL     1      -2.799  -0.973  -2.245  0.00  0.00    +0.167 HD
ATOM     23  C   UNL     1      -4.003  -1.488  -0.610  0.00  0.00    +0.032 A 
ATOM     24  N   UNL     1      -2.902  -1.033  -1.282  0.00  0.00    -0.347 N 
ATOM     25  C   UNL     1      -5.285  -1.991  -1.222  0.00  0.00    +0.065 C 
ATOM     26  H   UNL     1      -2.029  -0.731   1.671  0.00  0.00    +0.167 HD
BRANCH  19  28
ATOM     27  C   UNL     1      -0.681   1.395  -0.714  0.00  0.00    +0.012 C 
ATOM     28  C   UNL     1      -0.611  -0.132  -0.643  0.00  0.00    +0.069 C 
ENDBRANCH  19  28
ENDBRANCH   1  21
BRANCH   2  29
ATOM     29  C   UNL     1      -5.793  -3.989   2.033  0.00  0.00    -0.032 A 
ATOM     30  C   UNL     1      -6.070  -4.703   0.883  0.00  0.00    +0.005 A 
ATOM     31  C   UNL     1      -7.279  -5.362   0.752  0.00  0.00    +0.000 A 
ATOM     32  C   UNL     1      -8.210  -5.307   1.773  0.00  0.00    +0.000 A 
ATOM     33  C   UNL     1      -7.932  -4.593   2.924  0.00  0.00    +0.000 A 
ATOM     34  C   UNL     1      -6.722  -3.938   3.056  0.00  0.00    +0.005 A 
ENDBRANCH   2  29
TORSDOF 5
