REMARK  Name = ZINC09309775
REMARK  8 active torsions:
REMARK  status: ('A' for Active; 'I' for Inactive)
REMARK    1  A    between atoms: C_1  and  C_2
REMARK    2  A    between atoms: C_6  and  N_9
REMARK    3  A    between atoms: C_7  and  C_8
REMARK    4  A    between atoms: C_10  and  C_34
REMARK    5  A    between atoms: C_12  and  C_15
REMARK    6  A    between atoms: C_13  and  C_14
REMARK    7  A    between atoms: C_25  and  C_27
REMARK    8  A    between atoms: C_27  and  C_28
REMARK                            x       y       z     vdW  Elec       q    Type
REMARK                         _______ _______ _______ _____ _____    ______ ____
ROOT
ATOM      1  C   UNL     1       1.700  -4.496   5.164  0.00  0.00    +0.026 C 
ATOM      2  C   UNL     1       1.207  -5.511   5.959  0.00  0.00    +0.081 C 
ATOM      3  C   UNL     1      -0.138  -6.106   5.726  0.00  0.00    +0.152 C 
ATOM      4  N   UNL     1      -0.673  -6.230   4.540  0.00  0.00    -0.283 NA
ATOM      5  N   UNL     1      -0.779  -6.522   6.912  0.00  0.00    -0.152 N 
ATOM      6  C   UNL     1       0.018  -6.803   8.002  0.00  0.00    +0.181 C 
ATOM      7  N   UNL     1       1.312  -6.639   8.106  0.00  0.00    -0.152 NA
ATOM      8  C   UNL     1       1.990  -6.071   7.086  0.00  0.00    +0.273 C 
ATOM      9  O   UNL     1       3.210  -6.015   7.092  0.00  0.00    -0.268 OA
ATOM     10  S   UNL     1      -1.163  -7.401   9.182  0.00  0.00    -0.038 S 
ATOM     11  C   UNL     1      -2.631  -7.146   8.194  0.00  0.00    +0.104 C 
ATOM     12  N   UNL     1      -2.138  -6.686   7.080  0.00  0.00    -0.169 NA
ATOM     13  H   UNL     1      -1.567  -6.594   4.446  0.00  0.00    +0.188 HD
ENDROOT
BRANCH   1  17
ATOM     14  N   UNL     1       0.108  -2.635   2.538  0.00  0.00    -0.317 N 
ATOM     15  C   UNL     1      -1.003  -3.083   3.196  0.00  0.00    +0.022 A 
ATOM     16  C   UNL     1      -0.624  -3.826   4.249  0.00  0.00    +0.031 A 
ATOM     17  C   UNL     1       0.846  -3.839   4.241  0.00  0.00    -0.003 A 
ATOM     18  C   UNL     1       1.226  -3.082   3.145  0.00  0.00    +0.028 A 
ATOM     19  C   UNL     1       2.641  -2.804   2.710  0.00  0.00    +0.064 C 
ATOM     20  C   UNL     1      -2.428  -2.789   2.803  0.00  0.00    +0.064 C 
BRANCH  14  26
ATOM     21  C   UNL     1       0.085   1.844   0.508  0.00  0.00    +0.044 C 
ATOM     22  C   UNL     1       0.076   0.343   0.379  0.00  0.00    -0.046 A 
ATOM     23  C   UNL     1       0.048  -0.242  -0.874  0.00  0.00    +0.004 A 
ATOM     24  C   UNL     1       0.040  -1.619  -0.997  0.00  0.00    +0.002 A 
ATOM     25  C   UNL     1       0.060  -2.415   0.132  0.00  0.00    +0.026 A 
ATOM     26  C   UNL     1       0.088  -1.831   1.391  0.00  0.00    +0.050 A 
ATOM     27  C   UNL     1       0.102  -0.447   1.511  0.00  0.00    -0.024 A 
ATOM     28  C   UNL     1       0.139   0.191   2.875  0.00  0.00    +0.046 C 
ENDBRANCH  14  26
ENDBRANCH   1  17
BRANCH  11  29
ATOM     29  C   UNL     1      -4.072  -7.397   8.558  0.00  0.00    +0.099 C 
BRANCH  29  30
ATOM     30  C   UNL     1      -4.956  -7.029   7.395  0.00  0.00    -0.041 A 
ATOM     31  C   UNL     1      -5.445  -5.742   7.279  0.00  0.00    +0.004 A 
ATOM     32  C   UNL     1      -6.256  -5.404   6.211  0.00  0.00    +0.000 A 
ATOM     33  C   UNL     1      -6.577  -6.354   5.260  0.00  0.00    +0.000 A 
ATOM     34  C   UNL     1      -6.087  -7.642   5.375  0.00  0.00    +0.000 A 
ATOM     35  C   UNL     1      -5.272  -7.978   6.440  0.00  0.00    +0.004 A 
ENDBRANCH  29  30
ENDBRANCH  11  29
TORSDOF 4
