REMARK  Name = ZINC65147465
REMARK  5 active torsions:
REMARK  status: ('A' for Active; 'I' for Inactive)
REMARK    1  A    between atoms: C_4  and  C_8
REMARK    2  A    between atoms: C_9  and  C_10
REMARK    3  A    between atoms: N_12  and  N_13
REMARK    4  A    between atoms: N_16  and  C_17
REMARK    5  A    between atoms: C_17  and  C_18
REMARK                            x       y       z     vdW  Elec       q    Type
REMARK                         _______ _______ _______ _____ _____    ______ ____
ROOT
ATOM      1  C   UNL     1       4.990  -2.743  -0.061  0.00  0.00    +0.253 C 
ATOM      2  O   UNL     1       6.035  -2.118  -0.068  0.00  0.00    -0.269 OA
ATOM      3  N   UNL     1       5.012  -4.091  -0.068  0.00  0.00    -0.230 N 
ATOM      4  H   UNL     1       4.179  -4.589  -0.063  0.00  0.00    +0.173 HD
ENDROOT
BRANCH   3   5
ATOM      5  N   UNL     1       6.236  -4.772  -0.084  0.00  0.00    -0.218 N 
ATOM      6  C   UNL     1       6.257  -6.120  -0.092  0.00  0.00    +0.316 C 
ATOM      7  O   UNL     1       7.319  -6.711  -0.105  0.00  0.00    -0.251 OA
ATOM      8  N   UNL     1       5.101  -6.812  -0.084  0.00  0.00    -0.296 N 
ATOM      9  H   UNL     1       7.068  -4.274  -0.090  0.00  0.00    +0.174 HD
ATOM     10  H   UNL     1       4.253  -6.340  -0.073  0.00  0.00    +0.150 HD
BRANCH   8  11
ATOM     11  C   UNL     1       5.124  -8.277  -0.092  0.00  0.00    +0.137 C 
BRANCH  11  12
ATOM     12  C   UNL     1       3.689  -8.809  -0.081  0.00  0.00    +0.135 C 
ATOM     13  C   UNL     1       3.704 -10.349   0.027  0.00  0.00    +0.035 C 
ATOM     14  C   UNL     1       2.547 -10.757  -0.925  0.00  0.00    +0.031 C 
ATOM     15  C   UNL     1       2.663  -9.661  -2.015  0.00  0.00    +0.160 C 
ATOM     16  O   UNL     1       3.034  -8.467  -1.308  0.00  0.00    -0.375 OA
ENDBRANCH  11  12
ENDBRANCH   8  11
ENDBRANCH   3   5
BRANCH   1  18
ATOM     17  C   UNL     1       3.691  -0.683  -0.037  0.00  0.00    +0.016 C 
ATOM     18  C   UNL     1       3.712  -2.032  -0.045  0.00  0.00    +0.069 C 
BRANCH  17  22
ATOM     19  C   UNL     1      -0.017   1.381   0.010  0.00  0.00    +0.018 A 
ATOM     20  C   UNL     1       1.167   2.097   0.002  0.00  0.00    +0.040 A 
ATOM     21  C   UNL     1       2.379   1.433  -0.013  0.00  0.00    +0.131 A 
ATOM     22  C   UNL     1       2.405   0.032  -0.021  0.00  0.00    +0.011 A 
ATOM     23  C   UNL     1       1.203  -0.682  -0.013  0.00  0.00    +0.026 A 
ATOM     24  C   UNL     1       0.002  -0.004   0.002  0.00  0.00    +0.019 A 
ATOM     25 BR   UNL     1      -1.624  -0.969   0.013  0.00  0.00    -0.050 Br
ATOM     26  F   UNL     1       3.534   2.133  -0.021  0.00  0.00    -0.205 F 
ENDBRANCH  17  22
ENDBRANCH   1  18
TORSDOF 5
