REMARK  Name = ZINC43199056
REMARK  23 active torsions:
REMARK  status: ('A' for Active; 'I' for Inactive)
REMARK    1  A    between atoms: C_1  and  C_2
REMARK    2  A    between atoms: C_2  and  C_33
REMARK    3  A    between atoms: C_4  and  C_26
REMARK    4  A    between atoms: C_6  and  C_8
REMARK    5  A    between atoms: C_6  and  C_15
REMARK    6  A    between atoms: C_8  and  O_10
REMARK    7  A    between atoms: O_10  and  C_11
REMARK    8  A    between atoms: C_11  and  C_12
REMARK    9  A    between atoms: C_11  and  C_13
REMARK   10  A    between atoms: C_11  and  C_14
REMARK   11  A    between atoms: C_15  and  C_16
REMARK   12  A    between atoms: C_15  and  C_18
REMARK   13  A    between atoms: C_15  and  O_25
REMARK   14  A    between atoms: C_18  and  O_20
REMARK   15  A    between atoms: O_20  and  C_21
REMARK   16  A    between atoms: C_21  and  C_22
REMARK   17  A    between atoms: C_21  and  C_23
REMARK   18  A    between atoms: C_21  and  C_24
REMARK   19  A    between atoms: C_26  and  O_28
REMARK   20  A    between atoms: O_28  and  C_29
REMARK   21  A    between atoms: C_29  and  C_30
REMARK   22  A    between atoms: C_29  and  C_31
REMARK   23  A    between atoms: C_29  and  C_32
REMARK                            x       y       z     vdW  Elec       q    Type
REMARK                         _______ _______ _______ _____ _____    ______ ____
ROOT
ATOM      1  C   UNL     1      -0.997   0.097  -1.080  0.00  0.00    +0.074 C 
ATOM      2  C   UNL     1      -0.368  -1.175  -0.508  0.00  0.00    +0.167 C 
ATOM      3  O   UNL     1      -1.386  -2.175  -0.286  0.00  0.00    -0.331 OA
ATOM      4  C   UNL     1      -1.984  -1.766   0.968  0.00  0.00    +0.276 C 
ATOM      5  C   UNL     1      -0.776  -1.232   1.769  0.00  0.00    +0.244 C 
ATOM      6  O   UNL     1       0.214  -0.903   0.778  0.00  0.00    -0.325 OA
ATOM      7  C   UNL     1       0.698  -1.711  -1.465  0.00  0.00    +0.074 C 
ENDROOT
BRANCH   5   8
ATOM      8  C   UNL     1      -0.253  -2.297   2.698  0.00  0.00    +0.347 C 
ATOM      9  O   UNL     1      -0.959  -2.732   3.578  0.00  0.00    -0.247 OA
BRANCH   8  10
ATOM     10  O   UNL     1       0.997  -2.764   2.548  0.00  0.00    -0.457 OA
BRANCH  10  11
ATOM     11  C   UNL     1       1.440  -3.744   3.489  0.00  0.00    +0.105 C 
ATOM     12  C   UNL     1       0.582  -5.003   3.355  0.00  0.00    +0.055 C 
ATOM     13  C   UNL     1       2.904  -4.092   3.210  0.00  0.00    +0.055 C 
ATOM     14  C   UNL     1       1.310  -3.186   4.907  0.00  0.00    +0.055 C 
ENDBRANCH  10  11
ENDBRANCH   8  10
ENDBRANCH   5   8
BRANCH   4  15
ATOM     15  C   UNL     1      -2.615  -2.943   1.667  0.00  0.00    +0.340 C 
ATOM     16  O   UNL     1      -2.462  -4.058   1.229  0.00  0.00    -0.248 OA
BRANCH  15  17
ATOM     17  O   UNL     1      -3.347  -2.751   2.776  0.00  0.00    -0.457 OA
BRANCH  17  18
ATOM     18  C   UNL     1      -4.029  -3.889   3.307  0.00  0.00    +0.105 C 
ATOM     19  C   UNL     1      -3.007  -4.954   3.710  0.00  0.00    +0.055 C 
ATOM     20  C   UNL     1      -4.841  -3.470   4.534  0.00  0.00    +0.055 C 
ATOM     21  C   UNL     1      -4.970  -4.462   2.245  0.00  0.00    +0.055 C 
ENDBRANCH  17  18
ENDBRANCH  15  17
ENDBRANCH   4  15
BRANCH   5  22
ATOM     22  C   UNL     1      -1.173   0.016   2.560  0.00  0.00    +0.215 C 
BRANCH  22  23
ATOM     23  C   UNL     1      -2.349  -0.315   3.480  0.00  0.00    +0.130 C 
ATOM     24 BR   UNL     1      -3.998  -0.443   2.417  0.00  0.00    -0.088 Br
ENDBRANCH  22  23
BRANCH  22  25
ATOM     25  C   UNL     1      -0.002   0.479   3.388  0.00  0.00    +0.344 C 
ATOM     26  O   UNL     1       0.853  -0.308   3.719  0.00  0.00    -0.247 OA
BRANCH  25  27
ATOM     27  O   UNL     1       0.092   1.766   3.757  0.00  0.00    -0.457 OA
BRANCH  27  28
ATOM     28  C   UNL     1       1.228   2.135   4.542  0.00  0.00    +0.105 C 
ATOM     29  C   UNL     1       2.507   1.839   3.756  0.00  0.00    +0.055 C 
ATOM     30  C   UNL     1       1.162   3.629   4.864  0.00  0.00    +0.055 C 
ATOM     31  C   UNL     1       1.232   1.331   5.844  0.00  0.00    +0.055 C 
ENDBRANCH  27  28
ENDBRANCH  25  27
ENDBRANCH  22  25
BRANCH  22  32
ATOM     32  O   UNL     1      -1.555   1.053   1.653  0.00  0.00    -0.374 OA
ATOM     33  H   UNL     1      -0.856   1.314   1.038  0.00  0.00    +0.211 HD
ENDBRANCH  22  32
ENDBRANCH   5  22
TORSDOF 12
