REMARK  Name = ZINC09564922
REMARK  6 active torsions:
REMARK  status: ('A' for Active; 'I' for Inactive)
REMARK    1  A    between atoms: C_1  and  S_2
REMARK    2  A    between atoms: S_2  and  C_3
REMARK    3  A    between atoms: C_3  and  C_4
REMARK    4  A    between atoms: C_4  and  N_5
REMARK    5  A    between atoms: N_14  and  C_15
REMARK    6  A    between atoms: C_15  and  C_17
REMARK                            x       y       z     vdW  Elec       q    Type
REMARK                         _______ _______ _______ _____ _____    ______ ____
ROOT
ATOM      1  N   UNL     1      -2.175   5.569  -3.473  0.00  0.00    -0.320 N 
ATOM      2  C   UNL     1      -1.844   4.797  -2.373  0.00  0.00    +0.061 A 
ATOM      3  C   UNL     1      -1.495   3.438  -2.339  0.00  0.00    +0.076 A 
ATOM      4  C   UNL     1      -1.190   2.812  -1.147  0.00  0.00    +0.164 A 
ATOM      5  C   UNL     1      -1.220   3.517   0.053  0.00  0.00    +0.163 A 
ATOM      6  C   UNL     1      -1.564   4.860   0.044  0.00  0.00    +0.066 A 
ATOM      7  C   UNL     1      -1.867   5.477  -1.147  0.00  0.00    +0.043 A 
ATOM      8  S   UNL     1      -2.342   7.125  -1.603  0.00  0.00    -0.052 S 
ATOM      9  C   UNL     1      -2.490   6.883  -3.314  0.00  0.00    +0.167 A 
ATOM     10  N   UNL     1      -2.831   7.768  -4.245  0.00  0.00    -0.152 NA
ATOM     11  O   UNL     1      -0.915   2.912   1.232  0.00  0.00    -0.485 OA
ATOM     12  C   UNL     1      -0.934   1.480   1.244  0.00  0.00    +0.270 C 
ATOM     13  C   UNL     1      -0.189   0.981  -0.001  0.00  0.00    +0.270 C 
ATOM     14  O   UNL     1      -0.858   1.489  -1.160  0.00  0.00    -0.485 OA
ENDROOT
BRANCH  10  15
ATOM     15  C   UNL     1      -3.110   9.028  -3.899  0.00  0.00    +0.269 C 
ATOM     16  O   UNL     1      -3.054   9.366  -2.730  0.00  0.00    -0.268 OA
BRANCH  15  17
ATOM     17  C   UNL     1      -3.490  10.014  -4.937  0.00  0.00    +0.040 A 
ATOM     18  C   UNL     1      -3.782  11.330  -4.579  0.00  0.00    +0.013 A 
ATOM     19  C   UNL     1      -4.135  12.245  -5.550  0.00  0.00    +0.002 A 
ATOM     20  C   UNL     1      -4.198  11.859  -6.878  0.00  0.00    +0.015 A 
ATOM     21  C   UNL     1      -3.909  10.555  -7.240  0.00  0.00    +0.019 A 
ATOM     22  C   UNL     1      -3.550   9.632  -6.277  0.00  0.00    +0.028 A 
ATOM     23 BR   UNL     1      -3.998  10.038  -9.056  0.00  0.00    -0.050 Br
ENDBRANCH  15  17
ENDBRANCH  10  15
BRANCH   1  24
ATOM     24  C   UNL     1      -2.187   4.972  -4.811  0.00  0.00    +0.135 C 
BRANCH  24  25
ATOM     25  C   UNL     1      -3.337   5.566  -5.626  0.00  0.00    +0.090 C 
BRANCH  25  27
ATOM     26  C   UNL     1      -4.853   5.514  -8.049  0.00  0.00    +0.084 C 
ATOM     27  S   UNL     1      -3.462   4.701  -7.215  0.00  0.00    -0.162 S 
ENDBRANCH  25  27
ENDBRANCH  24  25
ENDBRANCH   1  24
TORSDOF 5
