REMARK  Name = ZINC63393916
REMARK  5 active torsions:
REMARK  status: ('A' for Active; 'I' for Inactive)
REMARK    1  A    between atoms: C_1  and  C_2
REMARK    2  A    between atoms: C_2  and  C_34
REMARK    3  A    between atoms: C_6  and  C_18
REMARK    4  A    between atoms: C_22  and  O_24
REMARK    5  A    between atoms: O_24  and  C_25
REMARK                            x       y       z     vdW  Elec       q    Type
REMARK                         _______ _______ _______ _____ _____    ______ ____
ROOT
ATOM      1  C   UNL     1       1.612   3.012  -1.512  0.00  0.00    +0.011 C 
ATOM      2  C   UNL     1       1.261   1.524  -1.471  0.00  0.00    -0.023 C 
ATOM      3  C   UNL     1       2.068   0.774  -2.532  0.00  0.00    +0.058 C 
ATOM      4  C   UNL     1       3.544   0.923  -2.247  0.00  0.00    +0.016 C 
ATOM      5  C   UNL     1       3.998   1.039  -0.984  0.00  0.00    +0.021 C 
ATOM      6  C   UNL     1       5.470   1.163  -0.665  0.00  0.00    +0.073 C 
ATOM      7  C   UNL     1       6.236   1.675  -1.886  0.00  0.00    +0.148 C 
ATOM      8  C   UNL     1       5.745   0.903  -3.087  0.00  0.00    +0.106 C 
ATOM      9  N   UNL     1       6.544   0.223  -3.850  0.00  0.00    -0.151 NA
ATOM     10  C   UNL     1       7.861   0.132  -3.616  0.00  0.00    +0.331 C 
ATOM     11  O   UNL     1       8.557  -0.502  -4.386  0.00  0.00    -0.250 OA
ATOM     12  N   UNL     1       8.429   0.724  -2.554  0.00  0.00    -0.238 N 
ATOM     13  C   UNL     1       7.711   1.470  -1.692  0.00  0.00    +0.231 C 
ATOM     14  O   UNL     1       8.260   1.982  -0.741  0.00  0.00    -0.275 OA
ATOM     15  N   UNL     1       4.399   0.946  -3.326  0.00  0.00    -0.307 N 
ATOM     16  C   UNL     1       3.103   1.051   0.106  0.00  0.00    +0.162 C 
ATOM     17  O   UNL     1       3.543   1.148   1.235  0.00  0.00    -0.292 OA
ATOM     18  C   UNL     1       1.618   0.947  -0.097  0.00  0.00    +0.086 C 
ATOM     19  C   UNL     1      -0.235   1.340  -1.735  0.00  0.00    +0.011 C 
ATOM     20  H   UNL     1       9.381   0.615  -2.404  0.00  0.00    +0.159 HD
ATOM     21  H   UNL     1       4.055   0.990  -4.232  0.00  0.00    +0.153 HD
ENDROOT
BRANCH   6  22
ATOM     22  C   UNL     1       6.010  -0.188  -0.272  0.00  0.00    -0.035 A 
ATOM     23  C   UNL     1       5.952  -1.242  -1.166  0.00  0.00    +0.004 A 
ATOM     24  C   UNL     1       6.447  -2.483  -0.809  0.00  0.00    +0.004 A 
ATOM     25  C   UNL     1       7.002  -2.672   0.442  0.00  0.00    +0.046 A 
ATOM     26  C   UNL     1       7.062  -1.617   1.340  0.00  0.00    +0.129 A 
ATOM     27  C   UNL     1       6.569  -0.371   0.977  0.00  0.00    +0.050 A 
BRANCH  26  28
ATOM     28  O   UNL     1       7.607  -1.800   2.571  0.00  0.00    -0.456 OA
BRANCH  28  29
ATOM     29  C   UNL     1       7.636  -0.741   3.421  0.00  0.00    +0.128 A 
ATOM     30  C   UNL     1       6.574  -0.513   4.285  0.00  0.00    +0.046 A 
ATOM     31  C   UNL     1       6.606   0.565   5.147  0.00  0.00    +0.004 A 
ATOM     32  C   UNL     1       7.695   1.418   5.151  0.00  0.00    +0.000 A 
ATOM     33  C   UNL     1       8.754   1.194   4.291  0.00  0.00    +0.004 A 
ATOM     34  C   UNL     1       8.730   0.113   3.431  0.00  0.00    +0.046 A 
ENDBRANCH  28  29
ENDBRANCH  26  28
ENDBRANCH   6  22
TORSDOF 3
