REMARK  Name = ZINC04911431
REMARK  6 active torsions:
REMARK  status: ('A' for Active; 'I' for Inactive)
REMARK    1  A    between atoms: C_1  and  C_2
REMARK    2  A    between atoms: C_7  and  C_8
REMARK    3  A    between atoms: C_8  and  O_10
REMARK    4  A    between atoms: O_10  and  C_11
REMARK    5  A    between atoms: C_16  and  C_18
REMARK    6  A    between atoms: C_20  and  C_25
REMARK                            x       y       z     vdW  Elec       q    Type
REMARK                         _______ _______ _______ _____ _____    ______ ____
ROOT
ATOM      1  C   UNL     1       6.433   7.427   0.708  0.00  0.00    +0.047 C 
ATOM      2  C   UNL     1       5.442   6.854  -0.272  0.00  0.00    -0.008 A 
ATOM      3  C   UNL     1       4.369   6.005   0.024  0.00  0.00    +0.042 A 
ATOM      4  C   UNL     1       3.714   5.717  -1.174  0.00  0.00    +0.028 A 
ATOM      5  N   UNL     1       4.350   6.358  -2.154  0.00  0.00    -0.352 N 
ATOM      6  H   UNL     1       4.105   6.334  -3.092  0.00  0.00    +0.166 HD
ATOM      7  C   UNL     1       5.415   7.061  -1.624  0.00  0.00    +0.128 A 
ATOM      8  C   UNL     1       2.503   4.822  -1.249  0.00  0.00    +0.062 C 
ATOM      9  C   UNL     1       2.451   3.936  -0.001  0.00  0.00    +0.032 C 
ATOM     10  C   UNL     1       2.541   4.787   1.270  0.00  0.00    +0.088 C 
ATOM     11  C   UNL     1       3.908   5.453   1.307  0.00  0.00    +0.166 C 
ATOM     12  O   UNL     1       4.570   5.524   2.321  0.00  0.00    -0.292 OA
ENDROOT
BRANCH   9  13
ATOM     13  C   UNL     1       1.156   3.166   0.008  0.00  0.00    -0.043 A 
ATOM     14  C   UNL     1       1.175   1.783   0.000  0.00  0.00    +0.005 A 
ATOM     15  C   UNL     1      -0.013   1.076   0.008  0.00  0.00    +0.020 A 
ATOM     16  C   UNL     1      -1.220   1.751   0.017  0.00  0.00    +0.041 A 
ATOM     17  C   UNL     1      -1.238   3.135   0.031  0.00  0.00    +0.020 A 
ATOM     18  C   UNL     1      -0.050   3.841   0.023  0.00  0.00    +0.005 A 
ATOM     19 CL   UNL     1      -2.712   0.864   0.019  0.00  0.00    -0.084 Cl
ENDBRANCH   9  13
BRANCH   7  20
ATOM     20  C   UNL     1       6.357   7.891  -2.382  0.00  0.00    +0.356 C 
ATOM     21  O   UNL     1       7.260   8.467  -1.807  0.00  0.00    -0.243 OA
BRANCH  20  22
ATOM     22  O   UNL     1       6.222   8.015  -3.719  0.00  0.00    -0.457 OA
BRANCH  22  23
ATOM     23  C   UNL     1       7.190   8.853  -4.404  0.00  0.00    +0.180 C 
ATOM     24  C   UNL     1       6.653  10.294  -4.522  0.00  0.00    +0.045 C 
ATOM     25  C   UNL     1       7.140  10.768  -5.914  0.00  0.00    +0.004 C 
ATOM     26  C   UNL     1       6.988   9.494  -6.782  0.00  0.00    +0.007 C 
ATOM     27  C   UNL     1       7.403   8.344  -5.841  0.00  0.00    +0.027 C 
ATOM     28  C   UNL     1       6.528   7.115  -6.097  0.00  0.00    +0.011 C 
ENDBRANCH  22  23
ENDBRANCH  20  22
ENDBRANCH   7  20
TORSDOF 4
