REMARK  Name = ZINC64255398
REMARK  14 active torsions:
REMARK  status: ('A' for Active; 'I' for Inactive)
REMARK    1  A    between atoms: C_1  and  C_2
REMARK    2  A    between atoms: C_2  and  N_3
REMARK    3  A    between atoms: N_3  and  C_4
REMARK    4  A    between atoms: N_3  and  C_6
REMARK    5  A    between atoms: C_4  and  C_5
REMARK    6  A    between atoms: C_6  and  C_7
REMARK    7  A    between atoms: C_7  and  N_8
REMARK    8  A    between atoms: N_8  and  C_9
REMARK    9  A    between atoms: C_9  and  C_10
REMARK   10  A    between atoms: C_10  and  C_11
REMARK   11  A    between atoms: C_10  and  C_12
REMARK   12  A    between atoms: N_15  and  C_16
REMARK   13  A    between atoms: N_19  and  C_22
REMARK   14  A    between atoms: C_22  and  C_23
REMARK                            x       y       z     vdW  Elec       q    Type
REMARK                         _______ _______ _______ _____ _____    ______ ____
ROOT
ATOM      1  N   UNL     1      -1.875  -4.177   0.902  0.00  0.00    -0.287 N 
ATOM      2  C   UNL     1      -1.450  -4.690  -0.270  0.00  0.00    +0.302 C 
ATOM      3  O   UNL     1      -1.243  -3.955  -1.216  0.00  0.00    -0.253 OA
ATOM      4  N   UNL     1      -1.254  -6.018  -0.393  0.00  0.00    -0.297 N 
ATOM      5  H   UNL     1      -1.420  -6.604   0.362  0.00  0.00    +0.151 HD
ENDROOT
BRANCH   4   6
ATOM      6  C   UNL     1      -0.792  -6.575  -1.666  0.00  0.00    +0.071 C 
ATOM      7  C   UNL     1      -1.994  -6.825  -2.582  0.00  0.00    +0.004 C 
ATOM      8  C   UNL     1      -1.512  -7.481  -3.878  0.00  0.00    -0.077 C 
ATOM      9  N   UNL     1      -0.855  -8.757  -3.571  0.00  0.00    +0.383 N 
ATOM     10  C   UNL     1       0.339  -8.518  -2.752  0.00  0.00    -0.077 C 
ATOM     11  C   UNL     1      -0.071  -7.902  -1.413  0.00  0.00    +0.004 C 
ATOM     12  H   UNL     1      -1.495  -9.350  -3.065  0.00  0.00    -0.082 HD
BRANCH   9  13
ATOM     13  C   UNL     1      -0.464  -9.419  -4.823  0.00  0.00    -0.006 C 
BRANCH  13  14
ATOM     14  C   UNL     1      -1.719  -9.851  -5.585  0.00  0.00    +0.325 C 
ATOM     15  F   UNL     1      -2.527 -10.629  -4.749  0.00  0.00    -0.211 F 
ATOM     16  F   UNL     1      -2.429  -8.717  -5.995  0.00  0.00    -0.211 F 
ENDBRANCH  13  14
ENDBRANCH   9  13
ENDBRANCH   4   6
BRANCH   1  17
ATOM     17  C   UNL     1      -2.088  -2.734   1.035  0.00  0.00    +0.091 C 
BRANCH  17  18
ATOM     18  C   UNL     1      -0.793  -2.069   1.508  0.00  0.00    -0.060 C 
BRANCH  18  19
ATOM     19  N   UNL     1      -0.967  -0.610   1.519  0.00  0.00    +0.380 N 
ATOM     20  H   UNL     1      -1.275  -0.302   0.609  0.00  0.00    -0.082 HD
BRANCH  19  22
ATOM     21  C   UNL     1      -2.245   1.259   2.451  0.00  0.00    -0.017 C 
ATOM     22  C   UNL     1      -1.973  -0.245   2.525  0.00  0.00    -0.082 C 
ENDBRANCH  19  22
BRANCH  19  23
ATOM     23  C   UNL     1       0.312   0.033   1.848  0.00  0.00    -0.082 C 
ATOM     24  C   UNL     1       1.320  -0.234   0.729  0.00  0.00    -0.017 C 
ENDBRANCH  19  23
ENDBRANCH  18  19
ENDBRANCH  17  18
ENDBRANCH   1  17
BRANCH   1  25
ATOM     25  C   UNL     1      -2.125  -5.063   2.041  0.00  0.00    +0.112 C 
BRANCH  25  26
ATOM     26  C   UNL     1      -3.581  -5.533   2.012  0.00  0.00    +0.000 C 
ATOM     27  C   UNL     1      -3.813  -6.396   0.770  0.00  0.00    +0.009 C 
ATOM     28  C   UNL     1      -3.876  -6.356   3.268  0.00  0.00    +0.009 C 
ENDBRANCH  25  26
ENDBRANCH   1  25
TORSDOF 10
