REMARK  Name = ZINC09503220
REMARK  6 active torsions:
REMARK  status: ('A' for Active; 'I' for Inactive)
REMARK    1  A    between atoms: C_1  and  C_2
REMARK    2  A    between atoms: C_2  and  C_3
REMARK    3  A    between atoms: C_3  and  N_4
REMARK    4  A    between atoms: C_5  and  C_7
REMARK    5  A    between atoms: C_7  and  N_56
REMARK    6  A    between atoms: C_23  and  C_27
REMARK                            x       y       z     vdW  Elec       q    Type
REMARK                         _______ _______ _______ _____ _____    ______ ____
ROOT
ATOM      1  C   UNL     1       0.847  -0.508   1.172  0.00  0.00    -0.059 C 
ATOM      2  C   UNL     1       0.096   0.002  -0.060  0.00  0.00    +0.088 C 
ATOM      3  N   UNL     1      -0.018   1.465   0.010  0.00  0.00    -0.318 N 
ATOM      4  C   UNL     1       1.310   2.092   0.065  0.00  0.00    +0.088 C 
ATOM      5  C   UNL     1       2.062   1.581   1.297  0.00  0.00    -0.059 C 
ATOM      6  C   UNL     1      -0.754   1.957  -1.052  0.00  0.00    +0.133 A 
ATOM      7  C   UNL     1      -1.960   2.677  -0.823  0.00  0.00    +0.051 A 
ATOM      8  C   UNL     1      -2.599   3.010   0.452  0.00  0.00    -0.025 A 
ATOM      9  C   UNL     1      -3.751   3.709   0.394  0.00  0.00    -0.004 A 
ATOM     10  S   UNL     1      -4.044   3.975  -1.335  0.00  0.00    -0.073 S 
ATOM     11  C   UNL     1      -2.622   3.134  -1.980  0.00  0.00    +0.114 A 
ATOM     12  N   UNL     1      -2.148   2.892  -3.186  0.00  0.00    -0.228 NA
ATOM     13  C   UNL     1      -1.027   2.213  -3.337  0.00  0.00    +0.224 A 
ATOM     14  N   UNL     1      -0.350   1.760  -2.297  0.00  0.00    -0.220 NA
ATOM     15  C   UNL     1      -4.592   4.169   1.545  0.00  0.00    +0.046 C 
ATOM     16  C   UNL     1      -3.761   4.051   2.830  0.00  0.00    -0.009 C 
ATOM     17  C   UNL     1      -3.099   2.670   2.862  0.00  0.00    +0.008 C 
ATOM     18  C   UNL     1      -2.006   2.594   1.795  0.00  0.00    +0.037 C 
ATOM     19  C   UNL     1      -4.673   4.210   4.048  0.00  0.00    +0.008 C 
ATOM     20  N   UNL     1       2.188   0.112   1.202  0.00  0.00    +0.387 N 
ATOM     21  H   UNL     1       2.686  -0.126   0.336  0.00  0.00    -0.081 HD
ENDROOT
BRANCH  20  22
ATOM     22  C   UNL     1       2.958  -0.404   2.355  0.00  0.00    +0.019 C 
BRANCH  22  24
ATOM     23  N   UNL     1       5.290  -0.289   3.170  0.00  0.00    -0.317 N 
ATOM     24  C   UNL     1       4.384   0.069   2.239  0.00  0.00    +0.196 C 
ATOM     25  O   UNL     1       4.716   0.772   1.308  0.00  0.00    -0.278 OA
ATOM     26  H   UNL     1       5.024  -0.851   3.915  0.00  0.00    +0.149 HD
BRANCH  23  27
ATOM     27  C   UNL     1       6.676   0.171   3.058  0.00  0.00    +0.104 C 
BRANCH  27  29
ATOM     28  C   UNL     1       8.939   0.107   4.115  0.00  0.00    +0.005 C 
ATOM     29  C   UNL     1       7.491  -0.373   4.233  0.00  0.00    +0.015 C 
ENDBRANCH  27  29
ENDBRANCH  23  27
ENDBRANCH  22  24
ENDBRANCH  20  22
TORSDOF 4
