REMARK  Name = ZINC40215426
REMARK  4 active torsions:
REMARK  status: ('A' for Active; 'I' for Inactive)
REMARK    1  A    between atoms: C_4  and  S_8
REMARK    2  A    between atoms: S_8  and  N_11
REMARK    3  A    between atoms: N_11  and  C_12
REMARK    4  A    between atoms: C_12  and  C_17
REMARK                            x       y       z     vdW  Elec       q    Type
REMARK                         _______ _______ _______ _____ _____    ______ ____
ROOT
ATOM      1  S   UNL     1       3.997  -0.849  -0.018  0.00  0.00    +0.061 S 
ATOM      2  O   UNL     1       3.677  -2.226  -0.166  0.00  0.00    -0.153 OA
ATOM      3  O   UNL     1       3.031   0.121   0.360  0.00  0.00    -0.153 OA
ENDROOT
BRANCH   1   7
ATOM      4  C   UNL     1       7.330  -0.617   3.039  0.00  0.00    +0.016 A 
ATOM      5  C   UNL     1       7.422  -1.503   1.982  0.00  0.00    +0.018 A 
ATOM      6  C   UNL     1       6.404  -1.574   1.048  0.00  0.00    +0.044 A 
ATOM      7  C   UNL     1       5.293  -0.759   1.172  0.00  0.00    +0.120 A 
ATOM      8  C   UNL     1       5.200   0.126   2.229  0.00  0.00    +0.045 A 
ATOM      9  C   UNL     1       6.219   0.198   3.163  0.00  0.00    +0.020 A 
ATOM     10 BR   UNL     1       6.092   1.409   4.610  0.00  0.00    -0.050 Br
ATOM     11 BR   UNL     1       6.532  -2.785  -0.399  0.00  0.00    -0.048 Br
ENDBRANCH   1   7
BRANCH   1  12
ATOM     12  N   UNL     1       4.627  -0.351  -1.466  0.00  0.00    -0.170 NA
ATOM     13  H   UNL     1       4.708  -0.979  -2.201  0.00  0.00    +0.150 HD
BRANCH  12  14
ATOM     14  C   UNL     1       5.061   1.038  -1.637  0.00  0.00    +0.126 C 
ATOM     15  C   UNL     1       3.869   1.994  -1.424  0.00  0.00    +0.039 C 
ATOM     16  C   UNL     1       4.094   3.119  -2.465  0.00  0.00    +0.003 C 
ATOM     17  C   UNL     1       4.642   2.347  -3.690  0.00  0.00    +0.003 C 
ATOM     18  C   UNL     1       5.552   1.262  -3.078  0.00  0.00    +0.039 C 
BRANCH  14  19
ATOM     19  C   UNL     1       6.136   1.351  -0.683  0.00  0.00    +0.086 C 
ATOM     20  N   UNL     1       6.967   1.593   0.054  0.00  0.00    -0.195 NA
ENDBRANCH  14  19
ENDBRANCH  12  14
ENDBRANCH   1  12
TORSDOF 4
