REMARK  Name = ZINC39883827
REMARK  9 active torsions:
REMARK  status: ('A' for Active; 'I' for Inactive)
REMARK    1  A    between atoms: C_1  and  C_2
REMARK    2  A    between atoms: N_8  and  S_9
REMARK    3  A    between atoms: S_9  and  C_12
REMARK    4  A    between atoms: C_15  and  N_18
REMARK    5  A    between atoms: C_19  and  C_21
REMARK    6  A    between atoms: C_21  and  C_22
REMARK    7  A    between atoms: C_28  and  C_31
REMARK    8  A    between atoms: C_31  and  C_32
REMARK    9  A    between atoms: C_31  and  C_33
REMARK                            x       y       z     vdW  Elec       q    Type
REMARK                         _______ _______ _______ _____ _____    ______ ____
ROOT
ATOM      1  N   UNL     1      -2.403   0.608   6.788  0.00  0.00    -0.285 N 
ATOM      2  C   UNL     1      -3.704   0.880   6.570  0.00  0.00    +0.222 C 
ATOM      3  O   UNL     1      -4.080   1.204   5.463  0.00  0.00    -0.275 OA
ATOM      4  H   UNL     1      -2.091   0.413   7.685  0.00  0.00    +0.155 HD
ENDROOT
BRANCH   1   8
ATOM      5  C   UNL     1       0.285   0.601   3.604  0.00  0.00    +0.106 A 
ATOM      6  C   UNL     1      -0.762   1.504   3.621  0.00  0.00    +0.030 A 
ATOM      7  C   UNL     1      -1.655   1.509   4.675  0.00  0.00    +0.025 A 
ATOM      8  C   UNL     1      -1.500   0.605   5.718  0.00  0.00    +0.034 A 
ATOM      9  C   UNL     1      -0.448  -0.301   5.698  0.00  0.00    +0.025 A 
ATOM     10  C   UNL     1       0.439  -0.303   4.639  0.00  0.00    +0.030 A 
BRANCH   5  11
ATOM     11  S   UNL     1       1.422   0.599   2.258  0.00  0.00    +0.061 S 
ATOM     12  O   UNL     1       2.625   0.018   2.743  0.00  0.00    -0.153 OA
ATOM     13  O   UNL     1       1.380   1.900   1.689  0.00  0.00    -0.153 OA
BRANCH  11  20
ATOM     14  C   UNL     1      -0.392   1.525   0.292  0.00  0.00    +0.026 C 
ATOM     15  C   UNL     1      -0.183   0.016   0.145  0.00  0.00    +0.077 C 
ATOM     16  C   UNL     1       0.315  -0.297  -1.270  0.00  0.00    +0.020 C 
ATOM     17  C   UNL     1       0.654  -1.786  -1.369  0.00  0.00    +0.003 C 
ATOM     18  C   UNL     1       1.772  -2.123  -0.379  0.00  0.00    +0.017 C 
ATOM     19  C   UNL     1       1.291  -1.830   1.046  0.00  0.00    +0.110 C 
ATOM     20  N   UNL     1       0.823  -0.439   1.114  0.00  0.00    -0.174 NA
ENDBRANCH  11  20
ENDBRANCH   5  11
ENDBRANCH   1   8
BRANCH   2  21
ATOM     21  C   UNL     1      -4.694   0.782   7.702  0.00  0.00    +0.135 C 
BRANCH  21  22
ATOM     22  C   UNL     1      -6.070   1.134   7.199  0.00  0.00    +0.007 A 
ATOM     23  C   UNL     1      -6.663   2.335   7.251  0.00  0.00    +0.200 A 
ATOM     24  O   UNL     1      -7.890   2.270   6.704  0.00  0.00    -0.463 OA
ATOM     25  C   UNL     1      -8.156   1.022   6.268  0.00  0.00    +0.135 A 
ATOM     26  C   UNL     1      -7.028   0.233   6.546  0.00  0.00    +0.024 A 
ATOM     27  C   UNL     1      -7.014  -1.117   6.198  0.00  0.00    +0.015 A 
ATOM     28  C   UNL     1      -8.111  -1.670   5.577  0.00  0.00    -0.044 A 
ATOM     29  C   UNL     1      -9.225  -0.891   5.298  0.00  0.00    +0.007 A 
ATOM     30  C   UNL     1      -9.254   0.443   5.644  0.00  0.00    +0.047 A 
BRANCH  28  31
ATOM     31  C   UNL     1      -8.102  -3.129   5.197  0.00  0.00    +0.013 C 
ATOM     32  C   UNL     1      -9.248  -3.849   5.912  0.00  0.00    +0.012 C 
ATOM     33  C   UNL     1      -8.281  -3.264   3.684  0.00  0.00    +0.012 C 
ENDBRANCH  28  31
ENDBRANCH  21  22
ENDBRANCH   2  21
TORSDOF 6
