REMARK  Name = ZINC03205606
REMARK  5 active torsions:
REMARK  status: ('A' for Active; 'I' for Inactive)
REMARK    1  A    between atoms: C_1  and  O_2
REMARK    2  A    between atoms: O_2  and  C_3
REMARK    3  A    between atoms: C_6  and  O_18
REMARK    4  A    between atoms: C_7  and  C_9
REMARK    5  A    between atoms: N_10  and  C_11
REMARK                            x       y       z     vdW  Elec       q    Type
REMARK                         _______ _______ _______ _____ _____    ______ ____
ROOT
ATOM      1  C   UNL     1       2.959  -6.218  -1.705  0.00  0.00    +0.121 A 
ATOM      2  C   UNL     1       2.128  -6.930  -0.848  0.00  0.00    +0.049 A 
ATOM      3  C   UNL     1       1.276  -6.264   0.011  0.00  0.00    +0.049 A 
ATOM      4  C   UNL     1       1.247  -4.879   0.029  0.00  0.00    +0.126 A 
ATOM      5  C   UNL     1       2.079  -4.154  -0.838  0.00  0.00    +0.038 A 
ATOM      6  C   UNL     1       2.938  -4.836  -1.704  0.00  0.00    +0.058 A 
ENDROOT
BRANCH   1   8
ATOM      7  C   UNL     1       3.764  -8.312  -2.497  0.00  0.00    +0.277 C 
ATOM      8  O   UNL     1       3.794  -6.884  -2.547  0.00  0.00    -0.495 OA
ENDBRANCH   1   8
BRANCH   5   9
ATOM      9  C   UNL     1       2.051  -2.684  -0.830  0.00  0.00    +0.123 C 
ATOM     10  N   UNL     1       1.248  -2.051  -0.021  0.00  0.00    -0.255 NA
BRANCH  10  11
ATOM     11  C   UNL     1       1.223  -0.683  -0.013  0.00  0.00    +0.064 A 
ATOM     12  C   UNL     1       0.002  -0.004   0.002  0.00  0.00    +0.029 A 
ATOM     13  C   UNL     1      -0.017   1.375   0.010  0.00  0.00    +0.016 A 
ATOM     14  C   UNL     1       1.171   2.087   0.002  0.00  0.00    +0.014 A 
ATOM     15  C   UNL     1       2.384   1.420  -0.013  0.00  0.00    +0.016 A 
ATOM     16  C   UNL     1       2.417   0.041  -0.021  0.00  0.00    +0.029 A 
ATOM     17  I   UNL     1       1.131   4.181   0.013  0.00  0.00    -0.044 I 
ENDBRANCH  10  11
ENDBRANCH   5   9
BRANCH   4  18
ATOM     18  O   UNL     1       0.413  -4.226   0.878  0.00  0.00    -0.506 OA
ATOM     19  H   UNL     1      -0.462  -4.045   0.508  0.00  0.00    +0.292 HD
ENDBRANCH   4  18
TORSDOF 4
