REMARK  Name = ZINC17851561
REMARK  9 active torsions:
REMARK  status: ('A' for Active; 'I' for Inactive)
REMARK    1  A    between atoms: C_1  and  C_2
REMARK    2  A    between atoms: C_2  and  C_4
REMARK    3  A    between atoms: C_2  and  N_14
REMARK    4  A    between atoms: C_7  and  S_10
REMARK    5  A    between atoms: S_10  and  N_13
REMARK    6  A    between atoms: C_15  and  C_17
REMARK    7  A    between atoms: C_17  and  C_19
REMARK    8  A    between atoms: C_17  and  S_20
REMARK    9  A    between atoms: S_20  and  C_21
REMARK                            x       y       z     vdW  Elec       q    Type
REMARK                         _______ _______ _______ _____ _____    ______ ____
ROOT
ATOM      1  C   UNL     1       1.011   1.036   1.457  0.00  0.00    +0.033 C 
ATOM      2  C   UNL     1       1.009  -0.476   1.220  0.00  0.00    +0.100 C 
ENDROOT
BRANCH   2   3
ATOM      3  C   UNL     1      -0.329  -1.044   1.616  0.00  0.00    -0.027 A 
ATOM      4  C   UNL     1      -1.404  -0.948   0.752  0.00  0.00    +0.007 A 
ATOM      5  C   UNL     1      -2.631  -1.470   1.115  0.00  0.00    +0.029 A 
ATOM      6  C   UNL     1      -2.784  -2.088   2.341  0.00  0.00    +0.105 A 
ATOM      7  C   UNL     1      -1.709  -2.186   3.205  0.00  0.00    +0.029 A 
ATOM      8  C   UNL     1      -0.480  -1.668   2.840  0.00  0.00    +0.007 A 
BRANCH   6   9
ATOM      9  S   UNL     1      -4.349  -2.753   2.804  0.00  0.00    +0.056 S 
ATOM     10  O   UNL     1      -4.368  -2.795   4.225  0.00  0.00    -0.153 OA
ATOM     11  O   UNL     1      -5.327  -2.050   2.050  0.00  0.00    -0.153 OA
BRANCH   9  12
ATOM     12  N   UNL     1      -4.388  -4.324   2.283  0.00  0.00    -0.204 NA
ATOM     13  H   UNL     1      -3.624  -4.699   1.818  0.00  0.00    +0.144 HD
ATOM     14  H   UNL     1      -5.174  -4.869   2.444  0.00  0.00    +0.144 HD
ENDBRANCH   9  12
ENDBRANCH   6   9
ENDBRANCH   2   3
BRANCH   2  15
ATOM     15  N   UNL     1       1.256  -0.748  -0.198  0.00  0.00    -0.308 N 
ATOM     16  C   UNL     1       2.519  -0.807  -0.663  0.00  0.00    +0.227 C 
ATOM     17  O   UNL     1       3.452  -0.635   0.092  0.00  0.00    -0.275 OA
ATOM     18  H   UNL     1       0.510  -0.886  -0.802  0.00  0.00    +0.149 HD
BRANCH  16  19
ATOM     19  C   UNL     1       2.773  -1.088  -2.122  0.00  0.00    +0.134 C 
ATOM     20  C   UNL     1       2.648  -2.590  -2.382  0.00  0.00    +0.029 C 
BRANCH  19  21
ATOM     21  S   UNL     1       4.444  -0.535  -2.562  0.00  0.00    -0.113 S 
BRANCH  21  22
ATOM     22  C   UNL     1       4.352   1.222  -2.461  0.00  0.00    +0.009 A 
ATOM     23  C   UNL     1       3.133   1.843  -2.220  0.00  0.00    +0.015 A 
ATOM     24  C   UNL     1       3.065   3.220  -2.141  0.00  0.00    +0.001 A 
ATOM     25  C   UNL     1       4.208   3.981  -2.301  0.00  0.00    +0.000 A 
ATOM     26  C   UNL     1       5.424   3.366  -2.542  0.00  0.00    +0.001 A 
ATOM     27  C   UNL     1       5.500   1.989  -2.616  0.00  0.00    +0.015 A 
ENDBRANCH  21  22
ENDBRANCH  19  21
ENDBRANCH  16  19
ENDBRANCH   2  15
TORSDOF 7
