REMARK  Name = ZINC39638662
REMARK  10 active torsions:
REMARK  status: ('A' for Active; 'I' for Inactive)
REMARK    1  A    between atoms: C_1  and  C_2
REMARK    2  A    between atoms: C_2  and  C_3
REMARK    3  A    between atoms: C_3  and  C_5
REMARK    4  A    between atoms: C_3  and  C_11
REMARK    5  A    between atoms: C_15  and  C_24
REMARK    6  A    between atoms: N_26  and  C_27
REMARK    7  A    between atoms: C_27  and  C_28
REMARK    8  A    between atoms: C_33  and  O_34
REMARK    9  A    between atoms: O_34  and  C_35
REMARK   10  A    between atoms: C_35  and  C_36
REMARK                            x       y       z     vdW  Elec       q    Type
REMARK                         _______ _______ _______ _____ _____    ______ ____
ROOT
ATOM      1  C   UNL     1       0.144  -0.046   2.277  0.00  0.00    +0.223 C 
ATOM      2  O   UNL     1      -0.073  -0.867   3.144  0.00  0.00    -0.275 OA
ATOM      3  N   UNL     1      -0.152   1.251   2.489  0.00  0.00    -0.300 N 
ATOM      4  C   UNL     1       0.118   2.402   1.594  0.00  0.00    +0.121 C 
ATOM      5  C   UNL     1      -1.138   3.293   1.714  0.00  0.00    +0.100 C 
ATOM      6  C   UNL     1      -1.749   2.928   3.077  0.00  0.00    -0.004 C 
ATOM      7  C   UNL     1      -0.827   1.850   3.665  0.00  0.00    +0.115 C 
ATOM      8  C   UNL     1      -1.779   4.152   3.987  0.00  0.00    -0.010 C 
ATOM      9  C   UNL     1      -2.444   3.779   5.316  0.00  0.00    -0.082 C 
ATOM     10  N   UNL     1      -3.808   3.297   5.064  0.00  0.00    +0.379 N 
ATOM     11  C   UNL     1      -3.765   2.067   4.265  0.00  0.00    -0.082 C 
ATOM     12  C   UNL     1      -3.156   2.368   2.893  0.00  0.00    -0.010 C 
ATOM     13  H   UNL     1      -4.264   3.110   5.944  0.00  0.00    -0.086 HD
ATOM     14  H   UNL     1      -4.325   4.004   4.564  0.00  0.00    -0.086 HD
ENDROOT
BRANCH   5  15
ATOM     15  C   UNL     1      -0.753   4.750   1.682  0.00  0.00    +0.218 C 
ATOM     16  O   UNL     1       0.338   5.097   2.081  0.00  0.00    -0.275 OA
ATOM     17  N   UNL     1      -1.621   5.666   1.209  0.00  0.00    -0.311 N 
ATOM     18  H   UNL     1      -2.494   5.388   0.890  0.00  0.00    +0.149 HD
BRANCH  17  19
ATOM     19  C   UNL     1      -1.247   7.082   1.178  0.00  0.00    +0.143 C 
BRANCH  19  20
ATOM     20  C   UNL     1      -2.385   7.890   0.610  0.00  0.00    +0.011 A 
ATOM     21  C   UNL     1      -2.357   8.289  -0.713  0.00  0.00    +0.009 A 
ATOM     22  C   UNL     1      -3.400   9.030  -1.235  0.00  0.00    +0.001 A 
ATOM     23  C   UNL     1      -4.475   9.374  -0.435  0.00  0.00    +0.004 A 
ATOM     24  C   UNL     1      -4.508   8.978   0.887  0.00  0.00    +0.046 A 
ATOM     25  C   UNL     1      -3.464   8.229   1.412  0.00  0.00    +0.125 A 
BRANCH  25  26
ATOM     26  O   UNL     1      -3.497   7.832   2.712  0.00  0.00    -0.492 OA
BRANCH  26  27
ATOM     27  C   UNL     1      -4.640   8.218   3.479  0.00  0.00    +0.225 C 
ATOM     28  C   UNL     1      -4.499   7.685   4.906  0.00  0.00    +0.048 C 
ENDBRANCH  26  27
ENDBRANCH  25  26
ENDBRANCH  19  20
ENDBRANCH  17  19
ENDBRANCH   5  15
BRANCH   1  29
ATOM     29  C   UNL     1       0.746  -0.478   0.965  0.00  0.00    +0.105 C 
BRANCH  29  30
ATOM     30  C   UNL     1       2.248  -0.478   1.076  0.00  0.00    -0.036 A 
ATOM     31  C   UNL     1       2.872  -1.288   2.006  0.00  0.00    +0.004 A 
ATOM     32  C   UNL     1       4.251  -1.288   2.109  0.00  0.00    +0.000 A 
ATOM     33  C   UNL     1       5.005  -0.479   1.280  0.00  0.00    +0.000 A 
ATOM     34  C   UNL     1       4.381   0.330   0.349  0.00  0.00    +0.000 A 
ATOM     35  C   UNL     1       3.003   0.327   0.244  0.00  0.00    +0.004 A 
ENDBRANCH  29  30
BRANCH  29  37
ATOM     36  C   UNL     1      -1.249  -1.859   0.368  0.00  0.00    +0.005 C 
ATOM     37  C   UNL     1       0.260  -1.888   0.621  0.00  0.00    +0.014 C 
ENDBRANCH  29  37
ENDBRANCH   1  29
TORSDOF 8
