REMARK  Name = ZINC50328881
REMARK  3 active torsions:
REMARK  status: ('A' for Active; 'I' for Inactive)
REMARK    1  A    between atoms: C_5  and  C_6
REMARK    2  A    between atoms: C_6  and  C_8
REMARK    3  A    between atoms: C_6  and  O_14
REMARK                            x       y       z     vdW  Elec       q    Type
REMARK                         _______ _______ _______ _____ _____    ______ ____
ROOT
ATOM      1  C   UNL     1      -1.196  -0.918   0.009  0.00  0.00    +0.173 C 
ENDROOT
BRANCH   1   2
ATOM      2  C   UNL     1      -1.459  -1.412  -1.391  0.00  0.00    -0.041 C 
ATOM      3  C   UNL     1      -2.561  -1.049  -1.965  0.00  0.00    -0.025 C 
ATOM      4  C   UNL     1      -2.965  -1.468  -3.348  0.00  0.00    +0.027 C 
ATOM      5  C   UNL     1      -1.751  -1.998  -4.115  0.00  0.00    +0.004 C 
ATOM      6  C   UNL     1      -1.031  -3.025  -3.232  0.00  0.00    +0.005 C 
ATOM      7  C   UNL     1      -0.424  -2.288  -2.034  0.00  0.00    +0.033 C 
ENDBRANCH   1   2
BRANCH   1  12
ATOM      8  C   UNL     1      -0.017   1.410   0.010  0.00  0.00    +0.047 A 
ATOM      9  C   UNL     1       1.265   1.817  -0.000  0.00  0.00    +0.195 A 
ATOM     10  O   UNL     1       2.055   0.731  -0.014  0.00  0.00    -0.471 OA
ATOM     11  C   UNL     1       1.295  -0.376  -0.012  0.00  0.00    +0.201 A 
ATOM     12  C   UNL     1       0.002  -0.004   0.002  0.00  0.00    +0.023 A 
ENDBRANCH   1  12
BRANCH   1  13
ATOM     13  O   UNL     1      -0.940  -2.033   0.866  0.00  0.00    -0.383 OA
ATOM     14  H   UNL     1      -0.176  -2.564   0.603  0.00  0.00    +0.211 HD
ENDBRANCH   1  13
TORSDOF 3
