REMARK  Name = ZINC37299814
REMARK  6 active torsions:
REMARK  status: ('A' for Active; 'I' for Inactive)
REMARK    1  A    between atoms: C_1  and  C_2
REMARK    2  A    between atoms: C_4  and  N_20
REMARK    3  A    between atoms: C_7  and  N_8
REMARK    4  A    between atoms: N_8  and  C_9
REMARK    5  A    between atoms: C_9  and  C_11
REMARK    6  A    between atoms: C_9  and  C_12
REMARK                            x       y       z     vdW  Elec       q    Type
REMARK                         _______ _______ _______ _____ _____    ______ ____
ROOT
ATOM      1  N   UNL     1       0.025  -0.016   2.415  0.00  0.00    -0.337 N 
ATOM      2  H   UNL     1       0.012   0.954   2.422  0.00  0.00    +0.147 HD
ENDROOT
BRANCH   1   9
ATOM      3  C   UNL     1      -0.018   1.503   0.010  0.00  0.00    +0.046 C 
ATOM      4  C   UNL     1       0.002  -0.004   0.002  0.00  0.00    -0.027 A 
ATOM      5  C   UNL     1       0.006  -0.689  -1.198  0.00  0.00    +0.038 A 
ATOM      6  C   UNL     1       0.025  -2.071  -1.206  0.00  0.00    +0.127 A 
ATOM      7  C   UNL     1       0.040  -2.773  -0.014  0.00  0.00    +0.034 A 
ATOM      8  C   UNL     1       0.036  -2.095   1.188  0.00  0.00    +0.025 A 
ATOM      9  C   UNL     1       0.023  -0.706   1.200  0.00  0.00    +0.031 A 
BRANCH   6  10
ATOM     10  N   UNL     1       0.028  -2.802  -2.493  0.00  0.00    +0.056 N 
ATOM     11  O   UNL     1       0.014  -2.190  -3.536  0.00  0.00    -0.126 OA
ATOM     12  O   UNL     1       0.044  -4.011  -2.502  0.00  0.00    -0.126 OA
ENDBRANCH   6  10
ENDBRANCH   1   9
BRANCH   1  13
ATOM     13  C   UNL     1       0.047  -0.758   3.678  0.00  0.00    +0.098 C 
ATOM     14  C   UNL     1       1.492  -1.105   4.041  0.00  0.00    +0.033 C 
BRANCH  13  15
ATOM     15  C   UNL     1      -0.555   0.090   4.769  0.00  0.00    -0.026 A 
ATOM     16  C   UNL     1      -0.284   1.445   4.820  0.00  0.00    +0.008 A 
ATOM     17  C   UNL     1      -0.835   2.224   5.819  0.00  0.00    +0.040 A 
ATOM     18  C   UNL     1      -1.659   1.647   6.771  0.00  0.00    +0.137 A 
ATOM     19  C   UNL     1      -1.930   0.290   6.720  0.00  0.00    +0.053 A 
ATOM     20  C   UNL     1      -1.381  -0.487   5.715  0.00  0.00    +0.023 A 
ATOM     21 BR   UNL     1      -3.056  -0.500   8.018  0.00  0.00    -0.047 Br
ATOM     22  F   UNL     1      -2.199   2.408   7.748  0.00  0.00    -0.204 F 
ENDBRANCH  13  15
ENDBRANCH   1  13
TORSDOF 4
