REMARK  Name = ZINC13549005
REMARK  5 active torsions:
REMARK  status: ('A' for Active; 'I' for Inactive)
REMARK    1  A    between atoms: C_1  and  C_2
REMARK    2  A    between atoms: C_3  and  C_9
REMARK    3  A    between atoms: C_4  and  O_8
REMARK    4  A    between atoms: C_11  and  C_23
REMARK    5  A    between atoms: N_13  and  C_16
REMARK                            x       y       z     vdW  Elec       q    Type
REMARK                         _______ _______ _______ _____ _____    ______ ____
ROOT
ATOM      1  C   UNL     1       0.003  -0.413  -2.481  0.00  0.00    +0.030 C 
ATOM      2  C   UNL     1       0.991  -0.855  -3.347  0.00  0.00    +0.062 C 
ATOM      3  C   UNL     1       1.204  -0.452  -4.744  0.00  0.00    +0.069 C 
ATOM      4  N   UNL     1       2.236  -1.102  -5.187  0.00  0.00    -0.177 NA
ATOM      5  N   UNL     1       2.771  -1.936  -4.206  0.00  0.00    -0.156 N 
ATOM      6  C   UNL     1       2.060  -1.825  -3.065  0.00  0.00    +0.272 C 
ATOM      7  O   UNL     1       2.261  -2.411  -2.015  0.00  0.00    -0.268 OA
ATOM      8  C   UNL     1       0.374   0.537  -5.522  0.00  0.00    +0.068 C 
ENDROOT
BRANCH   1  11
ATOM      9  C   UNL     1      -2.304  -1.930  -1.004  0.00  0.00    +0.066 C 
ATOM     10  C   UNL     1      -0.982  -1.484  -0.435  0.00  0.00    +0.044 A 
ATOM     11  C   UNL     1       0.021  -0.811  -1.122  0.00  0.00    +0.059 A 
ATOM     12  C   UNL     1       1.104  -0.595  -0.157  0.00  0.00    +0.239 A 
ATOM     13  N   UNL     1       0.714  -1.117   0.978  0.00  0.00    -0.135 NA
ATOM     14  H   UNL     1      -1.070  -2.102   1.524  0.00  0.00    +0.189 HD
ATOM     15  N   UNL     1      -0.564  -1.661   0.824  0.00  0.00    -0.278 N 
BRANCH  12  16
ATOM     16  O   UNL     1       2.287   0.027  -0.395  0.00  0.00    -0.491 OA
ATOM     17  H   UNL     1       2.293   0.964  -0.156  0.00  0.00    +0.294 HD
ENDBRANCH  12  16
ENDBRANCH   1  11
BRANCH   5  18
ATOM     18  C   UNL     1       3.887  -2.765  -4.378  0.00  0.00    +0.060 A 
ATOM     19  C   UNL     1       4.330  -3.562  -3.331  0.00  0.00    +0.026 A 
ATOM     20  C   UNL     1       5.430  -4.379  -3.503  0.00  0.00    +0.017 A 
ATOM     21  C   UNL     1       6.090  -4.404  -4.719  0.00  0.00    +0.018 A 
ATOM     22  C   UNL     1       5.651  -3.611  -5.764  0.00  0.00    +0.017 A 
ATOM     23  C   UNL     1       4.548  -2.797  -5.599  0.00  0.00    +0.026 A 
ATOM     24 BR   UNL     1       7.597  -5.523  -4.952  0.00  0.00    -0.050 Br
ENDBRANCH   5  18
TORSDOF 3
