REMARK  Name = ZINC61146737
REMARK  4 active torsions:
REMARK  status: ('A' for Active; 'I' for Inactive)
REMARK    1  A    between atoms: C_8  and  N_13
REMARK    2  A    between atoms: C_9  and  N_12
REMARK    3  A    between atoms: N_13  and  C_14
REMARK    4  A    between atoms: C_14  and  C_15
REMARK                            x       y       z     vdW  Elec       q    Type
REMARK                         _______ _______ _______ _____ _____    ______ ____
ROOT
ATOM      1  C   UNL     1      -0.629  -2.207  -2.458  0.00  0.00    +0.017 A 
ATOM      2  C   UNL     1      -0.231  -0.907  -2.381  0.00  0.00    +0.027 A 
ATOM      3  C   UNL     1       1.011  -0.590  -1.805  0.00  0.00    +0.048 A 
ATOM      4  C   UNL     1       1.829  -1.637  -1.313  0.00  0.00    +0.022 A 
ATOM      5  C   UNL     1       1.389  -2.965  -1.408  0.00  0.00    +0.027 A 
ATOM      6  C   UNL     1       0.178  -3.235  -1.973  0.00  0.00    +0.019 A 
ATOM      7 BR   UNL     1      -0.415  -5.026  -2.102  0.00  0.00    -0.050 Br
ATOM      8  C   UNL     1       3.077  -1.317  -0.734  0.00  0.00    +0.059 A 
ATOM      9  C   UNL     1       3.443   0.023  -0.676  0.00  0.00    +0.062 A 
ATOM     10  C   UNL     1       2.581   0.994  -1.182  0.00  0.00    +0.107 A 
ATOM     11  N   UNL     1       1.424   0.679  -1.717  0.00  0.00    -0.359 N 
ATOM     12  H   UNL     1       0.854   1.386  -2.058  0.00  0.00    +0.165 HD
ENDROOT
BRANCH   9  13
ATOM     13  N   UNL     1       4.671   0.395  -0.111  0.00  0.00    -0.355 N 
ATOM     14  H   UNL     1       5.225  -0.269   0.328  0.00  0.00    +0.142 HD
ATOM     15  H   UNL     1       4.968   1.318  -0.159  0.00  0.00    +0.142 HD
ENDBRANCH   9  13
BRANCH   8  16
ATOM     16  N   UNL     1       3.914  -2.312  -0.237  0.00  0.00    -0.342 N 
ATOM     17  H   UNL     1       3.683  -2.776   0.583  0.00  0.00    +0.146 HD
BRANCH  16  18
ATOM     18  C   UNL     1       5.145  -2.659  -0.953  0.00  0.00    +0.107 C 
BRANCH  18  19
ATOM     19  C   UNL     1       5.131  -4.149  -1.298  0.00  0.00    +0.034 C 
ATOM     20  C   UNL     1       6.457  -4.559  -1.985  0.00  0.00    +0.035 C 
ATOM     21  C   UNL     1       5.963  -5.523  -3.094  0.00  0.00    +0.160 C 
ATOM     22  O   UNL     1       4.723  -4.928  -3.531  0.00  0.00    -0.379 OA
ATOM     23  C   UNL     1       4.047  -4.449  -2.352  0.00  0.00    +0.165 C 
ENDBRANCH  18  19
ENDBRANCH  16  18
ENDBRANCH   8  16
TORSDOF 4
