REMARK  Name = ZINC06856713
REMARK  7 active torsions:
REMARK  status: ('A' for Active; 'I' for Inactive)
REMARK    1  A    between atoms: C_1  and  C_2
REMARK    2  A    between atoms: C_2  and  C_3
REMARK    3  A    between atoms: C_3  and  C_4
REMARK    4  A    between atoms: C_4  and  S_5
REMARK    5  A    between atoms: S_5  and  C_6
REMARK    6  A    between atoms: C_17  and  C_19
REMARK    7  A    between atoms: C_22  and  O_25
REMARK                            x       y       z     vdW  Elec       q    Type
REMARK                         _______ _______ _______ _____ _____    ______ ____
ROOT
ATOM      1  C   UNL     1      -2.923  -4.443   0.006  0.00  0.00    +0.171 A 
ATOM      2  N   UNL     1      -4.031  -5.235   0.007  0.00  0.00    -0.302 N 
ATOM      3  H   UNL     1      -4.913  -4.833   0.016  0.00  0.00    +0.171 HD
ATOM      4  C   UNL     1      -3.903  -6.579  -0.006  0.00  0.00    +0.258 A 
ATOM      5  O   UNL     1      -4.890  -7.298  -0.010  0.00  0.00    -0.267 OA
ATOM      6  C   UNL     1      -2.617  -7.133  -0.016  0.00  0.00    +0.069 A 
ATOM      7  C   UNL     1      -1.525  -6.284  -0.011  0.00  0.00    +0.135 A 
ATOM      8  N   UNL     1      -1.710  -4.959  -0.008  0.00  0.00    -0.208 NA
ATOM      9  N   UNL     1      -0.248  -6.812  -0.010  0.00  0.00    -0.302 N 
ATOM     10  C   UNL     1      -0.030  -8.107   0.372  0.00  0.00    +0.017 C 
ATOM     11  C   UNL     1      -1.036  -9.007   0.379  0.00  0.00    +0.024 C 
ATOM     12  C   UNL     1      -2.434  -8.621  -0.035  0.00  0.00    +0.092 C 
ATOM     13  C   UNL     1      -0.811 -10.340   0.766  0.00  0.00    +0.162 C 
ATOM     14  O   UNL     1      -1.742 -11.121   0.780  0.00  0.00    -0.292 OA
ATOM     15  C   UNL     1       0.558 -10.819   1.165  0.00  0.00    +0.080 C 
ATOM     16  C   UNL     1       1.611  -9.970   0.445  0.00  0.00    +0.014 C 
ATOM     17  C   UNL     1       1.366  -8.500   0.791  0.00  0.00    +0.051 C 
ATOM     18  H   UNL     1       0.500  -6.259  -0.284  0.00  0.00    +0.153 HD
ENDROOT
BRANCH  12  19
ATOM     19  C   UNL     1      -2.695  -9.132  -1.429  0.00  0.00    -0.035 A 
ATOM     20  C   UNL     1      -1.922  -8.685  -2.484  0.00  0.00    +0.008 A 
ATOM     21  C   UNL     1      -2.160  -9.151  -3.762  0.00  0.00    +0.046 A 
ATOM     22  C   UNL     1      -3.175 -10.070  -3.986  0.00  0.00    +0.117 A 
ATOM     23  C   UNL     1      -3.949 -10.518  -2.926  0.00  0.00    +0.046 A 
ATOM     24  C   UNL     1      -3.704 -10.052  -1.648  0.00  0.00    +0.008 A 
BRANCH  22  25
ATOM     25  O   UNL     1      -3.411 -10.530  -5.243  0.00  0.00    -0.507 OA
ATOM     26  H   UNL     1      -2.910 -11.325  -5.471  0.00  0.00    +0.292 HD
ENDBRANCH  22  25
ENDBRANCH  12  19
BRANCH   1  27
ATOM     27  S   UNL     1      -3.114  -2.691   0.017  0.00  0.00    -0.088 S 
BRANCH  27  28
ATOM     28  C   UNL     1      -1.413  -2.063   0.004  0.00  0.00    +0.077 C 
BRANCH  28  29
ATOM     29  C   UNL     1      -1.433  -0.534   0.013  0.00  0.00    +0.011 C 
BRANCH  29  31
ATOM     30  C   UNL     1      -0.019   1.526   0.010  0.00  0.00    +0.004 C 
ATOM     31  C   UNL     1       0.002  -0.004   0.002  0.00  0.00    -0.003 C 
ENDBRANCH  29  31
ENDBRANCH  28  29
ENDBRANCH  27  28
ENDBRANCH   1  27
TORSDOF 6
