REMARK  Name = ZINC39694248
REMARK  9 active torsions:
REMARK  status: ('A' for Active; 'I' for Inactive)
REMARK    1  A    between atoms: C_1  and  C_2
REMARK    2  A    between atoms: C_2  and  C_3
REMARK    3  A    between atoms: C_3  and  C_4
REMARK    4  A    between atoms: C_4  and  C_6
REMARK    5  A    between atoms: C_4  and  C_7
REMARK    6  A    between atoms: C_11  and  C_20
REMARK    7  A    between atoms: N_22  and  C_23
REMARK    8  A    between atoms: C_23  and  C_24
REMARK    9  A    between atoms: C_29  and  N_30
REMARK                            x       y       z     vdW  Elec       q    Type
REMARK                         _______ _______ _______ _____ _____    ______ ____
ROOT
ATOM      1  C   UNL     1       2.127  -2.689  -3.042  0.00  0.00    +0.218 C 
ATOM      2  O   UNL     1       2.512  -1.996  -3.959  0.00  0.00    -0.275 OA
ATOM      3  N   UNL     1       1.923  -4.007  -3.233  0.00  0.00    -0.300 N 
ATOM      4  C   UNL     1       1.356  -4.987  -2.276  0.00  0.00    +0.121 C 
ATOM      5  C   UNL     1       0.460  -5.902  -3.140  0.00  0.00    +0.100 C 
ATOM      6  C   UNL     1       1.031  -5.780  -4.563  0.00  0.00    -0.004 C 
ATOM      7  C   UNL     1       2.211  -4.804  -4.450  0.00  0.00    +0.115 C 
ATOM      8  C   UNL     1      -0.025  -5.215  -5.509  0.00  0.00    -0.010 C 
ATOM      9  C   UNL     1       0.548  -5.157  -6.928  0.00  0.00    -0.082 C 
ATOM     10  N   UNL     1       0.944  -6.505  -7.354  0.00  0.00    +0.379 N 
ATOM     11  C   UNL     1       2.024  -7.004  -6.495  0.00  0.00    -0.082 C 
ATOM     12  C   UNL     1       1.514  -7.140  -5.057  0.00  0.00    -0.010 C 
ATOM     13  H   UNL     1       0.150  -7.123  -7.287  0.00  0.00    -0.086 HD
ATOM     14  H   UNL     1       1.263  -6.473  -8.310  0.00  0.00    -0.086 HD
ENDROOT
BRANCH   5  15
ATOM     15  C   UNL     1       0.546  -7.327  -2.658  0.00  0.00    +0.218 C 
ATOM     16  O   UNL     1       1.619  -7.797  -2.344  0.00  0.00    -0.275 OA
ATOM     17  N   UNL     1      -0.569  -8.079  -2.576  0.00  0.00    -0.311 N 
ATOM     18  H   UNL     1      -1.427  -7.704  -2.828  0.00  0.00    +0.149 HD
BRANCH  17  19
ATOM     19  C   UNL     1      -0.486  -9.465  -2.108  0.00  0.00    +0.141 C 
BRANCH  19  20
ATOM     20  C   UNL     1      -1.862 -10.080  -2.110  0.00  0.00    -0.009 A 
ATOM     21  C   UNL     1      -2.580 -10.171  -0.934  0.00  0.00    +0.007 A 
ATOM     22  C   UNL     1      -3.842 -10.735  -0.935  0.00  0.00    +0.000 A 
ATOM     23  C   UNL     1      -4.390 -11.210  -2.112  0.00  0.00    +0.002 A 
ATOM     24  C   UNL     1      -3.677 -11.122  -3.292  0.00  0.00    +0.023 A 
ATOM     25  C   UNL     1      -2.411 -10.551  -3.295  0.00  0.00    +0.035 A 
BRANCH  25  26
ATOM     26  N   UNL     1      -1.689 -10.456  -4.487  0.00  0.00    -0.325 N 
ATOM     27  C   UNL     1      -0.796 -11.542  -4.921  0.00  0.00    +0.133 C 
ATOM     28  C   UNL     1      -1.134 -11.895  -6.374  0.00  0.00    +0.178 C 
ATOM     29  O   UNL     1      -1.115 -10.704  -7.165  0.00  0.00    -0.377 OA
ATOM     30  C   UNL     1      -2.090  -9.731  -6.779  0.00  0.00    +0.178 C 
ATOM     31  C   UNL     1      -1.805  -9.269  -5.350  0.00  0.00    +0.133 C 
ENDBRANCH  25  26
ENDBRANCH  19  20
ENDBRANCH  17  19
ENDBRANCH   5  15
BRANCH   1  32
ATOM     32  C   UNL     1       1.876  -2.076  -1.688  0.00  0.00    +0.072 C 
ATOM     33  C   UNL     1       0.406  -1.667  -1.578  0.00  0.00    +0.017 C 
BRANCH  32  34
ATOM     34  C   UNL     1       2.763  -0.841  -1.515  0.00  0.00    +0.012 C 
BRANCH  34  36
ATOM     35  C   UNL     1       3.488   0.943   0.077  0.00  0.00    +0.004 C 
ATOM     36  C   UNL     1       2.601  -0.292  -0.096  0.00  0.00    -0.003 C 
ENDBRANCH  34  36
ENDBRANCH  32  34
ENDBRANCH   1  32
TORSDOF 7
