REMARK  Name = ZINC23944675
REMARK  7 active torsions:
REMARK  status: ('A' for Active; 'I' for Inactive)
REMARK    1  A    between atoms: C_3  and  N_16
REMARK    2  A    between atoms: C_5  and  S_7
REMARK    3  A    between atoms: S_7  and  N_10
REMARK    4  A    between atoms: C_17  and  C_19
REMARK    5  A    between atoms: C_19  and  S_20
REMARK    6  A    between atoms: S_20  and  C_21
REMARK    7  A    between atoms: C_24  and  C_27
REMARK                            x       y       z     vdW  Elec       q    Type
REMARK                         _______ _______ _______ _____ _____    ______ ____
ROOT
ATOM      1  N   UNL     1       2.403   1.107  -0.015  0.00  0.00    -0.285 N 
ATOM      2  C   UNL     1       3.450   1.617  -0.692  0.00  0.00    +0.227 C 
ATOM      3  O   UNL     1       3.362   2.710  -1.211  0.00  0.00    -0.275 OA
ATOM      4  H   UNL     1       2.507   0.151   0.520  0.00  0.00    +0.155 HD
ENDROOT
BRANCH   1   7
ATOM      5  C   UNL     1      -0.042   3.853   0.044  0.00  0.00    +0.004 A 
ATOM      6  C   UNL     1       1.164   3.180   0.023  0.00  0.00    +0.023 A 
ATOM      7  C   UNL     1       1.183   1.791   0.007  0.00  0.00    +0.035 A 
ATOM      8  C   UNL     1      -0.013   1.084   0.012  0.00  0.00    +0.052 A 
ATOM      9  C   UNL     1      -1.215   1.762   0.028  0.00  0.00    +0.114 A 
ATOM     10  C   UNL     1      -1.230   3.145   0.049  0.00  0.00    +0.029 A 
BRANCH   9  11
ATOM     11  S   UNL     1      -2.732   0.866   0.027  0.00  0.00    +0.100 S 
ATOM     12  O   UNL     1      -3.719   1.738  -0.507  0.00  0.00    -0.146 OA
ATOM     13  O   UNL     1      -2.451  -0.406  -0.541  0.00  0.00    -0.146 OA
BRANCH  11  14
ATOM     14  N   UNL     1      -3.143   0.598   1.609  0.00  0.00    -0.118 NA
ATOM     15  C   UNL     1      -4.227  -0.047   1.894  0.00  0.00    +0.117 C 
ATOM     16  C   UNL     1      -5.203  -0.601   0.880  0.00  0.00    +0.074 C 
ATOM     17  C   UNL     1      -6.052  -1.615   1.684  0.00  0.00    +0.026 C 
ATOM     18  C   UNL     1      -5.934  -1.064   3.122  0.00  0.00    +0.103 C 
ATOM     19  N   UNL     1      -4.666  -0.326   3.159  0.00  0.00    -0.331 N 
ATOM     20  H   UNL     1      -4.204  -0.075   4.125  0.00  0.00    +0.147 HD
ENDBRANCH  11  14
ENDBRANCH   9  11
ENDBRANCH   1   7
BRANCH   2  21
ATOM     21  C   UNL     1       4.731   0.832  -0.803  0.00  0.00    +0.173 C 
BRANCH  21  22
ATOM     22  S   UNL     1       5.938   1.778  -1.764  0.00  0.00    -0.077 S 
BRANCH  22  23
ATOM     23  C   UNL     1       7.298   0.657  -1.736  0.00  0.00    +0.185 A 
ATOM     24  N   UNL     1       8.516   0.847  -2.324  0.00  0.00    -0.201 NA
ATOM     25  H   UNL     1       6.550  -1.037  -0.570  0.00  0.00    +0.191 HD
ATOM     26  C   UNL     1       9.247  -0.282  -2.035  0.00  0.00    +0.182 A 
ATOM     27  N   UNL     1       8.476  -1.067  -1.319  0.00  0.00    -0.152 NA
ATOM     28  N   UNL     1       7.329  -0.516  -1.146  0.00  0.00    -0.253 N 
BRANCH  26  29
ATOM     29  C   UNL     1      10.638  -0.559  -2.452  0.00  0.00    +0.021 A 
ATOM     30  C   UNL     1      11.341   0.378  -3.213  0.00  0.00    +0.013 A 
ATOM     31  C   UNL     1      12.640   0.116  -3.595  0.00  0.00    +0.021 A 
ATOM     32  C   UNL     1      13.244  -1.077  -3.234  0.00  0.00    +0.041 A 
ATOM     33  C   UNL     1      12.550  -2.012  -2.484  0.00  0.00    +0.021 A 
ATOM     34  C   UNL     1      11.252  -1.759  -2.092  0.00  0.00    +0.013 A 
ATOM     35 CL   UNL     1      14.877  -1.402  -3.724  0.00  0.00    -0.084 Cl
ENDBRANCH  26  29
ENDBRANCH  22  23
ENDBRANCH  21  22
ENDBRANCH   2  21
TORSDOF 7
