REMARK  Name = ZINC21660338
REMARK  4 active torsions:
REMARK  status: ('A' for Active; 'I' for Inactive)
REMARK    1  A    between atoms: C_1  and  C_2
REMARK    2  A    between atoms: C_7  and  C_8
REMARK    3  A    between atoms: C_11  and  C_30
REMARK    4  A    between atoms: C_21  and  C_24
REMARK                            x       y       z     vdW  Elec       q    Type
REMARK                         _______ _______ _______ _____ _____    ______ ____
ROOT
ATOM      1  C   UNL     1       1.712  -2.251   0.015  0.00  0.00    +0.091 C 
ATOM      2  C   UNL     1       1.012  -0.939   0.172  0.00  0.00    +0.049 A 
ATOM      3  C   UNL     1       1.480   0.366   0.295  0.00  0.00    +0.087 A 
ATOM      4  N   UNL     1       0.417   1.125   0.402  0.00  0.00    -0.081 NA
ATOM      5  O   UNL     1      -0.610   0.475   0.362  0.00  0.00    -0.339 OA
ATOM      6  C   UNL     1      -0.353  -0.821   0.223  0.00  0.00    +0.226 A 
ATOM      7  N   UNL     1      -1.169  -1.930   0.138  0.00  0.00    -0.286 N 
ATOM      8  C   UNL     1      -0.606  -3.174   0.296  0.00  0.00    +0.019 C 
ATOM      9  C   UNL     1       0.728  -3.379   0.249  0.00  0.00    +0.024 C 
ATOM     10  C   UNL     1       1.268  -4.667   0.413  0.00  0.00    +0.162 C 
ATOM     11  O   UNL     1       2.474  -4.812   0.390  0.00  0.00    -0.292 OA
ATOM     12  C   UNL     1       0.388  -5.868   0.618  0.00  0.00    +0.088 C 
ATOM     13  C   UNL     1      -0.967  -5.610  -0.051  0.00  0.00    +0.032 C 
ATOM     14  C   UNL     1      -1.555  -4.326   0.536  0.00  0.00    +0.059 C 
ATOM     15  C   UNL     1       2.918   0.816   0.303  0.00  0.00    +0.069 C 
ATOM     16  H   UNL     1      -2.246  -1.808  -0.053  0.00  0.00    +0.155 HD
ENDROOT
BRANCH   1  23
ATOM     17  C   UNL     1       4.567  -2.450  -0.378  0.00  0.00    +0.044 C 
ATOM     18  C   UNL     1       3.641  -2.452  -1.567  0.00  0.00    -0.046 A 
ATOM     19  C   UNL     1       4.158  -2.552  -2.845  0.00  0.00    +0.003 A 
ATOM     20  C   UNL     1       3.309  -2.550  -3.936  0.00  0.00    +0.000 A 
ATOM     21  C   UNL     1       1.942  -2.449  -3.748  0.00  0.00    +0.000 A 
ATOM     22  C   UNL     1       1.426  -2.352  -2.470  0.00  0.00    +0.005 A 
ATOM     23  C   UNL     1       2.275  -2.356  -1.379  0.00  0.00    -0.032 A 
ENDBRANCH   1  23
BRANCH  13  24
ATOM     24  C   UNL     1      -1.895  -6.766   0.220  0.00  0.00    -0.044 A 
ATOM     25  C   UNL     1      -2.222  -7.100   1.521  0.00  0.00    +0.004 A 
ATOM     26  C   UNL     1      -3.077  -8.157   1.769  0.00  0.00    +0.000 A 
ATOM     27  C   UNL     1      -3.598  -8.886   0.716  0.00  0.00    +0.000 A 
ATOM     28  C   UNL     1      -3.268  -8.555  -0.585  0.00  0.00    +0.000 A 
ATOM     29  C   UNL     1      -2.416  -7.495  -0.833  0.00  0.00    +0.004 A 
ENDBRANCH  13  24
TORSDOF 2
