REMARK  Name = ZINC12403510
REMARK  12 active torsions:
REMARK  status: ('A' for Active; 'I' for Inactive)
REMARK    1  A    between atoms: C_1  and  C_2
REMARK    2  A    between atoms: C_2  and  C_4
REMARK    3  A    between atoms: C_2  and  O_23
REMARK    4  A    between atoms: N_6  and  N_7
REMARK    5  A    between atoms: C_8  and  C_10
REMARK    6  A    between atoms: C_10  and  O_11
REMARK    7  A    between atoms: O_11  and  C_12
REMARK    8  A    between atoms: C_15  and  C_19
REMARK    9  A    between atoms: C_19  and  C_20
REMARK   10  A    between atoms: C_19  and  C_21
REMARK   11  A    between atoms: C_19  and  C_22
REMARK   12  A    between atoms: O_23  and  C_24
REMARK                            x       y       z     vdW  Elec       q    Type
REMARK                         _______ _______ _______ _____ _____    ______ ____
ROOT
ATOM      1  N   UNL     1       2.413   4.222   0.301  0.00  0.00    -0.231 N 
ATOM      2  C   UNL     1       1.434   3.313   0.479  0.00  0.00    +0.267 C 
ATOM      3  O   UNL     1       0.296   3.679   0.683  0.00  0.00    -0.271 OA
ATOM      4  H   UNL     1       3.323   3.929   0.138  0.00  0.00    +0.173 HD
ENDROOT
BRANCH   1   7
ATOM      5  C   UNL     1       3.095   6.499   0.174  0.00  0.00    +0.270 C 
ATOM      6  O   UNL     1       4.233   6.133  -0.030  0.00  0.00    -0.270 OA
ATOM      7  N   UNL     1       2.116   5.590   0.352  0.00  0.00    -0.231 N 
ATOM      8  H   UNL     1       1.206   5.883   0.515  0.00  0.00    +0.173 HD
BRANCH   5  10
ATOM      9  C   UNL     1       1.850   8.336  -0.934  0.00  0.00    +0.062 C 
ATOM     10  C   UNL     1       2.776   7.971   0.228  0.00  0.00    +0.257 C 
BRANCH  10  11
ATOM     11  O   UNL     1       3.986   8.725   0.128  0.00  0.00    -0.478 OA
BRANCH  11  12
ATOM     12  C   UNL     1       3.980   9.975   0.664  0.00  0.00    +0.140 A 
ATOM     13  C   UNL     1       2.804  10.508   1.171  0.00  0.00    +0.048 A 
ATOM     14  C   UNL     1       2.801  11.776   1.718  0.00  0.00    +0.023 A 
ATOM     15  C   UNL     1       3.969  12.519   1.753  0.00  0.00    +0.043 A 
ATOM     16  C   UNL     1       5.142  11.992   1.244  0.00  0.00    +0.043 A 
ATOM     17  C   UNL     1       5.150  10.721   0.699  0.00  0.00    +0.084 A 
ATOM     18 CL   UNL     1       6.622  10.059   0.059  0.00  0.00    -0.080 Cl
ATOM     19 CL   UNL     1       3.961  14.114   2.437  0.00  0.00    -0.083 Cl
ENDBRANCH  11  12
ENDBRANCH  10  11
ENDBRANCH   5  10
ENDBRANCH   1   7
BRANCH   2  20
ATOM     20  C   UNL     1       1.754   1.841   0.424  0.00  0.00    +0.326 C 
BRANCH  20  21
ATOM     21  O   UNL     1       0.560   1.087   0.641  0.00  0.00    -0.482 OA
BRANCH  21  22
ATOM     22  C   UNL     1       0.674  -0.268   0.623  0.00  0.00    +0.135 A 
ATOM     23  C   UNL     1       1.910  -0.858   0.402  0.00  0.00    +0.047 A 
ATOM     24  C   UNL     1       2.024  -2.234   0.385  0.00  0.00    +0.008 A 
ATOM     25  C   UNL     1       0.907  -3.025   0.588  0.00  0.00    -0.041 A 
ATOM     26  C   UNL     1      -0.326  -2.440   0.809  0.00  0.00    +0.023 A 
ATOM     27  C   UNL     1      -0.444  -1.063   0.832  0.00  0.00    +0.060 A 
ATOM     28 BR   UNL     1      -2.130  -0.263   1.141  0.00  0.00    -0.047 Br
BRANCH  25  29
ATOM     29  C   UNL     1       1.035  -4.526   0.569  0.00  0.00    -0.013 C 
ATOM     30  C   UNL     1       2.007  -4.969   1.664  0.00  0.00    +0.015 C 
ATOM     31  C   UNL     1      -0.336  -5.158   0.818  0.00  0.00    +0.015 C 
ATOM     32  C   UNL     1       1.564  -4.976  -0.794  0.00  0.00    +0.015 C 
ENDBRANCH  25  29
ENDBRANCH  21  22
ENDBRANCH  20  21
ENDBRANCH   2  20
TORSDOF 8
