REMARK  Name = ZINC40016862
REMARK  9 active torsions:
REMARK  status: ('A' for Active; 'I' for Inactive)
REMARK    1  A    between atoms: C_1  and  C_2
REMARK    2  A    between atoms: C_2  and  O_3
REMARK    3  A    between atoms: O_3  and  C_4
REMARK    4  A    between atoms: C_4  and  C_6
REMARK    5  A    between atoms: C_7  and  C_37
REMARK    6  A    between atoms: C_14  and  C_15
REMARK    7  A    between atoms: C_22  and  C_25
REMARK    8  A    between atoms: C_27  and  C_29
REMARK    9  A    between atoms: C_30  and  C_31
REMARK                            x       y       z     vdW  Elec       q    Type
REMARK                         _______ _______ _______ _____ _____    ______ ____
ROOT
ATOM      1  C   UNL     1       1.004  -2.813  -3.050  0.00  0.00    +0.084 C 
ATOM      2  C   UNL     1       1.409  -4.113  -3.170  0.00  0.00    +0.053 C 
ATOM      3  N   UNL     1       2.270  -4.467  -4.115  0.00  0.00    -0.228 NA
ATOM      4  C   UNL     1       2.797  -3.648  -4.991  0.00  0.00    +0.178 A 
ATOM      5  N   UNL     1       2.525  -2.301  -5.046  0.00  0.00    -0.275 N 
ATOM      6  C   UNL     1       3.125  -1.562  -5.988  0.00  0.00    +0.268 A 
ATOM      7  O   UNL     1       2.915  -0.366  -6.076  0.00  0.00    -0.266 OA
ATOM      8  C   UNL     1       4.046  -2.238  -6.913  0.00  0.00    +0.081 A 
ATOM      9  C   UNL     1       4.771  -1.724  -7.940  0.00  0.00    +0.028 C 
ATOM     10  S   UNL     1       3.954  -3.920  -6.319  0.00  0.00    -0.046 S 
ATOM     11  C   UNL     1       1.560  -1.802  -4.026  0.00  0.00    +0.155 C 
ATOM     12  C   UNL     1       0.873  -5.153  -2.220  0.00  0.00    +0.066 C 
ENDROOT
BRANCH   9  13
ATOM     13  C   UNL     1       5.521  -2.619  -8.829  0.00  0.00    -0.023 A 
ATOM     14  C   UNL     1       6.577  -2.122  -9.605  0.00  0.00    +0.011 A 
ATOM     15  C   UNL     1       7.280  -2.963 -10.433  0.00  0.00    +0.046 A 
ATOM     16  C   UNL     1       6.952  -4.318 -10.510  0.00  0.00    +0.124 A 
ATOM     17  C   UNL     1       5.898  -4.806  -9.743  0.00  0.00    -0.002 A 
ATOM     18  C   UNL     1       5.193  -3.979  -8.905  0.00  0.00    +0.015 A 
ATOM     19  C   UNL     1       5.769  -6.285 -10.056  0.00  0.00    +0.083 C 
ATOM     20  C   UNL     1       6.606  -6.411 -11.351  0.00  0.00    +0.175 C 
ATOM     21  O   UNL     1       7.523  -5.310 -11.247  0.00  0.00    -0.488 OA
ATOM     22  C   UNL     1       7.356  -7.745 -11.383  0.00  0.00    +0.052 C 
ENDBRANCH   9  13
BRANCH   1  23
ATOM     23  C   UNL     1       0.092  -2.429  -2.053  0.00  0.00    +0.339 C 
ATOM     24  O   UNL     1      -0.452  -3.276  -1.367  0.00  0.00    -0.245 OA
BRANCH  23  25
ATOM     25  O   UNL     1      -0.180  -1.121  -1.854  0.00  0.00    -0.462 OA
BRANCH  25  27
ATOM     26  C   UNL     1      -1.296   0.714  -0.747  0.00  0.00    +0.048 C 
ATOM     27  C   UNL     1      -1.117  -0.803  -0.823  0.00  0.00    +0.229 C 
ENDBRANCH  25  27
ENDBRANCH  23  25
ENDBRANCH   1  23
BRANCH  11  28
ATOM     28  C   UNL     1       0.400  -1.169  -4.749  0.00  0.00    +0.004 C 
ATOM     29  C   UNL     1       0.259   0.149  -4.750  0.00  0.00    +0.006 C 
BRANCH  29  30
ATOM     30  C   UNL     1      -0.880   0.771  -5.460  0.00  0.00    -0.025 A 
ATOM     31  C   UNL     1      -1.811  -0.028  -6.125  0.00  0.00    +0.008 A 
ATOM     32  C   UNL     1      -2.871   0.558  -6.785  0.00  0.00    +0.001 A 
ATOM     33  C   UNL     1      -3.012   1.934  -6.789  0.00  0.00    +0.000 A 
ATOM     34  C   UNL     1      -2.092   2.732  -6.132  0.00  0.00    +0.001 A 
ATOM     35  C   UNL     1      -1.031   2.158  -5.462  0.00  0.00    +0.008 A 
ENDBRANCH  29  30
ENDBRANCH  11  28
TORSDOF 6
