REMARK  Name = ZINC38688725
REMARK  15 active torsions:
REMARK  status: ('A' for Active; 'I' for Inactive)
REMARK    1  A    between atoms: C_1  and  C_2
REMARK    2  A    between atoms: C_2  and  C_3
REMARK    3  A    between atoms: C_3  and  C_4
REMARK    4  A    between atoms: C_4  and  C_5
REMARK    5  A    between atoms: C_8  and  C_11
REMARK    6  A    between atoms: C_11  and  O_13
REMARK    7  A    between atoms: O_13  and  C_14
REMARK    8  A    between atoms: C_21  and  N_38
REMARK    9  A    between atoms: C_22  and  C_36
REMARK   10  A    between atoms: C_23  and  C_25
REMARK   11  A    between atoms: C_28  and  O_33
REMARK   12  A    between atoms: C_29  and  O_31
REMARK   13  A    between atoms: O_31  and  C_32
REMARK   14  A    between atoms: O_33  and  C_34
REMARK   15  A    between atoms: C_34  and  C_35
REMARK                            x       y       z     vdW  Elec       q    Type
REMARK                         _______ _______ _______ _____ _____    ______ ____
ROOT
ATOM      1  C   UNL     1       5.082  -6.472   6.243  0.00  0.00    +0.135 A 
ATOM      2  C   UNL     1       5.676  -5.612   7.156  0.00  0.00    +0.047 A 
ATOM      3  C   UNL     1       6.359  -6.122   8.242  0.00  0.00    +0.012 A 
ATOM      4  C   UNL     1       6.456  -7.490   8.425  0.00  0.00    +0.008 A 
ATOM      5  C   UNL     1       5.866  -8.354   7.516  0.00  0.00    +0.138 A 
ATOM      6  C   UNL     1       5.173  -7.842   6.427  0.00  0.00    +0.093 A 
ATOM      7  O   UNL     1       5.950  -9.698   7.678  0.00  0.00    -0.441 OA
ATOM      8  C   UNL     1       6.901 -10.219   8.471  0.00  0.00    +0.199 C 
ATOM      9  C   UNL     1       7.536  -9.478   9.411  0.00  0.00    +0.098 C 
ATOM     10  C   UNL     1       7.206  -8.027   9.615  0.00  0.00    +0.098 C 
ENDROOT
BRANCH  10  11
ATOM     11  C   UNL     1       6.355  -7.877  10.850  0.00  0.00    -0.031 A 
ATOM     12  C   UNL     1       5.126  -8.506  10.921  0.00  0.00    +0.008 A 
ATOM     13  C   UNL     1       4.342  -8.371  12.051  0.00  0.00    +0.050 A 
ATOM     14  C   UNL     1       4.787  -7.606  13.117  0.00  0.00    +0.162 A 
ATOM     15  C   UNL     1       6.025  -6.973  13.046  0.00  0.00    +0.162 A 
ATOM     16  C   UNL     1       6.808  -7.116  11.912  0.00  0.00    +0.054 A 
BRANCH  15  17
ATOM     17  O   UNL     1       6.466  -6.221  14.089  0.00  0.00    -0.491 OA
ATOM     18  C   UNL     1       7.746  -5.601  13.946  0.00  0.00    +0.277 C 
ENDBRANCH  15  17
BRANCH  14  19
ATOM     19  O   UNL     1       4.017  -7.473  14.229  0.00  0.00    -0.489 OA
BRANCH  19  20
ATOM     20  C   UNL     1       2.758  -8.149  14.232  0.00  0.00    +0.226 C 
ATOM     21  C   UNL     1       2.039  -7.884  15.556  0.00  0.00    +0.048 C 
ENDBRANCH  19  20
ENDBRANCH  14  19
ENDBRANCH  10  11
BRANCH   8  22
ATOM     22  N   UNL     1       7.238 -11.541   8.326  0.00  0.00    -0.328 N 
ATOM     23  H   UNL     1       6.792 -12.085   7.658  0.00  0.00    +0.145 HD
ATOM     24  H   UNL     1       7.923 -11.932   8.891  0.00  0.00    +0.145 HD
ENDBRANCH   8  22
BRANCH   9  25
ATOM     25  C   UNL     1       8.541 -10.091  10.226  0.00  0.00    +0.101 C 
ATOM     26  N   UNL     1       9.338 -10.577  10.872  0.00  0.00    -0.191 NA
ENDBRANCH   9  25
BRANCH   1  27
ATOM     27  O   UNL     1       4.409  -5.972   5.174  0.00  0.00    -0.426 OA
BRANCH  27  28
ATOM     28  C   UNL     1       5.126  -5.509   4.138  0.00  0.00    +0.315 C 
ATOM     29  O   UNL     1       6.332  -5.463   4.210  0.00  0.00    -0.250 OA
BRANCH  28  33
ATOM     30  C   UNL     1       3.813  -2.950   0.933  0.00  0.00    -0.011 C 
ATOM     31  C   UNL     1       4.759  -4.104   0.595  0.00  0.00    +0.004 C 
ATOM     32  C   UNL     1       5.468  -4.573   1.867  0.00  0.00    +0.015 C 
ATOM     33  C   UNL     1       4.428  -5.048   2.884  0.00  0.00    +0.098 C 
ATOM     34  C   UNL     1       3.482  -3.894   3.223  0.00  0.00    +0.015 C 
ATOM     35  C   UNL     1       2.774  -3.425   1.951  0.00  0.00    +0.004 C 
BRANCH  30  36
ATOM     36  C   UNL     1       3.105  -2.481  -0.339  0.00  0.00    +0.003 C 
BRANCH  36  37
ATOM     37  C   UNL     1       4.132  -1.891  -1.307  0.00  0.00    +0.000 C 
BRANCH  37  39
ATOM     38  C   UNL     1       4.451  -0.833  -3.548  0.00  0.00    +0.004 C 
ATOM     39  C   UNL     1       3.424  -1.423  -2.579  0.00  0.00    -0.003 C 
ENDBRANCH  37  39
ENDBRANCH  36  37
ENDBRANCH  30  36
ENDBRANCH  28  33
ENDBRANCH  27  28
ENDBRANCH   1  27
TORSDOF 12
