REMARK  Name = ZINC38818702
REMARK  8 active torsions:
REMARK  status: ('A' for Active; 'I' for Inactive)
REMARK    1  A    between atoms: C_1  and  C_2
REMARK    2  A    between atoms: C_2  and  O_3
REMARK    3  A    between atoms: O_3  and  C_4
REMARK    4  A    between atoms: C_4  and  C_6
REMARK    5  A    between atoms: C_15  and  N_17
REMARK    6  A    between atoms: C_18  and  C_20
REMARK    7  A    between atoms: C_20  and  S_21
REMARK    8  A    between atoms: S_21  and  C_22
REMARK                            x       y       z     vdW  Elec       q    Type
REMARK                         _______ _______ _______ _____ _____    ______ ____
ROOT
ATOM      1  N   UNL     1       2.892  -0.390   2.899  0.00  0.00    -0.299 N 
ATOM      2  C   UNL     1       2.764   0.880   3.330  0.00  0.00    +0.224 C 
ATOM      3  O   UNL     1       1.996   1.140   4.232  0.00  0.00    -0.275 OA
ATOM      4  H   UNL     1       3.506  -0.598   2.178  0.00  0.00    +0.150 HD
ENDROOT
BRANCH   1  13
ATOM      5  C   UNL     1       1.499  -2.372   2.471  0.00  0.00    +0.067 C 
ATOM      6  C   UNL     1       1.615  -3.668   2.620  0.00  0.00    -0.044 C 
ATOM      7  C   UNL     1       1.169  -4.717   1.602  0.00  0.00    +0.032 C 
ATOM      8  C   UNL     1       1.228  -6.069   2.318  0.00  0.00    +0.004 C 
ATOM      9  C   UNL     1       2.633  -6.399   2.799  0.00  0.00    +0.002 C 
ATOM     10  C   UNL     1       3.359  -5.193   3.389  0.00  0.00    +0.018 C 
ATOM     11  C   UNL     1       2.333  -4.170   3.882  0.00  0.00    +0.075 C 
ATOM     12  S   UNL     1       3.184  -2.639   4.436  0.00  0.00    -0.126 S 
ATOM     13  C   UNL     1       2.103  -1.457   3.520  0.00  0.00    +0.169 C 
BRANCH   5  14
ATOM     14  C   UNL     1       0.801  -1.813   1.304  0.00  0.00    +0.338 C 
ATOM     15  O   UNL     1       0.321  -2.556   0.470  0.00  0.00    -0.245 OA
BRANCH  14  16
ATOM     16  O   UNL     1       0.693  -0.477   1.160  0.00  0.00    -0.462 OA
BRANCH  16  18
ATOM     17  C   UNL     1      -0.019   1.526   0.010  0.00  0.00    +0.048 C 
ATOM     18  C   UNL     1       0.002  -0.004   0.002  0.00  0.00    +0.229 C 
ENDBRANCH  16  18
ENDBRANCH  14  16
ENDBRANCH   5  14
ENDBRANCH   1  13
BRANCH   2  19
ATOM     19  C   UNL     1       3.575   1.978   2.692  0.00  0.00    +0.173 C 
BRANCH  19  20
ATOM     20  S   UNL     1       3.181   3.561   3.486  0.00  0.00    -0.075 S 
BRANCH  20  21
ATOM     21  C   UNL     1       4.196   4.726   2.639  0.00  0.00    +0.210 A 
ATOM     22  H   UNL     1       6.292   5.778   0.582  0.00  0.00    +0.192 HD
ATOM     23  N   UNL     1       4.244   6.040   2.887  0.00  0.00    -0.188 NA
ATOM     24  C   UNL     1       5.106   6.613   2.074  0.00  0.00    +0.209 A 
ATOM     25  N   UNL     1       5.630   5.656   1.280  0.00  0.00    -0.246 N 
ATOM     26  N   UNL     1       5.032   4.446   1.668  0.00  0.00    -0.144 NA
ATOM     27  N   UNL     1       5.419   7.960   2.038  0.00  0.00    -0.328 N 
ATOM     28  H   UNL     1       4.987   8.574   2.651  0.00  0.00    +0.145 HD
ATOM     29  H   UNL     1       6.070   8.290   1.399  0.00  0.00    +0.145 HD
ENDBRANCH  20  21
ENDBRANCH  19  20
ENDBRANCH   2  19
TORSDOF 7
