REMARK  Name = ZINC26545707
REMARK  7 active torsions:
REMARK  status: ('A' for Active; 'I' for Inactive)
REMARK    1  A    between atoms: C_1  and  C_2
REMARK    2  A    between atoms: C_7  and  O_8
REMARK    3  A    between atoms: O_8  and  C_9
REMARK    4  A    between atoms: C_9  and  C_11
REMARK    5  A    between atoms: C_9  and  C_12
REMARK    6  A    between atoms: N_14  and  N_15
REMARK    7  A    between atoms: C_16  and  C_18
REMARK                            x       y       z     vdW  Elec       q    Type
REMARK                         _______ _______ _______ _____ _____    ______ ____
ROOT
ATOM      1  C   UNL     1       1.315  -0.569  -0.180  0.00  0.00    +0.270 C 
ATOM      2  O   UNL     1       2.384  -0.027   0.004  0.00  0.00    -0.270 OA
ATOM      3  N   UNL     1       0.201   0.174  -0.339  0.00  0.00    -0.231 N 
ATOM      4  H   UNL     1      -0.769  -0.318  -0.506  0.00  0.00    +0.173 HD
ENDROOT
BRANCH   3   5
ATOM      5  N   UNL     1       0.279   1.572  -0.292  0.00  0.00    -0.230 N 
ATOM      6  C   UNL     1      -0.833   2.314  -0.456  0.00  0.00    +0.267 C 
ATOM      7  O   UNL     1      -1.906   1.771  -0.646  0.00  0.00    -0.268 OA
ATOM      8  H   UNL     1       1.248   2.063  -0.120  0.00  0.00    +0.173 HD
BRANCH   6   9
ATOM      9  C   UNL     1      -0.752   3.777  -0.407  0.00  0.00    +0.076 A 
ATOM     10  C   UNL     1      -1.758   4.710  -0.549  0.00  0.00    +0.024 A 
ATOM     11  C   UNL     1      -1.422   6.061  -0.461  0.00  0.00    -0.036 A 
ATOM     12  C   UNL     1      -0.112   6.352  -0.240  0.00  0.00    -0.006 A 
ATOM     13  S   UNL     1       0.673   4.816  -0.139  0.00  0.00    -0.088 S 
ATOM     14  C   UNL     1       0.129   7.835  -0.169  0.00  0.00    +0.043 C 
ATOM     15  C   UNL     1      -1.129   8.466  -0.804  0.00  0.00    +0.010 C 
ATOM     16  C   UNL     1      -2.193   7.381  -0.550  0.00  0.00    +0.036 C 
ENDBRANCH   6   9
ENDBRANCH   3   5
BRANCH   1  17
ATOM     17  C   UNL     1       1.231  -2.073  -0.231  0.00  0.00    +0.257 C 
ATOM     18  C   UNL     1       0.396  -2.577   0.948  0.00  0.00    +0.062 C 
BRANCH  17  19
ATOM     19  O   UNL     1       2.546  -2.626  -0.154  0.00  0.00    -0.480 OA
BRANCH  19  26
ATOM     20  C   UNL     1       5.180  -3.643  -0.216  0.00  0.00    +0.047 C 
ATOM     21  C   UNL     1       3.999  -4.413  -0.748  0.00  0.00    -0.007 A 
ATOM     22  C   UNL     1       4.183  -5.669  -1.294  0.00  0.00    +0.027 A 
ATOM     23  C   UNL     1       3.099  -6.377  -1.783  0.00  0.00    +0.041 A 
ATOM     24  C   UNL     1       1.830  -5.828  -1.726  0.00  0.00    +0.023 A 
ATOM     25  C   UNL     1       1.642  -4.575  -1.177  0.00  0.00    +0.047 A 
ATOM     26  C   UNL     1       2.728  -3.861  -0.691  0.00  0.00    +0.125 A 
ATOM     27 CL   UNL     1       3.332  -7.955  -2.468  0.00  0.00    -0.084 Cl
ENDBRANCH  19  26
ENDBRANCH  17  19
ENDBRANCH   1  17
TORSDOF 5
