REMARK  Name = ZINC14037139
REMARK  12 active torsions:
REMARK  status: ('A' for Active; 'I' for Inactive)
REMARK    1  A    between atoms: C_1  and  C_2
REMARK    2  A    between atoms: C_2  and  C_3
REMARK    3  A    between atoms: C_3  and  O_4
REMARK    4  A    between atoms: O_4  and  C_5
REMARK    5  A    between atoms: C_10  and  C_11
REMARK    6  A    between atoms: N_13  and  C_14
REMARK    7  A    between atoms: C_14  and  N_16
REMARK    8  A    between atoms: N_16  and  N_17
REMARK    9  A    between atoms: C_18  and  C_20
REMARK   10  A    between atoms: C_20  and  O_21
REMARK   11  A    between atoms: O_21  and  C_22
REMARK   12  A    between atoms: C_25  and  C_28
REMARK                            x       y       z     vdW  Elec       q    Type
REMARK                         _______ _______ _______ _____ _____    ______ ____
ROOT
ATOM      1  N   UNL     1       2.323   0.998  -0.015  0.00  0.00    -0.245 N 
ATOM      2  H   UNL     1       3.156   1.494  -0.020  0.00  0.00    +0.172 HD
ENDROOT
BRANCH   1   3
ATOM      3  N   UNL     1       2.342  -0.403  -0.022  0.00  0.00    -0.232 N 
ATOM      4  C   UNL     1       3.518  -1.061  -0.037  0.00  0.00    +0.267 C 
ATOM      5  O   UNL     1       4.560  -0.441  -0.044  0.00  0.00    -0.271 OA
ATOM      6  H   UNL     1       1.509  -0.900  -0.017  0.00  0.00    +0.173 HD
BRANCH   4   7
ATOM      7  C   UNL     1       3.539  -2.568  -0.045  0.00  0.00    +0.326 C 
BRANCH   7   8
ATOM      8  O   UNL     1       4.892  -3.026  -0.061  0.00  0.00    -0.483 OA
BRANCH   8   9
ATOM      9  C   UNL     1       5.088  -4.370  -0.070  0.00  0.00    +0.121 A 
ATOM     10  C   UNL     1       3.998  -5.230  -0.059  0.00  0.00    +0.046 A 
ATOM     11  C   UNL     1       4.194  -6.595  -0.073  0.00  0.00    +0.012 A 
ATOM     12  C   UNL     1       5.489  -7.111  -0.088  0.00  0.00    -0.018 A 
ATOM     13  C   UNL     1       6.581  -6.246  -0.094  0.00  0.00    +0.012 A 
ATOM     14  C   UNL     1       6.379  -4.882  -0.085  0.00  0.00    +0.046 A 
BRANCH  12  15
ATOM     15  C   UNL     1       5.703  -8.579  -0.098  0.00  0.00    -0.018 A 
ATOM     16  C   UNL     1       6.997  -9.097  -0.118  0.00  0.00    +0.008 A 
ATOM     17  C   UNL     1       7.190 -10.464  -0.123  0.00  0.00    +0.001 A 
ATOM     18  C   UNL     1       6.103 -11.319  -0.117  0.00  0.00    +0.000 A 
ATOM     19  C   UNL     1       4.816 -10.810  -0.102  0.00  0.00    +0.001 A 
ATOM     20  C   UNL     1       4.611  -9.445  -0.092  0.00  0.00    +0.008 A 
ENDBRANCH  12  15
ENDBRANCH   8   9
ENDBRANCH   7   8
ENDBRANCH   4   7
ENDBRANCH   1   3
BRANCH   1  21
ATOM     21  C   UNL     1       1.147   1.655   0.000  0.00  0.00    +0.153 C 
ATOM     22  S   UNL     1       1.124   3.367   0.009  0.00  0.00    -0.017 S 
BRANCH  21  25
ATOM     23  C   UNL     1      -1.187   1.624   0.017  0.00  0.00    +0.253 C 
ATOM     24  O   UNL     1      -1.204   2.839   0.023  0.00  0.00    -0.270 OA
ATOM     25  N   UNL     1      -0.011   0.966   0.007  0.00  0.00    -0.263 N 
ATOM     26  H   UNL     1       0.002  -0.004   0.002  0.00  0.00    +0.157 HD
BRANCH  23  32
ATOM     27  C   UNL     1      -3.680   1.549   0.028  0.00  0.00    +0.133 A 
ATOM     28  C   UNL     1      -4.865   0.829   0.030  0.00  0.00    +0.046 A 
ATOM     29  C   UNL     1      -4.837  -0.551   0.022  0.00  0.00    +0.004 A 
ATOM     30  C   UNL     1      -3.627  -1.227   0.012  0.00  0.00    +0.001 A 
ATOM     31  C   UNL     1      -2.440  -0.528   0.005  0.00  0.00    +0.017 A 
ATOM     32  C   UNL     1      -2.454   0.869   0.018  0.00  0.00    +0.079 A 
BRANCH  27  33
ATOM     33  O   UNL     1      -3.707   2.906   0.035  0.00  0.00    -0.491 OA
BRANCH  33  34
ATOM     34  C   UNL     1      -4.992   3.529   0.044  0.00  0.00    +0.229 C 
BRANCH  34  36
ATOM     35  C   UNL     1      -6.198   5.717   0.061  0.00  0.00    +0.007 C 
ATOM     36  C   UNL     1      -4.822   5.050   0.051  0.00  0.00    +0.038 C 
ENDBRANCH  34  36
ENDBRANCH  33  34
ENDBRANCH  27  33
ENDBRANCH  23  32
ENDBRANCH  21  25
ENDBRANCH   1  21
TORSDOF 11
