REMARK  Name = ZINC34779747
REMARK  9 active torsions:
REMARK  status: ('A' for Active; 'I' for Inactive)
REMARK    1  A    between atoms: C_1  and  C_2
REMARK    2  A    between atoms: C_5  and  C_9
REMARK    3  A    between atoms: C_6  and  C_8
REMARK    4  A    between atoms: C_9  and  N_10
REMARK    5  A    between atoms: C_14  and  C_28
REMARK    6  A    between atoms: C_15  and  C_24
REMARK    7  A    between atoms: N_18  and  C_21
REMARK    8  A    between atoms: C_21  and  C_22
REMARK    9  A    between atoms: N_26  and  N_27
REMARK                            x       y       z     vdW  Elec       q    Type
REMARK                         _______ _______ _______ _____ _____    ______ ____
ROOT
ATOM      1  N   UNL     1      -1.326  -4.557   0.192  0.00  0.00    -0.256 N 
ATOM      2  C   UNL     1      -1.684  -4.700   1.480  0.00  0.00    +0.265 A 
ATOM      3  O   UNL     1      -0.892  -4.454   2.371  0.00  0.00    -0.267 OA
ATOM      4  C   UNL     1      -3.056  -5.162   1.802  0.00  0.00    +0.074 A 
ATOM      5  C   UNL     1      -3.634  -5.377   3.059  0.00  0.00    -0.017 A 
ATOM      6  C   UNL     1      -4.929  -5.807   3.084  0.00  0.00    +0.081 A 
ATOM      7  S   UNL     1      -5.341  -5.911   1.354  0.00  0.00    -0.065 S 
ATOM      8  C   UNL     1      -3.885  -5.416   0.700  0.00  0.00    +0.098 A 
ATOM      9  N   UNL     1      -3.433  -5.242  -0.578  0.00  0.00    -0.283 N 
ATOM     10  C   UNL     1      -2.178  -4.816  -0.813  0.00  0.00    +0.333 A 
ATOM     11  O   UNL     1      -1.807  -4.666  -1.961  0.00  0.00    -0.246 OA
ATOM     12  C   UNL     1      -2.859  -5.144   4.331  0.00  0.00    +0.046 C 
ENDROOT
BRANCH   6  13
ATOM     13  C   UNL     1      -5.771  -6.108   4.245  0.00  0.00    +0.264 C 
ATOM     14  O   UNL     1      -5.325  -5.981   5.370  0.00  0.00    -0.268 OA
ATOM     15  N   UNL     1      -7.040  -6.526   4.066  0.00  0.00    -0.249 N 
ATOM     16  H   UNL     1      -7.396  -6.626   3.169  0.00  0.00    +0.169 HD
BRANCH  15  17
ATOM     17  N   UNL     1      -7.825  -6.806   5.148  0.00  0.00    -0.254 NA
ATOM     18  H   UNL     1      -8.745  -7.106   4.860  0.00  0.00    +0.140 HD
ATOM     19  H   UNL     1      -7.390  -7.497   5.741  0.00  0.00    +0.140 HD
ENDBRANCH  15  17
ENDBRANCH   6  13
BRANCH   1  20
ATOM     20  C   UNL     1       0.030  -4.100  -0.124  0.00  0.00    +0.165 C 
BRANCH  20  25
ATOM     21  C   UNL     1       0.138   1.676  -0.246  0.00  0.00    +0.044 C 
ATOM     22  C   UNL     1       0.110   0.170  -0.214  0.00  0.00    -0.050 A 
ATOM     23  C   UNL     1      -1.092  -0.496  -0.055  0.00  0.00    +0.004 A 
ATOM     24  C   UNL     1      -1.117  -1.878  -0.026  0.00  0.00    +0.006 A 
ATOM     25  C   UNL     1       0.058  -2.594  -0.157  0.00  0.00    -0.025 A 
ATOM     26  C   UNL     1       1.259  -1.929  -0.316  0.00  0.00    -0.045 A 
ATOM     27  C   UNL     1       1.284  -0.546  -0.350  0.00  0.00    +0.007 A 
ATOM     28  C   UNL     1       2.540  -2.709  -0.458  0.00  0.00    +0.044 C 
ENDBRANCH  20  25
ENDBRANCH   1  20
BRANCH   9  29
ATOM     29  C   UNL     1      -4.327  -5.518  -1.706  0.00  0.00    +0.154 C 
BRANCH  29  30
ATOM     30  C   UNL     1      -5.080  -4.263  -2.067  0.00  0.00    -0.013 C 
ATOM     31  C   UNL     1      -5.038  -3.804  -3.293  0.00  0.00    +0.005 C 
ENDBRANCH  29  30
ENDBRANCH   9  29
TORSDOF 6
