REMARK  Name = ZINC33871548
REMARK  7 active torsions:
REMARK  status: ('A' for Active; 'I' for Inactive)
REMARK    1  A    between atoms: C_1  and  C_2
REMARK    2  A    between atoms: C_5  and  N_8
REMARK    3  A    between atoms: C_9  and  C_11
REMARK    4  A    between atoms: C_11  and  N_12
REMARK    5  A    between atoms: N_23  and  C_27
REMARK    6  A    between atoms: C_27  and  C_29
REMARK    7  A    between atoms: C_27  and  C_30
REMARK                            x       y       z     vdW  Elec       q    Type
REMARK                         _______ _______ _______ _____ _____    ______ ____
ROOT
ATOM      1  N   UNL     1       0.504  -7.309   2.397  0.00  0.00    -0.258 N 
ATOM      2  C   UNL     1       1.697  -7.459   3.095  0.00  0.00    +0.045 A 
ATOM      3  C   UNL     1       3.021  -7.288   2.709  0.00  0.00    +0.024 A 
ATOM      4  C   UNL     1       4.041  -7.506   3.614  0.00  0.00    +0.002 A 
ATOM      5  C   UNL     1       3.760  -7.897   4.913  0.00  0.00    +0.001 A 
ATOM      6  C   UNL     1       2.452  -8.073   5.316  0.00  0.00    +0.010 A 
ATOM      7  C   UNL     1       1.416  -7.855   4.411  0.00  0.00    +0.010 A 
ATOM      8  C   UNL     1      -0.055  -7.951   4.514  0.00  0.00    +0.065 C 
ATOM      9  C   UNL     1      -0.798  -8.306   5.623  0.00  0.00    +0.089 C 
ATOM     10  C   UNL     1      -2.274  -8.424   5.779  0.00  0.00    +0.260 C 
ATOM     11  O   UNL     1      -3.036  -8.197   4.859  0.00  0.00    -0.269 OA
ATOM     12  N   UNL     1      -2.710  -8.789   6.973  0.00  0.00    -0.248 N 
ATOM     13  C   UNL     1      -1.860  -9.039   7.989  0.00  0.00    +0.121 C 
ATOM     14  S   UNL     1      -2.233  -9.518   9.590  0.00  0.00    -0.027 S 
ATOM     15  S   UNL     1      -0.253  -8.760   7.264  0.00  0.00    -0.060 S 
ATOM     16  C   UNL     1      -0.557  -7.578   3.176  0.00  0.00    +0.253 C 
ATOM     17  O   UNL     1      -1.725  -7.526   2.839  0.00  0.00    -0.270 OA
ENDROOT
BRANCH  12  18
ATOM     18  C   UNL     1      -4.151  -8.924   7.197  0.00  0.00    +0.110 C 
ATOM     19  C   UNL     1      -4.890  -8.776   5.865  0.00  0.00    +0.033 C 
BRANCH  18  20
ATOM     20  C   UNL     1      -4.614  -7.851   8.149  0.00  0.00    -0.027 A 
ATOM     21  C   UNL     1      -4.190  -6.547   7.980  0.00  0.00    +0.005 A 
ATOM     22  C   UNL     1      -4.615  -5.563   8.854  0.00  0.00    +0.000 A 
ATOM     23  C   UNL     1      -5.464  -5.885   9.897  0.00  0.00    +0.000 A 
ATOM     24  C   UNL     1      -5.888  -7.189  10.065  0.00  0.00    +0.000 A 
ATOM     25  C   UNL     1      -5.467  -8.172   9.189  0.00  0.00    +0.005 A 
ENDBRANCH  18  20
ENDBRANCH  12  18
BRANCH   1  26
ATOM     26  C   UNL     1       0.415  -6.903   0.992  0.00  0.00    +0.210 C 
BRANCH  26  28
ATOM     27  N   UNL     1       0.240  -4.797  -0.294  0.00  0.00    -0.284 N 
ATOM     28  C   UNL     1       0.330  -5.401   0.908  0.00  0.00    +0.235 C 
ATOM     29  O   UNL     1       0.342  -4.735   1.922  0.00  0.00    -0.274 OA
ATOM     30  H   UNL     1       0.151  -5.330  -1.099  0.00  0.00    +0.155 HD
BRANCH  27  35
ATOM     31  C   UNL     1       0.382   0.864  -0.643  0.00  0.00    +0.044 C 
ATOM     32  C   UNL     1       0.344  -0.640  -0.550  0.00  0.00    -0.050 A 
ATOM     33  C   UNL     1       0.974  -1.282   0.499  0.00  0.00    +0.005 A 
ATOM     34  C   UNL     1       0.942  -2.660   0.587  0.00  0.00    +0.023 A 
ATOM     35  C   UNL     1       0.274  -3.401  -0.380  0.00  0.00    +0.033 A 
ATOM     36  C   UNL     1      -0.358  -2.752  -1.432  0.00  0.00    +0.023 A 
ATOM     37  C   UNL     1      -0.326  -1.374  -1.512  0.00  0.00    +0.005 A 
ENDBRANCH  27  35
ENDBRANCH  26  28
ENDBRANCH   1  26
TORSDOF 5
