REMARK  Name = ZINC13636134
REMARK  8 active torsions:
REMARK  status: ('A' for Active; 'I' for Inactive)
REMARK    1  A    between atoms: C_1  and  C_2
REMARK    2  A    between atoms: C_2  and  C_3
REMARK    3  A    between atoms: C_3  and  C_4
REMARK    4  A    between atoms: C_4  and  N_5
REMARK    5  A    between atoms: C_6  and  C_8
REMARK    6  A    between atoms: C_15  and  C_24
REMARK    7  A    between atoms: C_27  and  O_30
REMARK    8  A    between atoms: O_30  and  C_31
REMARK                            x       y       z     vdW  Elec       q    Type
REMARK                         _______ _______ _______ _____ _____    ______ ____
ROOT
ATOM      1  C   UNL     1       6.428   0.955  -1.192  0.00  0.00    +0.058 A 
ATOM      2  C   UNL     1       6.663  -0.331  -0.703  0.00  0.00    +0.015 A 
ATOM      3  C   UNL     1       6.522  -0.583   0.644  0.00  0.00    +0.001 A 
ATOM      4  C   UNL     1       6.152   0.432   1.508  0.00  0.00    +0.006 A 
ATOM      5  C   UNL     1       5.915   1.716   1.040  0.00  0.00    -0.019 A 
ATOM      6  C   UNL     1       6.051   1.985  -0.309  0.00  0.00    +0.044 A 
ATOM      7  N   UNL     1       5.841   3.267  -0.843  0.00  0.00    -0.336 N 
ATOM      8  C   UNL     1       4.865   4.007  -0.042  0.00  0.00    +0.105 C 
ATOM      9  C   UNL     1       5.370   4.149   1.385  0.00  0.00    +0.029 C 
ATOM     10  C   UNL     1       5.514   2.763   2.047  0.00  0.00    +0.049 C 
ATOM     11  C   UNL     1       6.672   2.957   3.011  0.00  0.00    -0.023 C 
ATOM     12  C   UNL     1       7.405   3.979   2.650  0.00  0.00    -0.030 C 
ATOM     13  C   UNL     1       6.838   4.640   1.392  0.00  0.00    +0.033 C 
ATOM     14  H   UNL     1       5.548   3.207  -1.807  0.00  0.00    +0.147 HD
ENDROOT
BRANCH   8  15
ATOM     15  C   UNL     1       3.554   3.265  -0.039  0.00  0.00    -0.027 A 
ATOM     16  C   UNL     1       2.718   3.345   1.060  0.00  0.00    +0.009 A 
ATOM     17  C   UNL     1       1.516   2.665   1.065  0.00  0.00    +0.046 A 
ATOM     18  C   UNL     1       1.147   1.901  -0.033  0.00  0.00    +0.120 A 
ATOM     19  C   UNL     1       1.990   1.818  -1.131  0.00  0.00    +0.046 A 
ATOM     20  C   UNL     1       3.189   2.504  -1.134  0.00  0.00    +0.009 A 
BRANCH  18  21
ATOM     21  O   UNL     1      -0.036   1.232  -0.029  0.00  0.00    -0.495 OA
ATOM     22  C   UNL     1      -0.350   0.465  -1.194  0.00  0.00    +0.277 C 
ENDBRANCH  18  21
ENDBRANCH   8  15
BRANCH   1  24
ATOM     23  N   UNL     1       6.800   0.224  -3.495  0.00  0.00    -0.311 N 
ATOM     24  C   UNL     1       6.574   1.234  -2.633  0.00  0.00    +0.246 C 
ATOM     25  O   UNL     1       6.491   2.376  -3.042  0.00  0.00    -0.270 OA
ATOM     26  H   UNL     1       6.866  -0.687  -3.169  0.00  0.00    +0.149 HD
BRANCH  23  27
ATOM     27  C   UNL     1       6.945   0.501  -4.927  0.00  0.00    +0.104 C 
BRANCH  27  28
ATOM     28  C   UNL     1       7.192  -0.808  -5.678  0.00  0.00    +0.018 C 
BRANCH  28  30
ATOM     29  C   UNL     1       7.591  -1.828  -7.923  0.00  0.00    +0.004 C 
ATOM     30  C   UNL     1       7.344  -0.518  -7.172  0.00  0.00    -0.002 C 
ENDBRANCH  28  30
ENDBRANCH  27  28
ENDBRANCH  23  27
ENDBRANCH   1  24
TORSDOF 6
