REMARK  Name = ZINC03844530
REMARK  4 active torsions:
REMARK  status: ('A' for Active; 'I' for Inactive)
REMARK    1  A    between atoms: C_1  and  C_2
REMARK    2  A    between atoms: C_3  and  C_20
REMARK    3  A    between atoms: C_6  and  C_9
REMARK    4  A    between atoms: N_11  and  C_14
REMARK                            x       y       z     vdW  Elec       q    Type
REMARK                         _______ _______ _______ _____ _____    ______ ____
ROOT
ATOM      1  C   UNL     1      -0.913   2.189  -0.896  0.00  0.00    +0.096 A 
ATOM      2  C   UNL     1      -2.004   2.974  -0.734  0.00  0.00    +0.140 A 
ATOM      3  N   UNL     1      -2.414   3.313  -1.986  0.00  0.00    -0.220 N 
ATOM      4  N   UNL     1      -1.619   2.756  -2.832  0.00  0.00    -0.061 NA
ATOM      5  N   UNL     1      -0.715   2.081  -2.215  0.00  0.00    -0.133 NA
ENDROOT
BRANCH   1  11
ATOM      6  C   UNL     1       0.819  -2.087   1.041  0.00  0.00    +0.039 C 
ATOM      7  C   UNL     1       0.997  -0.602   0.861  0.00  0.00    -0.071 C 
ATOM      8  C   UNL     1       1.985  -0.099   1.494  0.00  0.00    -0.064 C 
ATOM      9  C   UNL     1       2.396   1.344   1.533  0.00  0.00    +0.100 C 
ATOM     10  S   UNL     1       1.609   2.220   0.146  0.00  0.00    -0.146 S 
ATOM     11  C   UNL     1      -0.087   1.556   0.194  0.00  0.00    +0.103 C 
ATOM     12  C   UNL     1      -0.008   0.045  -0.028  0.00  0.00    +0.051 C 
ATOM     13  C   UNL     1       2.831  -1.060   2.290  0.00  0.00    +0.040 C 
ENDBRANCH   1  11
BRANCH   3  14
ATOM     14  C   UNL     1      -3.514   4.123  -2.301  0.00  0.00    +0.067 A 
ATOM     15  C   UNL     1      -4.297   4.658  -1.287  0.00  0.00    +0.028 A 
ATOM     16  C   UNL     1      -5.377   5.460  -1.601  0.00  0.00    +0.002 A 
ATOM     17  C   UNL     1      -5.685   5.722  -2.923  0.00  0.00    +0.000 A 
ATOM     18  C   UNL     1      -4.911   5.186  -3.935  0.00  0.00    +0.002 A 
ATOM     19  C   UNL     1      -3.826   4.387  -3.628  0.00  0.00    +0.028 A 
ENDBRANCH   3  14
TORSDOF 2
