REMARK  Name = ZINC16929863
REMARK  10 active torsions:
REMARK  status: ('A' for Active; 'I' for Inactive)
REMARK    1  A    between atoms: C_1  and  C_2
REMARK    2  A    between atoms: C_2  and  C_3
REMARK    3  A    between atoms: C_3  and  C_5
REMARK    4  A    between atoms: C_3  and  O_8
REMARK    5  A    between atoms: C_5  and  C_7
REMARK    6  A    between atoms: O_8  and  C_9
REMARK    7  A    between atoms: C_14  and  C_15
REMARK    8  A    between atoms: N_19  and  N_23
REMARK    9  A    between atoms: C_24  and  C_26
REMARK   10  A    between atoms: C_29  and  O_32
REMARK                            x       y       z     vdW  Elec       q    Type
REMARK                         _______ _______ _______ _____ _____    ______ ____
ROOT
ATOM      1  C   UNL     1       8.889   7.245   1.800  0.00  0.00    +0.032 C 
ATOM      2  C   UNL     1       8.349   6.161   1.185  0.00  0.00    +0.079 C 
ATOM      3  C   UNL     1       7.002   5.575   1.324  0.00  0.00    +0.275 C 
ATOM      4  O   UNL     1       6.170   6.053   2.072  0.00  0.00    -0.267 OA
ATOM      5  N   UNL     1       6.744   4.503   0.593  0.00  0.00    -0.169 N 
ATOM      6  C   UNL     1       7.670   3.973  -0.231  0.00  0.00    +0.138 C 
ATOM      7  S   UNL     1       7.531   2.598  -1.242  0.00  0.00    -0.026 S 
ATOM      8  S   UNL     1       9.076   5.052  -0.014  0.00  0.00    -0.059 S 
ENDROOT
BRANCH   1  14
ATOM      9  C   UNL     1      10.813   8.819   1.940  0.00  0.00    +0.129 A 
ATOM     10  C   UNL     1      12.167   9.081   1.801  0.00  0.00    +0.046 A 
ATOM     11  C   UNL     1      13.024   8.088   1.367  0.00  0.00    +0.004 A 
ATOM     12  C   UNL     1      12.541   6.822   1.074  0.00  0.00    +0.001 A 
ATOM     13  C   UNL     1      11.200   6.541   1.212  0.00  0.00    +0.011 A 
ATOM     14  C   UNL     1      10.320   7.537   1.650  0.00  0.00    +0.018 A 
BRANCH   9  15
ATOM     15  O   UNL     1       9.970   9.796   2.360  0.00  0.00    -0.481 OA
BRANCH  15  16
ATOM     16  C   UNL     1      10.539  11.084   2.606  0.00  0.00    +0.238 C 
BRANCH  16  17
ATOM     17  C   UNL     1      10.678  11.828   1.303  0.00  0.00    +0.170 C 
ATOM     18  O   UNL     1      10.023  11.496   0.345  0.00  0.00    -0.294 OA
ATOM     19  C   UNL     1      11.635  12.988   1.197  0.00  0.00    +0.090 C 
ENDBRANCH  16  17
BRANCH  16  21
ATOM     20  C   UNL     1       9.587  11.181   4.914  0.00  0.00    +0.008 C 
ATOM     21  C   UNL     1       9.629  11.872   3.550  0.00  0.00    +0.049 C 
ENDBRANCH  16  21
ENDBRANCH  15  16
ENDBRANCH   9  15
ENDBRANCH   1  14
BRANCH   5  22
ATOM     22  N   UNL     1       5.481   3.902   0.682  0.00  0.00    -0.222 N 
ATOM     23  C   UNL     1       4.587   4.063  -0.313  0.00  0.00    +0.261 C 
ATOM     24  O   UNL     1       4.875   4.731  -1.287  0.00  0.00    -0.269 OA
ATOM     25  H   UNL     1       5.251   3.369   1.459  0.00  0.00    +0.174 HD
BRANCH  23  26
ATOM     26  C   UNL     1       3.257   3.430  -0.220  0.00  0.00    +0.038 A 
ATOM     27  C   UNL     1       2.328   3.596  -1.250  0.00  0.00    +0.016 A 
ATOM     28  C   UNL     1       1.088   3.004  -1.159  0.00  0.00    +0.046 A 
ATOM     29  C   UNL     1       0.760   2.241  -0.044  0.00  0.00    +0.117 A 
ATOM     30  C   UNL     1       1.679   2.078   0.985  0.00  0.00    +0.046 A 
ATOM     31  C   UNL     1       2.923   2.662   0.899  0.00  0.00    +0.016 A 
BRANCH  29  32
ATOM     32  O   UNL     1      -0.463   1.660   0.042  0.00  0.00    -0.507 OA
ATOM     33  H   UNL     1      -0.502   0.770  -0.334  0.00  0.00    +0.292 HD
ENDBRANCH  29  32
ENDBRANCH  23  26
ENDBRANCH   5  22
TORSDOF 8
