REMARK  Name = ZINC66235232
REMARK  8 active torsions:
REMARK  status: ('A' for Active; 'I' for Inactive)
REMARK    1  A    between atoms: C_1  and  N_2
REMARK    2  A    between atoms: N_2  and  C_3
REMARK    3  A    between atoms: C_3  and  C_4
REMARK    4  A    between atoms: C_4  and  C_5
REMARK    5  A    between atoms: N_17  and  C_18
REMARK    6  A    between atoms: C_18  and  C_19
REMARK    7  A    between atoms: C_19  and  C_20
REMARK    8  A    between atoms: C_24  and  O_26
REMARK                            x       y       z     vdW  Elec       q    Type
REMARK                         _______ _______ _______ _____ _____    ______ ____
ROOT
ATOM      1  C   UNL     1      -0.018   1.461   0.010  0.00  0.00    +0.133 C 
ATOM      2  N   UNL     1       0.002  -0.004   0.002  0.00  0.00    -0.288 N 
ATOM      3  C   UNL     1       0.000  -0.672  -1.169  0.00  0.00    +0.302 C 
ATOM      4  O   UNL     1       0.017  -1.887  -1.175  0.00  0.00    -0.253 OA
ATOM      5  N   UNL     1      -0.020   0.009  -2.332  0.00  0.00    -0.299 N 
ATOM      6  H   UNL     1      -0.033   0.978  -2.327  0.00  0.00    +0.150 HD
ENDROOT
BRANCH   2   7
ATOM      7  C   UNL     1       0.024  -0.743   1.267  0.00  0.00    +0.113 C 
BRANCH   7   8
ATOM      8  C   UNL     1      -1.411  -1.020   1.720  0.00  0.00    +0.055 C 
BRANCH   8   9
ATOM      9  C   UNL     1      -1.388  -1.781   3.021  0.00  0.00    -0.038 A 
ATOM     10  C   UNL     1      -1.466  -3.140   3.021  0.00  0.00    +0.004 A 
ATOM     11  C   UNL     1      -1.447  -3.860   4.214  0.00  0.00    +0.001 A 
ATOM     12  C   UNL     1      -1.349  -3.225   5.414  0.00  0.00    +0.008 A 
ATOM     13  C   UNL     1      -1.266  -1.823   5.454  0.00  0.00    -0.018 A 
ATOM     14  C   UNL     1      -1.280  -1.091   4.241  0.00  0.00    -0.015 A 
ATOM     15  C   UNL     1      -1.191   0.311   4.281  0.00  0.00    +0.009 A 
ATOM     16  C   UNL     1      -1.087   0.945   5.481  0.00  0.00    +0.001 A 
ATOM     17  C   UNL     1      -1.067   0.225   6.674  0.00  0.00    +0.001 A 
ATOM     18  C   UNL     1      -1.165  -1.133   6.675  0.00  0.00    +0.008 A 
ENDBRANCH   8   9
ENDBRANCH   7   8
ENDBRANCH   2   7
BRANCH   5  19
ATOM     19  C   UNL     1      -0.022  -0.717  -3.605  0.00  0.00    +0.110 C 
BRANCH  19  20
ATOM     20  C   UNL     1      -0.047   0.283  -4.762  0.00  0.00    +0.054 C 
BRANCH  20  21
ATOM     21  C   UNL     1      -0.049  -0.463  -6.072  0.00  0.00    -0.042 A 
ATOM     22  C   UNL     1       1.148  -0.794  -6.680  0.00  0.00    +0.004 A 
ATOM     23  C   UNL     1       1.149  -1.479  -7.881  0.00  0.00    +0.004 A 
ATOM     24  C   UNL     1      -0.046  -1.834  -8.476  0.00  0.00    +0.045 A 
ATOM     25  C   UNL     1      -1.248  -1.503  -7.868  0.00  0.00    +0.117 A 
ATOM     26  C   UNL     1      -1.247  -0.821  -6.660  0.00  0.00    +0.049 A 
BRANCH  25  27
ATOM     27  O   UNL     1      -2.425  -1.851  -8.452  0.00  0.00    -0.507 OA
ATOM     28  H   UNL     1      -2.755  -2.720  -8.183  0.00  0.00    +0.292 HD
ENDBRANCH  25  27
ENDBRANCH  20  21
ENDBRANCH  19  20
ENDBRANCH   5  19
TORSDOF 7
