REMARK  Name = ZINC40399782
REMARK  13 active torsions:
REMARK  status: ('A' for Active; 'I' for Inactive)
REMARK    1  A    between atoms: C_1  and  C_2
REMARK    2  A    between atoms: C_2  and  C_3
REMARK    3  A    between atoms: C_3  and  C_5
REMARK    4  A    between atoms: C_3  and  C_6
REMARK    5  A    between atoms: N_10  and  C_29
REMARK    6  A    between atoms: N_15  and  C_18
REMARK    7  A    between atoms: C_18  and  N_20
REMARK    8  A    between atoms: N_20  and  C_21
REMARK    9  A    between atoms: C_24  and  O_27
REMARK   10  A    between atoms: O_27  and  C_28
REMARK   11  A    between atoms: C_29  and  C_30
REMARK   12  A    between atoms: C_30  and  C_31
REMARK   13  A    between atoms: C_30  and  C_32
REMARK                            x       y       z     vdW  Elec       q    Type
REMARK                         _______ _______ _______ _____ _____    ______ ____
ROOT
ATOM      1  C   UNL     1      -1.221  -1.827   0.234  0.00  0.00    +0.022 C 
ATOM      2  C   UNL     1      -0.634  -2.412  -1.033  0.00  0.00    +0.201 C 
ATOM      3  O   UNL     1       0.311  -1.966  -1.647  0.00  0.00    -0.277 OA
ATOM      4  N   UNL     1      -1.340  -3.514  -1.362  0.00  0.00    -0.313 N 
ATOM      5  C   UNL     1      -2.398  -3.731  -0.372  0.00  0.00    +0.006 C 
ATOM      6  N   UNL     1      -2.559  -2.455   0.359  0.00  0.00    +0.401 N 
ATOM      7  C   UNL     1      -3.707  -4.097  -1.068  0.00  0.00    +0.025 C 
ATOM      8  C   UNL     1      -3.520  -5.401  -1.851  0.00  0.00    +0.107 C 
ATOM      9  N   UNL     1      -3.003  -6.430  -0.939  0.00  0.00    -0.312 N 
ATOM     10  C   UNL     1      -1.787  -6.143  -0.165  0.00  0.00    +0.107 C 
ATOM     11  C   UNL     1      -1.990  -4.833   0.604  0.00  0.00    +0.025 C 
ATOM     12  H   UNL     1      -2.784  -2.623   1.328  0.00  0.00    -0.082 HD
ATOM     13  H   UNL     1      -3.264  -1.880  -0.078  0.00  0.00    -0.082 HD
ENDROOT
BRANCH   1  14
ATOM     14  C   UNL     1      -1.354  -0.308   0.108  0.00  0.00    -0.020 C 
ATOM     15  C   UNL     1      -2.213   0.029  -1.112  0.00  0.00    +0.006 C 
BRANCH  14  17
ATOM     16  C   UNL     1      -0.087   1.839  -0.059  0.00  0.00    +0.004 C 
ATOM     17  C   UNL     1       0.034   0.313  -0.058  0.00  0.00    -0.001 C 
ENDBRANCH  14  17
ENDBRANCH   1  14
BRANCH   9  18
ATOM     18  C   UNL     1      -3.633  -7.615  -0.814  0.00  0.00    +0.137 C 
ATOM     19  S   UNL     1      -4.976  -7.979  -1.810  0.00  0.00    -0.018 S 
BRANCH  18  20
ATOM     20  N   UNL     1      -3.205  -8.512   0.096  0.00  0.00    -0.297 N 
ATOM     21  H   UNL     1      -3.731  -8.683   0.893  0.00  0.00    +0.154 HD
BRANCH  20  22
ATOM     22  C   UNL     1      -2.002  -9.199  -0.110  0.00  0.00    +0.033 A 
ATOM     23  C   UNL     1      -1.303  -9.034  -1.298  0.00  0.00    +0.027 A 
ATOM     24  C   UNL     1      -0.116  -9.711  -1.500  0.00  0.00    +0.047 A 
ATOM     25  C   UNL     1       0.377 -10.556  -0.516  0.00  0.00    +0.120 A 
ATOM     26  C   UNL     1      -0.321 -10.721   0.671  0.00  0.00    +0.047 A 
ATOM     27  C   UNL     1      -1.505 -10.040   0.877  0.00  0.00    +0.027 A 
BRANCH  25  28
ATOM     28  O   UNL     1       1.546 -11.222  -0.716  0.00  0.00    -0.495 OA
ATOM     29  C   UNL     1       1.994 -12.075   0.339  0.00  0.00    +0.277 C 
ENDBRANCH  25  28
ENDBRANCH  20  22
ENDBRANCH  18  20
ENDBRANCH   9  18
BRANCH   4  30
ATOM     30  C   UNL     1      -1.088  -4.361  -2.530  0.00  0.00    +0.109 C 
BRANCH  30  31
ATOM     31  C   UNL     1      -1.873  -3.824  -3.729  0.00  0.00    +0.000 C 
ATOM     32  C   UNL     1      -1.322  -2.454  -4.127  0.00  0.00    +0.009 C 
ATOM     33  C   UNL     1      -1.733  -4.792  -4.905  0.00  0.00    +0.009 C 
ENDBRANCH  30  31
ENDBRANCH   4  30
TORSDOF 8
