REMARK  Name = ZINC09597111
REMARK  7 active torsions:
REMARK  status: ('A' for Active; 'I' for Inactive)
REMARK    1  A    between atoms: C_3  and  C_6
REMARK    2  A    between atoms: C_6  and  N_7
REMARK    3  A    between atoms: N_7  and  S_8
REMARK    4  A    between atoms: S_8  and  C_11
REMARK    5  A    between atoms: C_14  and  C_17
REMARK    6  A    between atoms: C_18  and  C_19
REMARK    7  A    between atoms: N_21  and  C_22
REMARK                            x       y       z     vdW  Elec       q    Type
REMARK                         _______ _______ _______ _____ _____    ______ ____
ROOT
ATOM      1  C   UNL     1      -2.792  12.129  -1.928  0.00  0.00    +0.105 A 
ATOM      2  C   UNL     1      -3.393  11.438  -2.966  0.00  0.00    +0.029 A 
ATOM      3  C   UNL     1      -3.378  10.060  -2.981  0.00  0.00    +0.010 A 
ATOM      4  C   UNL     1      -2.754   9.360  -1.943  0.00  0.00    -0.025 A 
ATOM      5  C   UNL     1      -2.154  10.065  -0.895  0.00  0.00    +0.010 A 
ATOM      6  C   UNL     1      -2.173  11.444  -0.897  0.00  0.00    +0.029 A 
ENDROOT
BRANCH   1   7
ATOM      7  S   UNL     1      -2.817  13.891  -1.918  0.00  0.00    +0.059 S 
ATOM      8  O   UNL     1      -1.715  14.308  -1.123  0.00  0.00    -0.153 OA
ATOM      9  O   UNL     1      -2.981  14.303  -3.268  0.00  0.00    -0.153 OA
BRANCH   7  10
ATOM     10  N   UNL     1      -4.186  14.357  -1.111  0.00  0.00    -0.183 NA
ATOM     11  H   UNL     1      -4.888  14.833  -1.582  0.00  0.00    +0.148 HD
BRANCH  10  12
ATOM     12  C   UNL     1      -4.337  14.051   0.314  0.00  0.00    +0.180 C 
BRANCH  12  15
ATOM     13  C   UNL     1      -7.449  15.585   1.558  0.00  0.00    +0.041 A 
ATOM     14  C   UNL     1      -6.753  14.518   0.944  0.00  0.00    +0.046 A 
ATOM     15  C   UNL     1      -5.458  14.878   0.889  0.00  0.00    +0.120 A 
ATOM     16  O   UNL     1      -5.333  16.097   1.438  0.00  0.00    -0.466 OA
ATOM     17  C   UNL     1      -6.538  16.533   1.841  0.00  0.00    +0.195 A 
ENDBRANCH  12  15
ENDBRANCH  10  12
ENDBRANCH   7  10
ENDBRANCH   1   7
BRANCH   4  18
ATOM     18  C   UNL     1      -2.734   7.888  -1.952  0.00  0.00    +0.013 C 
ATOM     19  C   UNL     1      -2.132   7.216  -0.950  0.00  0.00    +0.068 C 
BRANCH  19  20
ATOM     20  C   UNL     1      -2.112   5.752  -0.958  0.00  0.00    +0.237 C 
ATOM     21  O   UNL     1      -2.639   5.141  -1.869  0.00  0.00    -0.271 OA
ATOM     22  N   UNL     1      -1.510   5.081   0.044  0.00  0.00    -0.306 N 
ATOM     23  H   UNL     1      -1.089   5.567   0.770  0.00  0.00    +0.150 HD
BRANCH  22  24
ATOM     24  C   UNL     1      -1.490   3.616   0.036  0.00  0.00    +0.036 C 
ATOM     25  C   UNL     1      -0.773   3.123  -1.223  0.00  0.00    +0.029 C 
ATOM     26  C   UNL     1      -0.753   1.593  -1.232  0.00  0.00    -0.008 C 
ATOM     27  C   UNL     1      -0.013   1.086   0.008  0.00  0.00    +0.007 C 
ATOM     28  C   UNL     1      -0.729   1.579   1.267  0.00  0.00    -0.008 C 
ATOM     29  C   UNL     1      -0.750   3.109   1.275  0.00  0.00    +0.029 C 
ATOM     30  C   UNL     1      -2.164   1.050   1.278  0.00  0.00    +0.007 C 
ATOM     31  C   UNL     1      -2.904   1.556   0.038  0.00  0.00    -0.008 C 
ATOM     32  C   UNL     1      -2.188   1.063  -1.221  0.00  0.00    +0.007 C 
ATOM     33  C   UNL     1      -2.925   3.086   0.047  0.00  0.00    +0.029 C 
ENDBRANCH  22  24
ENDBRANCH  19  20
ENDBRANCH   4  18
TORSDOF 7
