REMARK  Name = ZINC12379233
REMARK  8 active torsions:
REMARK  status: ('A' for Active; 'I' for Inactive)
REMARK    1  A    between atoms: C_1  and  C_2
REMARK    2  A    between atoms: C_2  and  C_5
REMARK    3  A    between atoms: N_3  and  O_4
REMARK    4  A    between atoms: C_11  and  C_32
REMARK    5  A    between atoms: C_21  and  C_31
REMARK    6  A    between atoms: C_24  and  O_27
REMARK    7  A    between atoms: O_27  and  C_28
REMARK    8  A    between atoms: C_28  and  C_30
REMARK                            x       y       z     vdW  Elec       q    Type
REMARK                         _______ _______ _______ _____ _____    ______ ____
ROOT
ATOM      1  C   UNL     1       0.781  -5.720   0.653  0.00  0.00    +0.043 C 
ATOM      2  C   UNL     1      -0.750  -5.838   0.781  0.00  0.00    +0.010 C 
ATOM      3  C   UNL     1      -1.253  -4.482   1.325  0.00  0.00    +0.005 C 
ATOM      4  C   UNL     1      -0.136  -3.499   0.928  0.00  0.00    -0.001 C 
ATOM      5  C   UNL     1       1.152  -4.303   1.167  0.00  0.00    -0.021 C 
ATOM      6  C   UNL     1       1.424  -4.439   2.668  0.00  0.00    +0.008 C 
ATOM      7  C   UNL     1       1.469  -3.063   3.324  0.00  0.00    +0.005 C 
ATOM      8  C   UNL     1       0.095  -2.397   3.184  0.00  0.00    +0.003 C 
ATOM      9  C   UNL     1      -0.206  -2.201   1.697  0.00  0.00    +0.000 C 
ATOM     10  C   UNL     1      -1.620  -1.615   1.568  0.00  0.00    +0.031 C 
ATOM     11  C   UNL     1      -1.741  -0.387   2.419  0.00  0.00    -0.027 C 
ATOM     12  C   UNL     1      -0.971  -0.135   3.429  0.00  0.00    -0.064 C 
ATOM     13  C   UNL     1       0.136  -1.045   3.886  0.00  0.00    -0.008 C 
ATOM     14  C   UNL     1       1.478  -0.352   3.664  0.00  0.00    +0.015 C 
ATOM     15  C   UNL     1       1.302   1.165   3.738  0.00  0.00    +0.046 C 
ATOM     16  C   UNL     1       0.229   1.544   4.756  0.00  0.00    +0.180 C 
ATOM     17  C   UNL     1      -1.154   1.154   4.214  0.00  0.00    +0.075 C 
ATOM     18  C   UNL     1      -0.025  -1.279   5.389  0.00  0.00    +0.016 C 
ATOM     19  C   UNL     1       2.353  -3.718   0.421  0.00  0.00    +0.012 C 
ENDROOT
BRANCH   1  21
ATOM     20  C   UNL     1       0.782  -7.275   2.750  0.00  0.00    +0.064 C 
ATOM     21  C   UNL     1       1.454  -6.771   1.498  0.00  0.00    +0.058 C 
ATOM     22  N   UNL     1       2.595  -7.235   1.153  0.00  0.00    -0.097 NA
BRANCH  22  23
ATOM     23  O   UNL     1       3.186  -6.826  -0.067  0.00  0.00    -0.409 OA
ATOM     24  H   UNL     1       4.010  -7.286  -0.279  0.00  0.00    +0.328 HD
ENDBRANCH  22  23
ENDBRANCH   1  21
BRANCH  16  25
ATOM     25  O   UNL     1       0.475   0.843   6.003  0.00  0.00    -0.461 OA
BRANCH  25  26
ATOM     26  C   UNL     1       0.085   1.453   7.133  0.00  0.00    +0.304 C 
ATOM     27  O   UNL     1      -0.445   2.538   7.082  0.00  0.00    -0.251 OA
ATOM     28  C   UNL     1       0.308   0.786   8.466  0.00  0.00    +0.136 C 
ENDBRANCH  25  26
ENDBRANCH  16  25
TORSDOF 4
