REMARK  Name = ZINC13555727
REMARK  5 active torsions:
REMARK  status: ('A' for Active; 'I' for Inactive)
REMARK    1  A    between atoms: C_1  and  O_2
REMARK    2  A    between atoms: O_2  and  C_3
REMARK    3  A    between atoms: C_12  and  S_16
REMARK    4  A    between atoms: S_16  and  C_17
REMARK    5  A    between atoms: C_17  and  C_18
REMARK                            x       y       z     vdW  Elec       q    Type
REMARK                         _______ _______ _______ _____ _____    ______ ____
ROOT
ATOM      1  C   UNL     1       0.606  -0.608  -1.056  0.00  0.00    +0.144 A 
ATOM      2  C   UNL     1       1.171   0.159  -2.059  0.00  0.00    +0.049 A 
ATOM      3  C   UNL     1       1.789  -0.445  -3.143  0.00  0.00    +0.024 A 
ATOM      4  C   UNL     1       1.847  -1.820  -3.233  0.00  0.00    +0.053 A 
ATOM      5  C   UNL     1       1.282  -2.606  -2.228  0.00  0.00    +0.051 A 
ATOM      6  C   UNL     1       0.661  -1.999  -1.128  0.00  0.00    +0.094 A 
ATOM      7  N   UNL     1       0.194  -2.996  -0.283  0.00  0.00    -0.335 N 
ATOM      8  C   UNL     1       0.495  -4.234  -0.794  0.00  0.00    +0.162 A 
ATOM      9  N   UNL     1       0.267  -5.473  -0.368  0.00  0.00    -0.201 NA
ATOM     10  C   UNL     1       0.689  -6.497  -1.098  0.00  0.00    +0.212 A 
ATOM     11  N   UNL     1       1.336  -6.308  -2.244  0.00  0.00    -0.122 NA
ATOM     12  N   UNL     1       1.578  -5.125  -2.694  0.00  0.00    -0.143 NA
ATOM     13  C   UNL     1       1.171  -4.060  -2.019  0.00  0.00    +0.139 A 
ATOM     14 CL   UNL     1       2.621  -2.572  -4.593  0.00  0.00    -0.083 Cl
ATOM     15  H   UNL     1      -0.278  -2.840   0.550  0.00  0.00    +0.167 HD
ENDROOT
BRANCH   1  17
ATOM     16  C   UNL     1      -0.017   1.425   0.010  0.00  0.00    +0.277 C 
ATOM     17  O   UNL     1       0.002  -0.004   0.002  0.00  0.00    -0.493 OA
ENDBRANCH   1  17
BRANCH  10  18
ATOM     18  S   UNL     1       0.389  -8.140  -0.536  0.00  0.00    -0.080 S 
BRANCH  18  19
ATOM     19  C   UNL     1       1.126  -9.185  -1.823  0.00  0.00    +0.114 C 
BRANCH  19  20
ATOM     20  C   UNL     1       0.936 -10.636  -1.461  0.00  0.00    -0.019 A 
ATOM     21  C   UNL     1       1.886 -11.300  -0.700  0.00  0.00    +0.007 A 
ATOM     22  C   UNL     1       1.670 -12.634  -0.391  0.00  0.00    +0.020 A 
ATOM     23  C   UNL     1       0.523 -13.254  -0.850  0.00  0.00    +0.111 A 
ATOM     24  N   UNL     1      -0.359 -12.591  -1.572  0.00  0.00    -0.263 NA
ATOM     25  C   UNL     1      -0.189 -11.320  -1.879  0.00  0.00    +0.115 A 
ENDBRANCH  19  20
ENDBRANCH  18  19
ENDBRANCH  10  18
TORSDOF 4
