REMARK  Name = ZINC10055922
REMARK  9 active torsions:
REMARK  status: ('A' for Active; 'I' for Inactive)
REMARK    1  A    between atoms: C_1  and  C_2
REMARK    2  A    between atoms: N_10  and  C_14
REMARK    3  A    between atoms: C_14  and  C_15
REMARK    4  A    between atoms: C_15  and  O_17
REMARK    5  A    between atoms: O_17  and  C_18
REMARK    6  A    between atoms: C_18  and  C_19
REMARK    7  A    between atoms: N_21  and  C_22
REMARK    8  A    between atoms: C_22  and  C_23
REMARK    9  A    between atoms: N_25  and  C_26
REMARK                            x       y       z     vdW  Elec       q    Type
REMARK                         _______ _______ _______ _____ _____    ______ ____
ROOT
ATOM      1  C   UNL     1       5.308   8.025   0.516  0.00  0.00    +0.327 C 
ENDROOT
BRANCH   1   2
ATOM      2  C   UNL     1       3.895   7.507   0.427  0.00  0.00    +0.251 C 
ATOM      3  O   UNL     1       2.962   8.281   0.459  0.00  0.00    -0.272 OA
ATOM      4  N   UNL     1       3.669   6.183   0.312  0.00  0.00    -0.304 N 
ATOM      5  H   UNL     1       4.416   5.564   0.286  0.00  0.00    +0.149 HD
BRANCH   4   6
ATOM      6  C   UNL     1       2.296   5.679   0.225  0.00  0.00    +0.200 C 
BRANCH   6   7
ATOM      7  C   UNL     1       2.319   4.177   0.104  0.00  0.00    +0.234 C 
ATOM      8  O   UNL     1       3.378   3.586   0.091  0.00  0.00    -0.274 OA
ATOM      9  N   UNL     1       1.163   3.491   0.009  0.00  0.00    -0.282 N 
ATOM     10  H   UNL     1       0.321   3.967  -0.061  0.00  0.00    +0.155 HD
BRANCH   9  11
ATOM     11  C   UNL     1       1.178   2.090   0.013  0.00  0.00    +0.072 A 
ATOM     12  C   UNL     1       2.230   1.407   0.608  0.00  0.00    +0.029 A 
ATOM     13  C   UNL     1       2.244   0.026   0.611  0.00  0.00    +0.043 A 
ATOM     14  C   UNL     1       1.210  -0.680   0.022  0.00  0.00    +0.161 A 
ATOM     15  C   UNL     1       0.156  -0.003  -0.574  0.00  0.00    +0.195 A 
ATOM     16  C   UNL     1       0.139   1.381  -0.579  0.00  0.00    +0.182 A 
ATOM     17  F   UNL     1      -0.884   2.043  -1.163  0.00  0.00    -0.200 F 
ATOM     18  F   UNL     1      -0.852  -0.694  -1.149  0.00  0.00    -0.199 F 
ATOM     19  F   UNL     1       1.226  -2.031   0.026  0.00  0.00    -0.202 F 
ENDBRANCH   9  11
ENDBRANCH   6   7
ENDBRANCH   4   6
ENDBRANCH   1   2
BRANCH   1  20
ATOM     20  O   UNL     1       5.285   9.472   0.633  0.00  0.00    -0.454 OA
BRANCH  20  21
ATOM     21  C   UNL     1       6.471  10.094   0.723  0.00  0.00    +0.326 C 
ATOM     22  O   UNL     1       7.494   9.451   0.705  0.00  0.00    -0.249 OA
BRANCH  21  23
ATOM     23  C   UNL     1       6.527  11.595   0.847  0.00  0.00    +0.238 C 
BRANCH  23  33
ATOM     24  C   UNL     1      14.158  13.994   0.715  0.00  0.00    +0.007 C 
ATOM     25  C   UNL     1      12.801  13.611   0.123  0.00  0.00    -0.014 C 
ATOM     26  C   UNL     1      12.467  12.167   0.505  0.00  0.00    +0.006 C 
ATOM     27  C   UNL     1      11.114  11.781  -0.098  0.00  0.00    +0.035 C 
ATOM     28  C   UNL     1      10.035  12.723   0.422  0.00  0.00    +0.113 C 
ATOM     29  C   UNL     1      10.366  14.170   0.071  0.00  0.00    +0.035 C 
ATOM     30  C   UNL     1      11.722  14.547   0.673  0.00  0.00    +0.006 C 
ATOM     31  C   UNL     1       8.685  12.341  -0.140  0.00  0.00    +0.247 C 
ATOM     32  O   UNL     1       8.356  12.319  -1.307  0.00  0.00    -0.273 OA
ATOM     33  N   UNL     1       7.925  12.027   0.929  0.00  0.00    -0.213 N 
ATOM     34  C   UNL     1       8.604  12.164   2.074  0.00  0.00    +0.310 C 
ATOM     35  O   UNL     1       8.130  11.944   3.172  0.00  0.00    -0.252 OA
ATOM     36  N   UNL     1       9.873  12.570   1.874  0.00  0.00    -0.285 N 
ATOM     37  H   UNL     1      10.545  12.733   2.554  0.00  0.00    +0.151 HD
ENDBRANCH  23  33
ENDBRANCH  21  23
ENDBRANCH  20  21
ENDBRANCH   1  20
TORSDOF 8
