REMARK  Name = ZINC16424393
REMARK  15 active torsions:
REMARK  status: ('A' for Active; 'I' for Inactive)
REMARK    1  A    between atoms: C_1  and  C_2
REMARK    2  A    between atoms: C_2  and  N_71
REMARK    3  A    between atoms: C_3  and  C_4
REMARK    4  A    between atoms: C_3  and  N_71
REMARK    5  A    between atoms: C_5  and  C_6
REMARK    6  A    between atoms: C_5  and  N_71
REMARK    7  A    between atoms: C_6  and  C_7
REMARK    8  A    between atoms: C_7  and  C_8
REMARK    9  A    between atoms: C_8  and  C_10
REMARK   10  A    between atoms: C_8  and  N_11
REMARK   11  A    between atoms: N_11  and  C_12
REMARK   12  A    between atoms: C_12  and  C_13
REMARK   13  A    between atoms: C_21  and  C_22
REMARK   14  A    between atoms: C_21  and  C_23
REMARK   15  A    between atoms: N_26  and  C_27
REMARK                            x       y       z     vdW  Elec       q    Type
REMARK                         _______ _______ _______ _____ _____    ______ ____
ROOT
ATOM      1  N   UNL     1       3.058   6.703  -0.983  0.00  0.00    -0.279 N 
ATOM      2  C   UNL     1       2.074   6.061  -1.642  0.00  0.00    +0.307 C 
ATOM      3  O   UNL     1       0.976   6.572  -1.745  0.00  0.00    -0.252 OA
ATOM      4  N   UNL     1       2.307   4.851  -2.188  0.00  0.00    -0.269 N 
ATOM      5  H   UNL     1       3.169   4.423  -2.069  0.00  0.00    +0.156 HD
ENDROOT
BRANCH   4   6
ATOM      6  C   UNL     1       1.304   4.211  -2.925  0.00  0.00    +0.036 A 
ATOM      7  C   UNL     1       1.150   2.833  -2.841  0.00  0.00    +0.023 A 
ATOM      8  C   UNL     1       0.161   2.204  -3.571  0.00  0.00    +0.003 A 
ATOM      9  C   UNL     1      -0.680   2.945  -4.381  0.00  0.00    +0.015 A 
ATOM     10  C   UNL     1      -0.526   4.317  -4.471  0.00  0.00    +0.020 A 
ATOM     11  C   UNL     1       0.463   4.952  -3.744  0.00  0.00    +0.038 A 
ATOM     12 BR   UNL     1      -1.674   5.325  -5.586  0.00  0.00    -0.050 Br
ENDBRANCH   4   6
BRANCH   1  13
ATOM     13  C   UNL     1       2.793   8.001  -0.356  0.00  0.00    +0.075 C 
ATOM     14  C   UNL     1       3.265   7.970   1.099  0.00  0.00    +0.028 C 
BRANCH  13  15
ATOM     15  C   UNL     1       3.547   9.096  -1.113  0.00  0.00    +0.020 C 
BRANCH  15  16
ATOM     16  C   UNL     1       2.997   9.202  -2.537  0.00  0.00    -0.017 C 
BRANCH  16  17
ATOM     17  C   UNL     1       3.824  10.216  -3.329  0.00  0.00    -0.079 C 
BRANCH  17  18
ATOM     18  N   UNL     1       3.250  10.345  -4.685  0.00  0.00    +0.379 N 
ATOM     19  H   UNL     1       3.150   9.409  -5.095  0.00  0.00    -0.082 HD
BRANCH  18  21
ATOM     20  C   UNL     1       2.037  12.416  -4.092  0.00  0.00    -0.017 C 
ATOM     21  C   UNL     1       1.918  10.982  -4.612  0.00  0.00    -0.082 C 
ENDBRANCH  18  21
BRANCH  18  22
ATOM     22  C   UNL     1       4.148  11.150  -5.540  0.00  0.00    -0.082 C 
ATOM     23  C   UNL     1       3.651  11.077  -6.985  0.00  0.00    -0.017 C 
ENDBRANCH  18  22
ENDBRANCH  17  18
ENDBRANCH  16  17
ENDBRANCH  15  16
ENDBRANCH  13  15
ENDBRANCH   1  13
BRANCH   1  24
ATOM     24  C   UNL     1       4.392   6.104  -0.892  0.00  0.00    +0.140 C 
BRANCH  24  25
ATOM     25  C   UNL     1       4.404   5.069   0.203  0.00  0.00    -0.053 C 
ATOM     26  C   UNL     1       4.239   3.794  -0.062  0.00  0.00    -0.025 C 
ATOM     27  C   UNL     1       4.271   2.788   1.063  0.00  0.00    +0.031 C 
ATOM     28  C   UNL     1       4.420   3.517   2.405  0.00  0.00    -0.000 C 
ATOM     29  C   UNL     1       5.595   4.515   2.359  0.00  0.00    +0.012 C 
ATOM     30  C   UNL     1       4.603   5.462   1.657  0.00  0.00    +0.022 C 
ATOM     31  C   UNL     1       3.519   4.760   2.511  0.00  0.00    -0.025 C 
ATOM     32  C   UNL     1       3.395   5.315   3.932  0.00  0.00    +0.012 C 
ATOM     33  C   UNL     1       2.171   4.612   1.803  0.00  0.00    +0.012 C 
ENDBRANCH  24  25
ENDBRANCH   1  24
TORSDOF 10
