REMARK  Name = ZINC38586428
REMARK  4 active torsions:
REMARK  status: ('A' for Active; 'I' for Inactive)
REMARK    1  A    between atoms: C_6  and  C_11
REMARK    2  A    between atoms: C_11  and  N_12
REMARK    3  A    between atoms: C_20  and  C_21
REMARK    4  A    between atoms: N_26  and  C_28
REMARK                            x       y       z     vdW  Elec       q    Type
REMARK                         _______ _______ _______ _____ _____    ______ ____
ROOT
ATOM      1  N   UNL     1       5.464  -2.942   1.339  0.00  0.00    -0.323 N 
ATOM      2  C   UNL     1       6.231  -2.101   2.120  0.00  0.00    +0.069 A 
ATOM      3  C   UNL     1       6.818  -0.859   1.915  0.00  0.00    +0.028 A 
ATOM      4  C   UNL     1       7.544  -0.272   2.930  0.00  0.00    +0.002 A 
ATOM      5  C   UNL     1       7.692  -0.913   4.151  0.00  0.00    +0.002 A 
ATOM      6  C   UNL     1       7.122  -2.135   4.370  0.00  0.00    +0.030 A 
ATOM      7  C   UNL     1       6.381  -2.750   3.357  0.00  0.00    +0.089 A 
ATOM      8  N   UNL     1       5.712  -3.928   3.269  0.00  0.00    -0.232 NA
ATOM      9  C   UNL     1       5.170  -4.037   2.091  0.00  0.00    +0.116 A 
ENDROOT
BRANCH   9  10
ATOM     10  C   UNL     1       4.342  -5.207   1.627  0.00  0.00    +0.082 C 
ATOM     11  C   UNL     1       3.153  -5.458   2.583  0.00  0.00    +0.109 C 
ATOM     12  C   UNL     1       3.026  -6.965   2.629  0.00  0.00    +0.221 C 
ATOM     13  O   UNL     1       2.056  -7.568   3.036  0.00  0.00    -0.275 OA
ATOM     14  N   UNL     1       4.146  -7.538   2.154  0.00  0.00    -0.271 N 
ATOM     15  C   UNL     1       5.133  -6.528   1.752  0.00  0.00    +0.125 C 
BRANCH  14  16
ATOM     16  C   UNL     1       4.344  -8.919   2.055  0.00  0.00    +0.038 A 
ATOM     17  C   UNL     1       3.396  -9.797   2.565  0.00  0.00    +0.023 A 
ATOM     18  C   UNL     1       3.594 -11.160   2.465  0.00  0.00    +0.003 A 
ATOM     19  C   UNL     1       4.736 -11.652   1.859  0.00  0.00    +0.020 A 
ATOM     20  C   UNL     1       5.683 -10.781   1.350  0.00  0.00    +0.043 A 
ATOM     21  C   UNL     1       5.487  -9.415   1.442  0.00  0.00    +0.043 A 
ATOM     22 CL   UNL     1       7.114 -11.403   0.591  0.00  0.00    -0.083 Cl
ENDBRANCH  14  16
ENDBRANCH   9  10
BRANCH   1  23
ATOM     23  C   UNL     1       5.038  -2.697  -0.041  0.00  0.00    +0.158 C 
BRANCH  23  29
ATOM     24  C   UNL     1       0.017   1.364  -0.025  0.00  0.00    +0.001 A 
ATOM     25  C   UNL     1       1.203   2.097  -0.017  0.00  0.00    +0.001 A 
ATOM     26  C   UNL     1       2.412   1.473  -0.019  0.00  0.00    +0.008 A 
ATOM     27  C   UNL     1       2.470   0.069  -0.028  0.00  0.00    -0.018 A 
ATOM     28  C   UNL     1       3.700  -0.611  -0.030  0.00  0.00    +0.014 A 
ATOM     29  C   UNL     1       3.717  -1.972  -0.039  0.00  0.00    -0.027 A 
ATOM     30  C   UNL     1       2.532  -2.705  -0.047  0.00  0.00    +0.006 A 
ATOM     31  C   UNL     1       1.323  -2.081  -0.045  0.00  0.00    +0.009 A 
ATOM     32  C   UNL     1       1.265  -0.676  -0.036  0.00  0.00    -0.018 A 
ATOM     33  C   UNL     1       0.035   0.003  -0.034  0.00  0.00    +0.008 A 
ENDBRANCH  23  29
ENDBRANCH   1  23
TORSDOF 4
